MODEL 1
REMARK VINA RESULT:      -7.9      0.000      0.000
REMARK  3 active torsions:
REMARK  status: ('A' for Active; 'I' for Inactive)
REMARK    1  A    between atoms: S_2  and  C_1 
REMARK    2  A    between atoms: C_8  and  S_2 
REMARK    3  A    between atoms: C_20  and  C_13 
ROOT
ATOM      1  C   UNL d   1     -47.430  13.378  22.809  0.00  0.00     0.151 A 
ATOM      2  C   UNL d   1     -47.252  14.185  22.922  0.00  0.00     0.311 A 
ATOM      3  C   UNL d   1     -48.189  13.161  22.579  0.00  0.00     0.019 A 
ATOM      4  O   UNL d   1     -47.837  14.757  22.803  0.00  0.00    -0.273 OA
ATOM      5  C   UNL d   1     -48.773  13.724  22.460  0.00  0.00     0.024 A 
ATOM      6  C   UNL d   1     -48.595  14.530  22.573  0.00  0.00     0.103 A 
ATOM      7  O   UNL d   1     -46.487  14.414  23.154  0.00  0.00    -0.258 OA
ATOM      8  C   UNL d   1     -49.528  13.505  22.232  0.00  0.00     0.009 A 
ATOM      9  C   UNL d   1     -49.176  15.101  22.456  0.00  0.00     0.025 A 
ATOM     10  C   UNL d   1     -50.119  14.070  22.111  0.00  0.00     0.035 A 
ATOM     11  C   UNL d   1     -49.941  14.876  22.224  0.00  0.00     0.009 A 
ATOM     12 BR   UNL d   1     -50.889  13.841  21.877  0.00  0.00    -0.049 Br
ENDROOT
BRANCH   1  13
ATOM     13  S   UNL d   1     -46.840  12.814  22.930  0.00  0.00     0.215 S 
ATOM     14  O   UNL d   1     -46.544  12.946  22.168  0.00  0.00    -0.217 OA
ATOM     15  O   UNL d   1     -47.134  12.677  23.698  0.00  0.00    -0.217 OA
BRANCH  13  16
ATOM     16  C   UNL d   1     -46.252  12.246  23.059  0.00  0.00     0.088 A 
ATOM     17  C   UNL d   1     -46.403  11.590  23.547  0.00  0.00     0.011 A 
ATOM     18  C   UNL d   1     -45.816  11.026  23.674  0.00  0.00     0.001 A 
ATOM     19  C   UNL d   1     -45.075  11.108  23.321  0.00  0.00     0.000 A 
ATOM     20  C   UNL d   1     -44.924  11.760  22.835  0.00  0.00     0.001 A 
ATOM     21  C   UNL d   1     -45.510  12.324  22.707  0.00  0.00     0.011 A 
BRANCH  19  22
ATOM     22  C   UNL d   1     -44.487  10.537  23.452  0.00  0.00     0.000 C 
ATOM     23  C   UNL d   1     -44.695   9.787  23.697  0.00  0.00     0.000 C 
ATOM     24  C   UNL d   1     -43.694  10.732  23.335  0.00  0.00     0.000 C 
ENDBRANCH  19  22
ENDBRANCH  13  16
ENDBRANCH   1  13
TORSDOF 3
ENDMDL
MODEL 2
REMARK VINA RESULT:      -7.6      1.875      4.854
REMARK  3 active torsions:
REMARK  status: ('A' for Active; 'I' for Inactive)
REMARK    1  A    between atoms: S_2  and  C_1 
REMARK    2  A    between atoms: C_8  and  S_2 
REMARK    3  A    between atoms: C_20  and  C_13 
ROOT
ATOM      1  C   UNL d   1     -46.444  13.056  22.701  0.00  0.00     0.151 A 
ATOM      2  C   UNL d   1     -46.332  12.390  23.190  0.00  0.00     0.311 A 
ATOM      3  C   UNL d   1     -45.834  13.302  22.207  0.00  0.00     0.019 A 
ATOM      4  O   UNL d   1     -45.612  11.984  23.174  0.00  0.00    -0.273 OA
ATOM      5  C   UNL d   1     -45.119  12.902  22.187  0.00  0.00     0.024 A 
ATOM      6  C   UNL d   1     -45.006  12.236  22.676  0.00  0.00     0.103 A 
ATOM      7  O   UNL d   1     -46.943  12.135  23.693  0.00  0.00    -0.258 OA
ATOM      8  C   UNL d   1     -44.513  13.149  21.695  0.00  0.00     0.009 A 
ATOM      9  C   UNL d   1     -44.291  11.831  22.662  0.00  0.00     0.025 A 
ATOM     10  C   UNL d   1     -43.790  12.749  21.672  0.00  0.00     0.035 A 
ATOM     11  C   UNL d   1     -43.678  12.082  22.162  0.00  0.00     0.009 A 
ATOM     12 BR   UNL d   1     -43.174  13.004  21.167  0.00  0.00    -0.049 Br
ENDROOT
BRANCH   1  13
ATOM     13  S   UNL d   1     -47.166  13.456  22.723  0.00  0.00     0.215 S 
ATOM     14  O   UNL d   1     -47.437  13.022  22.073  0.00  0.00    -0.217 OA
ATOM     15  O   UNL d   1     -46.897  13.896  23.378  0.00  0.00    -0.217 OA
BRANCH  13  16
ATOM     16  C   UNL d   1     -47.887  13.862  22.752  0.00  0.00     0.088 A 
ATOM     17  C   UNL d   1     -47.915  14.677  22.593  0.00  0.00     0.011 A 
ATOM     18  C   UNL d   1     -48.633  15.079  22.622  0.00  0.00     0.001 A 
ATOM     19  C   UNL d   1     -49.329  14.677  22.810  0.00  0.00     0.000 A 
ATOM     20  C   UNL d   1     -49.302  13.866  22.969  0.00  0.00     0.001 A 
ATOM     21  C   UNL d   1     -48.584  13.463  22.940  0.00  0.00     0.011 A 
BRANCH  19  22
ATOM     22  C   UNL d   1     -50.051  15.087  22.839  0.00  0.00     0.000 C 
ATOM     23  C   UNL d   1     -50.667  14.860  22.354  0.00  0.00     0.000 C 
ATOM     24  C   UNL d   1     -50.141  15.722  23.358  0.00  0.00     0.000 C 
ENDBRANCH  19  22
ENDBRANCH  13  16
ENDBRANCH   1  13
TORSDOF 3
ENDMDL
MODEL 3
REMARK VINA RESULT:      -7.2      1.355      1.979
REMARK  3 active torsions:
REMARK  status: ('A' for Active; 'I' for Inactive)
REMARK    1  A    between atoms: S_2  and  C_1 
REMARK    2  A    between atoms: C_8  and  S_2 
REMARK    3  A    between atoms: C_20  and  C_13 
ROOT
ATOM      1  C   UNL d   1     -48.374  13.293  23.008  0.00  0.00     0.151 A 
ATOM      2  C   UNL d   1     -48.916  12.661  23.045  0.00  0.00     0.311 A 
ATOM      3  C   UNL d   1     -48.641  14.062  23.131  0.00  0.00     0.019 A 
ATOM      4  O   UNL d   1     -49.713  12.810  23.204  0.00  0.00    -0.273 OA
ATOM      5  C   UNL d   1     -49.430  14.215  23.289  0.00  0.00     0.024 A 
ATOM      6  C   UNL d   1     -49.972  13.582  23.326  0.00  0.00     0.103 A 
ATOM      7  O   UNL d   1     -48.654  11.881  22.921  0.00  0.00    -0.258 OA
ATOM      8  C   UNL d   1     -49.694  14.980  23.412  0.00  0.00     0.009 A 
ATOM      9  C   UNL d   1     -50.766  13.728  23.484  0.00  0.00     0.025 A 
ATOM     10  C   UNL d   1     -50.489  15.138  23.571  0.00  0.00     0.035 A 
ATOM     11  C   UNL d   1     -51.031  14.506  23.608  0.00  0.00     0.009 A 
ATOM     12 BR   UNL d   1     -50.754  15.922  23.696  0.00  0.00    -0.049 Br
ENDROOT
BRANCH   1  13
ATOM     13  S   UNL d   1     -47.579  13.136  22.848  0.00  0.00     0.215 S 
ATOM     14  O   UNL d   1     -47.417  13.085  23.658  0.00  0.00    -0.217 OA
ATOM     15  O   UNL d   1     -47.738  13.186  22.031  0.00  0.00    -0.217 OA
BRANCH  13  16
ATOM     16  C   UNL d   1     -46.785  12.979  22.680  0.00  0.00     0.088 A 
ATOM     17  C   UNL d   1     -46.395  12.346  23.052  0.00  0.00     0.011 A 
ATOM     18  C   UNL d   1     -45.603  12.191  22.883  0.00  0.00     0.001 A 
ATOM     19  C   UNL d   1     -45.193  12.661  22.343  0.00  0.00     0.000 A 
ATOM     20  C   UNL d   1     -45.580  13.291  21.972  0.00  0.00     0.001 A 
ATOM     21  C   UNL d   1     -46.371  13.446  22.140  0.00  0.00     0.011 A 
BRANCH  19  22
ATOM     22  C   UNL d   1     -44.395  12.501  22.175  0.00  0.00     0.000 C 
ATOM     23  C   UNL d   1     -43.997  11.929  22.599  0.00  0.00     0.000 C 
ATOM     24  C   UNL d   1     -44.010  12.923  21.580  0.00  0.00     0.000 C 
ENDBRANCH  19  22
ENDBRANCH  13  16
ENDBRANCH   1  13
TORSDOF 3
ENDMDL
MODEL 4
REMARK VINA RESULT:      -6.7      8.430      9.772
REMARK  3 active torsions:
REMARK  status: ('A' for Active; 'I' for Inactive)
REMARK    1  A    between atoms: S_2  and  C_1 
REMARK    2  A    between atoms: C_8  and  S_2 
REMARK    3  A    between atoms: C_20  and  C_13 
ROOT
ATOM      1  C   UNL d   1     -39.825  14.530  18.563  0.00  0.00     0.151 A 
ATOM      2  C   UNL d   1     -40.632  14.348  18.667  0.00  0.00     0.311 A 
ATOM      3  C   UNL d   1     -39.386  14.804  19.203  0.00  0.00     0.019 A 
ATOM      4  O   UNL d   1     -40.983  14.443  19.410  0.00  0.00    -0.273 OA
ATOM      5  C   UNL d   1     -39.730  14.900  19.941  0.00  0.00     0.024 A 
ATOM      6  C   UNL d   1     -40.537  14.718  20.045  0.00  0.00     0.103 A 
ATOM      7  O   UNL d   1     -41.082  14.070  18.026  0.00  0.00    -0.258 OA
ATOM      8  C   UNL d   1     -39.292  15.173  20.576  0.00  0.00     0.009 A 
ATOM      9  C   UNL d   1     -40.888  14.812  20.783  0.00  0.00     0.025 A 
ATOM     10  C   UNL d   1     -39.635  15.271  21.322  0.00  0.00     0.035 A 
ATOM     11  C   UNL d   1     -40.442  15.089  21.426  0.00  0.00     0.009 A 
ATOM     12 BR   UNL d   1     -39.183  15.550  21.968  0.00  0.00    -0.049 Br
ENDROOT
BRANCH   1  13
ATOM     13  S   UNL d   1     -39.482  14.432  17.818  0.00  0.00     0.215 S 
ATOM     14  O   UNL d   1     -39.434  15.253  17.722  0.00  0.00    -0.217 OA
ATOM     15  O   UNL d   1     -39.528  13.605  17.911  0.00  0.00    -0.217 OA
BRANCH  13  16
ATOM     16  C   UNL d   1     -39.138  14.325  17.073  0.00  0.00     0.088 A 
ATOM     17  C   UNL d   1     -39.261  14.884  16.471  0.00  0.00     0.011 A 
ATOM     18  C   UNL d   1     -38.918  14.775  15.730  0.00  0.00     0.001 A 
ATOM     19  C   UNL d   1     -38.452  14.112  15.579  0.00  0.00     0.000 A 
ATOM     20  C   UNL d   1     -38.329  13.554  16.178  0.00  0.00     0.001 A 
ATOM     21  C   UNL d   1     -38.671  13.662  16.919  0.00  0.00     0.011 A 
BRANCH  19  22
ATOM     22  C   UNL d   1     -38.108  14.006  14.831  0.00  0.00     0.000 C 
ATOM     23  C   UNL d   1     -37.940  13.255  14.563  0.00  0.00     0.000 C 
ATOM     24  C   UNL d   1     -37.940  14.664  14.361  0.00  0.00     0.000 C 
ENDBRANCH  19  22
ENDBRANCH  13  16
ENDBRANCH   1  13
TORSDOF 3
ENDMDL
MODEL 5
REMARK VINA RESULT:      -6.3      8.112      8.918
REMARK  3 active torsions:
REMARK  status: ('A' for Active; 'I' for Inactive)
REMARK    1  A    between atoms: S_2  and  C_1 
REMARK    2  A    between atoms: C_8  and  S_2 
REMARK    3  A    between atoms: C_20  and  C_13 
ROOT
ATOM      1  C   UNL d   1     -39.765  14.644  19.384  0.00  0.00     0.151 A 
ATOM      2  C   UNL d   1     -40.533  14.419  19.150  0.00  0.00     0.311 A 
ATOM      3  C   UNL d   1     -39.259  14.986  18.833  0.00  0.00     0.019 A 
ATOM      4  O   UNL d   1     -40.778  14.540  18.369  0.00  0.00    -0.273 OA
ATOM      5  C   UNL d   1     -39.497  15.108  18.058  0.00  0.00     0.024 A 
ATOM      6  C   UNL d   1     -40.265  14.883  17.824  0.00  0.00     0.103 A 
ATOM      7  O   UNL d   1     -41.051  14.073  19.700  0.00  0.00    -0.258 OA
ATOM      8  C   UNL d   1     -38.991  15.449  17.512  0.00  0.00     0.009 A 
ATOM      9  C   UNL d   1     -40.511  15.003  17.048  0.00  0.00     0.025 A 
ATOM     10  C   UNL d   1     -39.228  15.574  16.730  0.00  0.00     0.035 A 
ATOM     11  C   UNL d   1     -39.996  15.348  16.495  0.00  0.00     0.009 A 
ATOM     12 BR   UNL d   1     -38.708  15.922  16.175  0.00  0.00    -0.049 Br
ENDROOT
BRANCH   1  13
ATOM     13  S   UNL d   1     -39.528  14.520  20.165  0.00  0.00     0.215 S 
ATOM     14  O   UNL d   1     -39.878  15.234  20.395  0.00  0.00    -0.217 OA
ATOM     15  O   UNL d   1     -39.174  13.800  19.938  0.00  0.00    -0.217 OA
BRANCH  13  16
ATOM     16  C   UNL d   1     -39.287  14.387  20.945  0.00  0.00     0.088 A 
ATOM     17  C   UNL d   1     -39.471  14.938  21.540  0.00  0.00     0.011 A 
ATOM     18  C   UNL d   1     -39.230  14.804  22.316  0.00  0.00     0.001 A 
ATOM     19  C   UNL d   1     -38.805  14.124  22.509  0.00  0.00     0.000 A 
ATOM     20  C   UNL d   1     -38.621  13.575  21.918  0.00  0.00     0.001 A 
ATOM     21  C   UNL d   1     -38.862  13.708  21.142  0.00  0.00     0.011 A 
BRANCH  19  22
ATOM     22  C   UNL d   1     -38.564  13.993  23.293  0.00  0.00     0.000 C 
ATOM     23  C   UNL d   1     -38.134  14.563  23.687  0.00  0.00     0.000 C 
ATOM     24  C   UNL d   1     -38.760  13.285  23.669  0.00  0.00     0.000 C 
ENDBRANCH  19  22
ENDBRANCH  13  16
ENDBRANCH   1  13
TORSDOF 3
ENDMDL
MODEL 6
REMARK VINA RESULT:      -5.7      8.791     10.346
REMARK  3 active torsions:
REMARK  status: ('A' for Active; 'I' for Inactive)
REMARK    1  A    between atoms: S_2  and  C_1 
REMARK    2  A    between atoms: C_8  and  S_2 
REMARK    3  A    between atoms: C_20  and  C_13 
ROOT
ATOM      1  C   UNL d   1     -38.619  14.032  17.696  0.00  0.00     0.151 A 
ATOM      2  C   UNL d   1     -38.592  13.277  17.343  0.00  0.00     0.311 A 
ATOM      3  C   UNL d   1     -38.494  14.700  17.232  0.00  0.00     0.019 A 
ATOM      4  O   UNL d   1     -38.440  13.206  16.533  0.00  0.00    -0.273 OA
ATOM      5  C   UNL d   1     -38.343  14.635  16.429  0.00  0.00     0.024 A 
ATOM      6  C   UNL d   1     -38.316  13.880  16.076  0.00  0.00     0.103 A 
ATOM      7  O   UNL d   1     -38.718  12.597  17.804  0.00  0.00    -0.258 OA
ATOM      8  C   UNL d   1     -38.219  15.301  15.969  0.00  0.00     0.009 A 
ATOM      9  C   UNL d   1     -38.165  13.807  15.270  0.00  0.00     0.025 A 
ATOM     10  C   UNL d   1     -38.066  15.239  15.159  0.00  0.00     0.035 A 
ATOM     11  C   UNL d   1     -38.039  14.484  14.806  0.00  0.00     0.009 A 
ATOM     12 BR   UNL d   1     -37.940  15.922  14.694  0.00  0.00    -0.049 Br
ENDROOT
BRANCH   1  13
ATOM     13  S   UNL d   1     -38.772  14.094  18.505  0.00  0.00     0.215 S 
ATOM     14  O   UNL d   1     -39.586  14.124  18.359  0.00  0.00    -0.217 OA
ATOM     15  O   UNL d   1     -37.952  14.065  18.657  0.00  0.00    -0.217 OA
BRANCH  13  16
ATOM     16  C   UNL d   1     -38.915  14.156  19.318  0.00  0.00     0.088 A 
ATOM     17  C   UNL d   1     -38.358  13.873  19.864  0.00  0.00     0.011 A 
ATOM     18  C   UNL d   1     -38.502  13.935  20.673  0.00  0.00     0.001 A 
ATOM     19  C   UNL d   1     -39.201  14.279  20.946  0.00  0.00     0.000 A 
ATOM     20  C   UNL d   1     -39.756  14.562  20.403  0.00  0.00     0.001 A 
ATOM     21  C   UNL d   1     -39.613  14.500  19.595  0.00  0.00     0.011 A 
BRANCH  19  22
ATOM     22  C   UNL d   1     -39.342  14.340  21.762  0.00  0.00     0.000 C 
ATOM     23  C   UNL d   1     -39.296  13.676  22.234  0.00  0.00     0.000 C 
ATOM     24  C   UNL d   1     -39.529  15.073  22.091  0.00  0.00     0.000 C 
ENDBRANCH  19  22
ENDBRANCH  13  16
ENDBRANCH   1  13
TORSDOF 3
ENDMDL
MODEL 7
REMARK VINA RESULT:      -5.5      8.514      9.594
REMARK  3 active torsions:
REMARK  status: ('A' for Active; 'I' for Inactive)
REMARK    1  A    between atoms: S_2  and  C_1 
REMARK    2  A    between atoms: C_8  and  S_2 
REMARK    3  A    between atoms: C_20  and  C_13 
ROOT
ATOM      1  C   UNL d   1     -39.114  14.418  20.187  0.00  0.00     0.151 A 
ATOM      2  C   UNL d   1     -38.672  13.711  20.161  0.00  0.00     0.311 A 
ATOM      3  C   UNL d   1     -39.166  14.836  20.894  0.00  0.00     0.019 A 
ATOM      4  O   UNL d   1     -38.292  13.437  20.842  0.00  0.00    -0.273 OA
ATOM      5  C   UNL d   1     -38.791  14.569  21.571  0.00  0.00     0.024 A 
ATOM      6  C   UNL d   1     -38.349  13.862  21.546  0.00  0.00     0.103 A 
ATOM      7  O   UNL d   1     -38.614  13.282  19.451  0.00  0.00    -0.258 OA
ATOM      8  C   UNL d   1     -38.844  14.987  22.274  0.00  0.00     0.009 A 
ATOM      9  C   UNL d   1     -37.970  13.588  22.222  0.00  0.00     0.025 A 
ATOM     10  C   UNL d   1     -38.467  14.720  22.959  0.00  0.00     0.035 A 
ATOM     11  C   UNL d   1     -38.026  14.014  22.933  0.00  0.00     0.009 A 
ATOM     12 BR   UNL d   1     -38.525  15.151  23.674  0.00  0.00    -0.049 Br
ENDROOT
BRANCH   1  13
ATOM     13  S   UNL d   1     -39.490  14.684  19.502  0.00  0.00     0.215 S 
ATOM     14  O   UNL d   1     -40.194  14.316  19.734  0.00  0.00    -0.217 OA
ATOM     15  O   UNL d   1     -38.783  15.057  19.263  0.00  0.00    -0.217 OA
BRANCH  13  16
ATOM     16  C   UNL d   1     -39.860  14.955  18.813  0.00  0.00     0.088 A 
ATOM     17  C   UNL d   1     -39.787  14.529  18.103  0.00  0.00     0.011 A 
ATOM     18  C   UNL d   1     -40.155  14.801  17.418  0.00  0.00     0.001 A 
ATOM     19  C   UNL d   1     -40.599  15.496  17.431  0.00  0.00     0.000 A 
ATOM     20  C   UNL d   1     -40.672  15.921  18.137  0.00  0.00     0.001 A 
ATOM     21  C   UNL d   1     -40.304  15.650  18.822  0.00  0.00     0.011 A 
BRANCH  19  22
ATOM     22  C   UNL d   1     -40.969  15.766  16.738  0.00  0.00     0.000 C 
ATOM     23  C   UNL d   1     -41.776  15.885  16.728  0.00  0.00     0.000 C 
ATOM     24  C   UNL d   1     -40.517  15.913  16.064  0.00  0.00     0.000 C 
ENDBRANCH  19  22
ENDBRANCH  13  16
ENDBRANCH   1  13
TORSDOF 3
ENDMDL
