MODEL 1
REMARK VINA RESULT:      -3.3      0.000      0.000
REMARK  3 active torsions:
REMARK  status: ('A' for Active; 'I' for Inactive)
REMARK    1  A    between atoms: C_2  and  N_1 
REMARK    2  A    between atoms: O_14  and  C_5 
REMARK    3  A    between atoms: O_15  and  C_12 
ROOT
ATOM      1  C   UNL d   1     -41.706-122.839 -50.268  0.00  0.00     0.092 A 
ATOM      2  C   UNL d   1     -42.468-122.761 -49.981  0.00  0.00     0.112 A 
ATOM      3  C   UNL d   1     -42.657-123.052 -49.231  0.00  0.00     0.050 A 
ATOM      4  C   UNL d   1     -41.123-123.204 -49.820  0.00  0.00     0.022 A 
ATOM      5  C   UNL d   1     -42.072-123.419 -48.780  0.00  0.00     0.096 A 
ATOM      6  C   UNL d   1     -41.304-123.494 -49.077  0.00  0.00     0.026 A 
ENDROOT
BRANCH   1   7
ATOM      7  N   UNL d   1     -41.515-122.548 -51.021  0.00  0.00    -0.240 N 
ATOM      8  C   UNL d   1     -41.249-121.792 -51.204  0.00  0.00     0.267 A 
ATOM      9  C   UNL d   1     -41.130-121.745 -52.010  0.00  0.00     0.066 A 
ATOM     10  O   UNL d   1     -41.123-121.181 -50.659  0.00  0.00    -0.267 OA
ATOM     11  C   UNL d   1     -41.323-122.481 -52.343  0.00  0.00     0.066 A 
ATOM     12  C   UNL d   1     -41.562-122.978 -51.730  0.00  0.00     0.267 A 
ATOM     13  O   UNL d   1     -41.820-123.816 -51.818  0.00  0.00    -0.267 OA
ENDBRANCH   1   7
BRANCH   2  14
ATOM     14  O   UNL d   1     -43.057-122.393 -50.434  0.00  0.00    -0.327 OA
ATOM     15  C   UNL d   1     -43.831-122.341 -50.149  0.00  0.00     0.181 C 
ENDBRANCH   2  14
BRANCH   5  16
ATOM     16  O   UNL d   1     -42.256-123.714 -48.024  0.00  0.00    -0.328 OA
ATOM     17  C   UNL d   1     -41.699-123.677 -47.413  0.00  0.00     0.181 C 
ENDBRANCH   5  16
TORSDOF 3
ENDMDL
MODEL 2
REMARK VINA RESULT:      -2.4      1.099      3.337
REMARK  3 active torsions:
REMARK  status: ('A' for Active; 'I' for Inactive)
REMARK    1  A    between atoms: C_2  and  N_1 
REMARK    2  A    between atoms: O_14  and  C_5 
REMARK    3  A    between atoms: O_15  and  C_12 
ROOT
ATOM      1  C   UNL d   1     -41.951-122.981 -51.366  0.00  0.00     0.092 A 
ATOM      2  C   UNL d   1     -41.553-122.339 -51.678  0.00  0.00     0.112 A 
ATOM      3  C   UNL d   1     -41.274-122.366 -52.455  0.00  0.00     0.050 A 
ATOM      4  C   UNL d   1     -42.079-123.656 -51.814  0.00  0.00     0.022 A 
ATOM      5  C   UNL d   1     -41.402-123.044 -52.907  0.00  0.00     0.096 A 
ATOM      6  C   UNL d   1     -41.805-123.689 -52.585  0.00  0.00     0.026 A 
ENDROOT
BRANCH   1   7
ATOM      7  N   UNL d   1     -42.232-122.955 -50.585  0.00  0.00    -0.240 N 
ATOM      8  C   UNL d   1     -42.910-122.577 -50.317  0.00  0.00     0.267 A 
ATOM      9  C   UNL d   1     -42.974-122.693 -49.512  0.00  0.00     0.066 A 
ATOM     10  O   UNL d   1     -43.440-122.148 -50.789  0.00  0.00    -0.267 OA
ATOM     11  C   UNL d   1     -42.327-123.151 -49.265  0.00  0.00     0.066 A 
ATOM     12  C   UNL d   1     -41.868-123.314 -49.930  0.00  0.00     0.267 A 
ATOM     13  O   UNL d   1     -41.123-123.785 -49.938  0.00  0.00    -0.267 OA
ENDBRANCH   1   7
BRANCH   2  14
ATOM     14  O   UNL d   1     -41.424-121.657 -51.224  0.00  0.00    -0.327 OA
ATOM     15  C   UNL d   1     -41.123-120.972 -51.575  0.00  0.00     0.181 C 
ENDBRANCH   2  14
BRANCH   5  16
ATOM     16  O   UNL d   1     -41.124-123.077 -53.691  0.00  0.00    -0.328 OA
ATOM     17  C   UNL d   1     -41.510-123.545 -54.253  0.00  0.00     0.181 C 
ENDBRANCH   5  16
TORSDOF 3
ENDMDL
MODEL 3
REMARK VINA RESULT:      -1.3      2.139      3.427
REMARK  3 active torsions:
REMARK  status: ('A' for Active; 'I' for Inactive)
REMARK    1  A    between atoms: C_2  and  N_1 
REMARK    2  A    between atoms: O_14  and  C_5 
REMARK    3  A    between atoms: O_15  and  C_12 
ROOT
ATOM      1  C   UNL d   1     -41.848-122.781 -53.376  0.00  0.00     0.092 A 
ATOM      2  C   UNL d   1     -41.455-122.279 -52.864  0.00  0.00     0.112 A 
ATOM      3  C   UNL d   1     -41.243-122.544 -52.111  0.00  0.00     0.050 A 
ATOM      4  C   UNL d   1     -42.036-123.548 -53.154  0.00  0.00     0.022 A 
ATOM      5  C   UNL d   1     -41.431-123.315 -51.886  0.00  0.00     0.096 A 
ATOM      6  C   UNL d   1     -41.828-123.816 -52.409  0.00  0.00     0.026 A 
ENDROOT
BRANCH   1   7
ATOM      7  N   UNL d   1     -42.062-122.515 -54.133  0.00  0.00    -0.240 N 
ATOM      8  C   UNL d   1     -41.734-122.750 -54.849  0.00  0.00     0.267 A 
ATOM      9  C   UNL d   1     -42.110-122.351 -55.453  0.00  0.00     0.066 A 
ATOM     10  O   UNL d   1     -41.123-123.303 -54.940  0.00  0.00    -0.267 OA
ATOM     11  C   UNL d   1     -42.684-121.855 -55.116  0.00  0.00     0.066 A 
ATOM     12  C   UNL d   1     -42.654-121.957 -54.299  0.00  0.00     0.267 A 
ATOM     13  O   UNL d   1     -43.164-121.543 -53.709  0.00  0.00    -0.267 OA
ENDBRANCH   1   7
BRANCH   2  14
ATOM     14  O   UNL d   1     -41.266-121.504 -53.090  0.00  0.00    -0.327 OA
ATOM     15  C   UNL d   1     -41.123-120.925 -52.517  0.00  0.00     0.181 C 
ENDBRANCH   2  14
BRANCH   5  16
ATOM     16  O   UNL d   1     -41.220-123.588 -51.128  0.00  0.00    -0.328 OA
ATOM     17  C   UNL d   1     -41.788-123.641 -50.529  0.00  0.00     0.181 C 
ENDBRANCH   5  16
TORSDOF 3
ENDMDL
