MODEL 1
REMARK VINA RESULT:      -6.1      0.000      0.000
REMARK  7 active torsions:
REMARK  status: ('A' for Active; 'I' for Inactive)
REMARK    1  A    between atoms: C_2  and  N_1 
REMARK    2  A    between atoms: C_4  and  O_6 
REMARK    3  A    between atoms: C_11  and  C_4 
REMARK    4  A    between atoms: O_6  and  C_12 
REMARK    5  A    between atoms: O_10  and  C_11 
REMARK    6  A    between atoms: C_13  and  O_10 
REMARK    7  A    between atoms: C_21  and  C_16 
ROOT
ATOM      1  C   UNL d   1     -47.158  11.842  23.577  0.00  0.00     0.325 C 
ATOM      2  O   UNL d   1     -46.950  11.040  23.514  0.00  0.00    -0.256 OA
ENDROOT
BRANCH   1   3
ATOM      3  O   UNL d   1     -46.575  12.417  23.687  0.00  0.00    -0.272 OA
BRANCH   3   4
ATOM      4  C   UNL d   1     -45.925  12.447  23.180  0.00  0.00     0.103 A 
ATOM      5  C   UNL d   1     -45.409  11.809  23.132  0.00  0.00     0.026 A 
ATOM      6  C   UNL d   1     -44.750  11.856  22.609  0.00  0.00     0.026 A 
ATOM      7  C   UNL d   1     -44.615  12.523  22.150  0.00  0.00     0.127 A 
ATOM      8  C   UNL d   1     -45.151  13.181  22.202  0.00  0.00     0.026 A 
ATOM      9  C   UNL d   1     -45.801  13.120  22.727  0.00  0.00     0.026 A 
BRANCH   7  10
ATOM     10  N   UNL d   1     -43.966  12.553  21.644  0.00  0.00    -0.114 N 
ATOM     11  O   UNL d   1     -44.022  12.654  20.822  0.00  0.00    -0.532 OA
ATOM     12  O   UNL d   1     -43.188  12.489  21.881  0.00  0.00    -0.532 OA
ENDBRANCH   7  10
ENDBRANCH   3   4
ENDBRANCH   1   3
BRANCH   1  13
ATOM     13  C   UNL d   1     -47.951  12.064  23.529  0.00  0.00     0.191 C 
BRANCH  13  14
ATOM     14  O   UNL d   1     -48.455  11.681  22.997  0.00  0.00    -0.300 OA
BRANCH  14  15
ATOM     15  C   UNL d   1     -49.119  12.100  22.663  0.00  0.00     0.100 A 
ATOM     16  C   UNL d   1     -49.702  12.409  23.154  0.00  0.00     0.025 A 
ATOM     17  C   UNL d   1     -50.344  12.813  22.831  0.00  0.00     0.002 A 
ATOM     18  C   UNL d   1     -50.404  12.909  22.017  0.00  0.00     0.000 A 
ATOM     19  C   UNL d   1     -49.820  12.600  21.521  0.00  0.00     0.002 A 
ATOM     20  C   UNL d   1     -49.177  12.195  21.844  0.00  0.00     0.025 A 
BRANCH  18  21
ATOM     21  C   UNL d   1     -51.064  13.325  21.684  0.00  0.00     0.000 C 
ATOM     22  C   UNL d   1     -50.968  14.099  21.410  0.00  0.00     0.000 C 
ENDBRANCH  18  21
ENDBRANCH  14  15
ENDBRANCH  13  14
ENDBRANCH   1  13
TORSDOF 7
ENDMDL
MODEL 2
REMARK VINA RESULT:      -6.0      8.293      9.576
REMARK  7 active torsions:
REMARK  status: ('A' for Active; 'I' for Inactive)
REMARK    1  A    between atoms: C_2  and  N_1 
REMARK    2  A    between atoms: C_4  and  O_6 
REMARK    3  A    between atoms: C_11  and  C_4 
REMARK    4  A    between atoms: O_6  and  C_12 
REMARK    5  A    between atoms: O_10  and  C_11 
REMARK    6  A    between atoms: C_13  and  O_10 
REMARK    7  A    between atoms: C_21  and  C_16 
ROOT
ATOM      1  C   UNL d   1     -40.312  14.513  19.089  0.00  0.00     0.325 C 
ATOM      2  O   UNL d   1     -40.796  15.176  18.955  0.00  0.00    -0.256 OA
ENDROOT
BRANCH   1   3
ATOM      3  O   UNL d   1     -40.273  13.906  18.531  0.00  0.00    -0.272 OA
BRANCH   3   4
ATOM      4  C   UNL d   1     -39.786  13.986  17.869  0.00  0.00     0.103 A 
ATOM      5  C   UNL d   1     -39.949  14.560  17.304  0.00  0.00     0.026 A 
ATOM      6  C   UNL d   1     -39.443  14.628  16.634  0.00  0.00     0.026 A 
ATOM      7  C   UNL d   1     -38.793  14.135  16.537  0.00  0.00     0.127 A 
ATOM      8  C   UNL d   1     -38.628  13.542  17.123  0.00  0.00     0.026 A 
ATOM      9  C   UNL d   1     -39.141  13.487  17.783  0.00  0.00     0.026 A 
BRANCH   7  10
ATOM     10  N   UNL d   1     -38.307  14.215  15.876  0.00  0.00    -0.114 N 
ATOM     11  O   UNL d   1     -38.102  14.943  15.535  0.00  0.00    -0.532 OA
ATOM     12  O   UNL d   1     -37.966  13.593  15.473  0.00  0.00    -0.532 OA
ENDBRANCH   7  10
ENDBRANCH   3   4
ENDBRANCH   1   3
BRANCH   1  13
ATOM     13  C   UNL d   1     -39.871  14.463  19.784  0.00  0.00     0.191 C 
BRANCH  13  14
ATOM     14  O   UNL d   1     -40.247  14.517  20.517  0.00  0.00    -0.300 OA
BRANCH  14  15
ATOM     15  C   UNL d   1     -39.793  14.450  21.236  0.00  0.00     0.100 A 
ATOM     16  C   UNL d   1     -39.485  15.122  21.595  0.00  0.00     0.025 A 
ATOM     17  C   UNL d   1     -39.045  15.057  22.290  0.00  0.00     0.002 A 
ATOM     18  C   UNL d   1     -38.914  14.319  22.626  0.00  0.00     0.000 A 
ATOM     19  C   UNL d   1     -39.222  13.641  22.268  0.00  0.00     0.002 A 
ATOM     20  C   UNL d   1     -39.661  13.706  21.573  0.00  0.00     0.025 A 
BRANCH  18  21
ATOM     21  C   UNL d   1     -38.462  14.252  23.340  0.00  0.00     0.000 C 
ATOM     22  C   UNL d   1     -38.357  13.512  23.695  0.00  0.00     0.000 C 
ENDBRANCH  18  21
ENDBRANCH  14  15
ENDBRANCH  13  14
ENDBRANCH   1  13
TORSDOF 7
ENDMDL
MODEL 3
REMARK VINA RESULT:      -5.9      2.693      5.284
REMARK  7 active torsions:
REMARK  status: ('A' for Active; 'I' for Inactive)
REMARK    1  A    between atoms: C_2  and  N_1 
REMARK    2  A    between atoms: C_4  and  O_6 
REMARK    3  A    between atoms: C_11  and  C_4 
REMARK    4  A    between atoms: O_6  and  C_12 
REMARK    5  A    between atoms: O_10  and  C_11 
REMARK    6  A    between atoms: C_13  and  O_10 
REMARK    7  A    between atoms: C_21  and  C_16 
ROOT
ATOM      1  C   UNL d   1     -47.245  13.479  22.575  0.00  0.00     0.325 C 
ATOM      2  O   UNL d   1     -47.631  13.204  21.892  0.00  0.00    -0.256 OA
ENDROOT
BRANCH   1   3
ATOM      3  O   UNL d   1     -47.384  14.244  22.854  0.00  0.00    -0.272 OA
BRANCH   3   4
ATOM      4  C   UNL d   1     -48.154  14.538  22.883  0.00  0.00     0.103 A 
ATOM      5  C   UNL d   1     -48.666  14.297  23.479  0.00  0.00     0.026 A 
ATOM      6  C   UNL d   1     -49.449  14.607  23.493  0.00  0.00     0.026 A 
ATOM      7  C   UNL d   1     -49.708  15.142  22.926  0.00  0.00     0.127 A 
ATOM      8  C   UNL d   1     -49.176  15.389  22.312  0.00  0.00     0.026 A 
ATOM      9  C   UNL d   1     -48.401  15.072  22.311  0.00  0.00     0.026 A 
BRANCH   7  10
ATOM     10  N   UNL d   1     -50.478  15.435  22.955  0.00  0.00    -0.114 N 
ATOM     11  O   UNL d   1     -50.841  15.721  23.644  0.00  0.00    -0.532 OA
ATOM     12  O   UNL d   1     -50.981  15.484  22.314  0.00  0.00    -0.532 OA
ENDBRANCH   7  10
ENDBRANCH   3   4
ENDBRANCH   1   3
BRANCH   1  13
ATOM     13  C   UNL d   1     -46.721  12.983  22.976  0.00  0.00     0.191 C 
BRANCH  13  14
ATOM     14  O   UNL d   1     -46.023  12.737  22.608  0.00  0.00    -0.300 OA
BRANCH  14  15
ATOM     15  C   UNL d   1     -45.619  12.038  22.884  0.00  0.00     0.100 A 
ATOM     16  C   UNL d   1     -46.035  11.450  23.281  0.00  0.00     0.025 A 
ATOM     17  C   UNL d   1     -45.645  10.775  23.548  0.00  0.00     0.002 A 
ATOM     18  C   UNL d   1     -44.838  10.686  23.419  0.00  0.00     0.000 A 
ATOM     19  C   UNL d   1     -44.417  11.275  23.021  0.00  0.00     0.002 A 
ATOM     20  C   UNL d   1     -44.808  11.951  22.753  0.00  0.00     0.025 A 
BRANCH  18  21
ATOM     21  C   UNL d   1     -44.437   9.992  23.694  0.00  0.00     0.000 C 
ATOM     22  C   UNL d   1     -43.611   9.964  23.692  0.00  0.00     0.000 C 
ENDBRANCH  18  21
ENDBRANCH  14  15
ENDBRANCH  13  14
ENDBRANCH   1  13
TORSDOF 7
ENDMDL
MODEL 4
REMARK VINA RESULT:      -5.8      7.876      9.642
REMARK  7 active torsions:
REMARK  status: ('A' for Active; 'I' for Inactive)
REMARK    1  A    between atoms: C_2  and  N_1 
REMARK    2  A    between atoms: C_4  and  O_6 
REMARK    3  A    between atoms: C_11  and  C_4 
REMARK    4  A    between atoms: O_6  and  C_12 
REMARK    5  A    between atoms: O_10  and  C_11 
REMARK    6  A    between atoms: C_13  and  O_10 
REMARK    7  A    between atoms: C_21  and  C_16 
ROOT
ATOM      1  C   UNL d   1     -40.278  14.411  19.492  0.00  0.00     0.325 C 
ATOM      2  O   UNL d   1     -40.989  13.980  19.480  0.00  0.00    -0.256 OA
ENDROOT
BRANCH   1   3
ATOM      3  O   UNL d   1     -40.095  14.897  20.135  0.00  0.00    -0.272 OA
BRANCH   3   4
ATOM      4  C   UNL d   1     -39.755  14.572  20.812  0.00  0.00     0.103 A 
ATOM      5  C   UNL d   1     -40.188  14.058  21.286  0.00  0.00     0.026 A 
ATOM      6  C   UNL d   1     -39.825  13.735  21.974  0.00  0.00     0.026 A 
ATOM      7  C   UNL d   1     -39.052  13.922  22.179  0.00  0.00     0.127 A 
ATOM      8  C   UNL d   1     -38.607  14.453  21.686  0.00  0.00     0.026 A 
ATOM      9  C   UNL d   1     -38.981  14.766  21.005  0.00  0.00     0.026 A 
BRANCH   7  10
ATOM     10  N   UNL d   1     -38.712  13.597  22.855  0.00  0.00    -0.114 N 
ATOM     11  O   UNL d   1     -38.692  13.976  23.593  0.00  0.00    -0.532 OA
ATOM     12  O   UNL d   1     -38.353  12.865  22.889  0.00  0.00    -0.532 OA
ENDBRANCH   7  10
ENDBRANCH   3   4
ENDBRANCH   1   3
BRANCH   1  13
ATOM     13  C   UNL d   1     -39.754  14.353  18.857  0.00  0.00     0.191 C 
BRANCH  13  14
ATOM     14  O   UNL d   1     -40.025  14.095  18.120  0.00  0.00    -0.300 OA
BRANCH  14  15
ATOM     15  C   UNL d   1     -39.494  14.081  17.453  0.00  0.00     0.100 A 
ATOM     16  C   UNL d   1     -39.518  14.683  16.893  0.00  0.00     0.025 A 
ATOM     17  C   UNL d   1     -39.004  14.668  16.247  0.00  0.00     0.002 A 
ATOM     18  C   UNL d   1     -38.468  14.052  16.161  0.00  0.00     0.000 A 
ATOM     19  C   UNL d   1     -38.442  13.446  16.722  0.00  0.00     0.002 A 
ATOM     20  C   UNL d   1     -38.955  13.460  17.367  0.00  0.00     0.025 A 
BRANCH  18  21
ATOM     21  C   UNL d   1     -37.940  14.037  15.497  0.00  0.00     0.000 C 
ATOM     22  C   UNL d   1     -38.120  13.574  14.837  0.00  0.00     0.000 C 
ENDBRANCH  18  21
ENDBRANCH  14  15
ENDBRANCH  13  14
ENDBRANCH   1  13
TORSDOF 7
ENDMDL
MODEL 5
REMARK VINA RESULT:      -5.7      2.349      5.279
REMARK  7 active torsions:
REMARK  status: ('A' for Active; 'I' for Inactive)
REMARK    1  A    between atoms: C_2  and  N_1 
REMARK    2  A    between atoms: C_4  and  O_6 
REMARK    3  A    between atoms: C_11  and  C_4 
REMARK    4  A    between atoms: O_6  and  C_12 
REMARK    5  A    between atoms: O_10  and  C_11 
REMARK    6  A    between atoms: C_13  and  O_10 
REMARK    7  A    between atoms: C_21  and  C_16 
ROOT
ATOM      1  C   UNL d   1     -47.186  13.059  23.150  0.00  0.00     0.325 C 
ATOM      2  O   UNL d   1     -47.518  12.333  23.380  0.00  0.00    -0.256 OA
ENDROOT
BRANCH   1   3
ATOM      3  O   UNL d   1     -47.555  13.770  23.353  0.00  0.00    -0.272 OA
BRANCH   3   4
ATOM      4  C   UNL d   1     -48.288  13.961  23.025  0.00  0.00     0.103 A 
ATOM      5  C   UNL d   1     -48.940  13.479  23.162  0.00  0.00     0.026 A 
ATOM      6  C   UNL d   1     -49.681  13.689  22.820  0.00  0.00     0.026 A 
ATOM      7  C   UNL d   1     -49.762  14.361  22.355  0.00  0.00     0.127 A 
ATOM      8  C   UNL d   1     -49.086  14.857  22.216  0.00  0.00     0.026 A 
ATOM      9  C   UNL d   1     -48.357  14.636  22.563  0.00  0.00     0.026 A 
BRANCH   7  10
ATOM     10  N   UNL d   1     -50.494  14.552  22.028  0.00  0.00    -0.114 N 
ATOM     11  O   UNL d   1     -50.917  15.243  22.207  0.00  0.00    -0.532 OA
ATOM     12  O   UNL d   1     -50.896  14.091  21.488  0.00  0.00    -0.532 OA
ENDBRANCH   7  10
ENDBRANCH   3   4
ENDBRANCH   1   3
BRANCH   1  13
ATOM     13  C   UNL d   1     -46.484  13.070  22.717  0.00  0.00     0.191 C 
BRANCH  13  14
ATOM     14  O   UNL d   1     -45.836  12.624  22.971  0.00  0.00    -0.300 OA
BRANCH  14  15
ATOM     15  C   UNL d   1     -45.112  12.630  22.520  0.00  0.00     0.100 A 
ATOM     16  C   UNL d   1     -44.976  13.222  21.965  0.00  0.00     0.025 A 
ATOM     17  C   UNL d   1     -44.275  13.228  21.530  0.00  0.00     0.002 A 
ATOM     18  C   UNL d   1     -43.710  12.644  21.649  0.00  0.00     0.000 A 
ATOM     19  C   UNL d   1     -43.844  12.048  22.206  0.00  0.00     0.002 A 
ATOM     20  C   UNL d   1     -44.544  12.042  22.641  0.00  0.00     0.025 A 
BRANCH  18  21
ATOM     21  C   UNL d   1     -42.990  12.650  21.201  0.00  0.00     0.000 C 
ATOM     22  C   UNL d   1     -42.459  13.279  21.283  0.00  0.00     0.000 C 
ENDBRANCH  18  21
ENDBRANCH  14  15
ENDBRANCH  13  14
ENDBRANCH   1  13
TORSDOF 7
ENDMDL
MODEL 6
REMARK VINA RESULT:      -4.9      3.011      4.720
REMARK  7 active torsions:
REMARK  status: ('A' for Active; 'I' for Inactive)
REMARK    1  A    between atoms: C_2  and  N_1 
REMARK    2  A    between atoms: C_4  and  O_6 
REMARK    3  A    between atoms: C_11  and  C_4 
REMARK    4  A    between atoms: O_6  and  C_12 
REMARK    5  A    between atoms: O_10  and  C_11 
REMARK    6  A    between atoms: C_13  and  O_10 
REMARK    7  A    between atoms: C_21  and  C_16 
ROOT
ATOM      1  C   UNL d   1     -42.936  13.098  21.185  0.00  0.00     0.325 C 
ATOM      2  O   UNL d   1     -42.887  12.641  20.492  0.00  0.00    -0.256 OA
ENDROOT
BRANCH   1   3
ATOM      3  O   UNL d   1     -42.251  13.400  21.535  0.00  0.00    -0.272 OA
BRANCH   3   4
ATOM      4  C   UNL d   1     -41.770  13.922  21.115  0.00  0.00     0.103 A 
ATOM      5  C   UNL d   1     -41.183  13.633  20.617  0.00  0.00     0.026 A 
ATOM      6  C   UNL d   1     -40.701  14.180  20.196  0.00  0.00     0.026 A 
ATOM      7  C   UNL d   1     -40.805  14.991  20.273  0.00  0.00     0.127 A 
ATOM      8  C   UNL d   1     -41.413  15.286  20.789  0.00  0.00     0.026 A 
ATOM      9  C   UNL d   1     -41.885  14.730  21.201  0.00  0.00     0.026 A 
BRANCH   7  10
ATOM     10  N   UNL d   1     -40.325  15.513  19.854  0.00  0.00    -0.114 N 
ATOM     11  O   UNL d   1     -39.678  15.915  20.182  0.00  0.00    -0.532 OA
ATOM     12  O   UNL d   1     -40.420  15.702  19.065  0.00  0.00    -0.532 OA
ENDBRANCH   7  10
ENDBRANCH   3   4
ENDBRANCH   1   3
BRANCH   1  13
ATOM     13  C   UNL d   1     -43.673  13.250  21.523  0.00  0.00     0.191 C 
BRANCH  13  14
ATOM     14  O   UNL d   1     -44.130  12.626  21.814  0.00  0.00    -0.300 OA
BRANCH  14  15
ATOM     15  C   UNL d   1     -44.881  12.785  22.185  0.00  0.00     0.100 A 
ATOM     16  C   UNL d   1     -45.257  13.507  22.065  0.00  0.00     0.025 A 
ATOM     17  C   UNL d   1     -45.984  13.661  22.423  0.00  0.00     0.002 A 
ATOM     18  C   UNL d   1     -46.335  13.094  22.903  0.00  0.00     0.000 A 
ATOM     19  C   UNL d   1     -45.960  12.368  23.027  0.00  0.00     0.002 A 
ATOM     20  C   UNL d   1     -45.233  12.214  22.668  0.00  0.00     0.025 A 
BRANCH  18  21
ATOM     21  C   UNL d   1     -47.082  13.252  23.272  0.00  0.00     0.000 C 
ATOM     22  C   UNL d   1     -47.666  13.667  22.860  0.00  0.00     0.000 C 
ENDBRANCH  18  21
ENDBRANCH  14  15
ENDBRANCH  13  14
ENDBRANCH   1  13
TORSDOF 7
ENDMDL
MODEL 7
REMARK VINA RESULT:      -4.7      2.747      6.118
REMARK  7 active torsions:
REMARK  status: ('A' for Active; 'I' for Inactive)
REMARK    1  A    between atoms: C_2  and  N_1 
REMARK    2  A    between atoms: C_4  and  O_6 
REMARK    3  A    between atoms: C_11  and  C_4 
REMARK    4  A    between atoms: O_6  and  C_12 
REMARK    5  A    between atoms: O_10  and  C_11 
REMARK    6  A    between atoms: C_13  and  O_10 
REMARK    7  A    between atoms: C_21  and  C_16 
ROOT
ATOM      1  C   UNL d   1     -44.679  12.917  21.841  0.00  0.00     0.325 C 
ATOM      2  O   UNL d   1     -45.037  12.548  21.188  0.00  0.00    -0.256 OA
ENDROOT
BRANCH   1   3
ATOM      3  O   UNL d   1     -45.049  12.910  22.579  0.00  0.00    -0.272 OA
BRANCH   3   4
ATOM      4  C   UNL d   1     -45.802  13.236  22.666  0.00  0.00     0.103 A 
ATOM      5  C   UNL d   1     -45.904  14.051  22.640  0.00  0.00     0.026 A 
ATOM      6  C   UNL d   1     -46.680  14.367  22.730  0.00  0.00     0.026 A 
ATOM      7  C   UNL d   1     -47.331  13.879  22.841  0.00  0.00     0.127 A 
ATOM      8  C   UNL d   1     -47.221  13.036  22.867  0.00  0.00     0.026 A 
ATOM      9  C   UNL d   1     -46.444  12.737  22.777  0.00  0.00     0.026 A 
BRANCH   7  10
ATOM     10  N   UNL d   1     -48.083  14.204  22.928  0.00  0.00    -0.114 N 
ATOM     11  O   UNL d   1     -48.300  14.954  22.647  0.00  0.00    -0.532 OA
ATOM     12  O   UNL d   1     -48.710  13.835  23.297  0.00  0.00    -0.532 OA
ENDBRANCH   7  10
ENDBRANCH   3   4
ENDBRANCH   1   3
BRANCH   1  13
ATOM     13  C   UNL d   1     -43.949  13.291  21.749  0.00  0.00     0.191 C 
BRANCH  13  14
ATOM     14  O   UNL d   1     -43.339  12.912  21.341  0.00  0.00    -0.300 OA
BRANCH  14  15
ATOM     15  C   UNL d   1     -42.588  13.304  21.237  0.00  0.00     0.100 A 
ATOM     16  C   UNL d   1     -42.539  13.990  20.786  0.00  0.00     0.025 A 
ATOM     17  C   UNL d   1     -41.813  14.369  20.686  0.00  0.00     0.002 A 
ATOM     18  C   UNL d   1     -41.136  14.062  21.036  0.00  0.00     0.000 A 
ATOM     19  C   UNL d   1     -41.182  13.373  21.489  0.00  0.00     0.002 A 
ATOM     20  C   UNL d   1     -41.908  12.994  21.589  0.00  0.00     0.025 A 
BRANCH  18  21
ATOM     21  C   UNL d   1     -40.390  14.451  20.932  0.00  0.00     0.000 C 
ATOM     22  C   UNL d   1     -40.324  15.262  21.077  0.00  0.00     0.000 C 
ENDBRANCH  18  21
ENDBRANCH  14  15
ENDBRANCH  13  14
ENDBRANCH   1  13
TORSDOF 7
ENDMDL
MODEL 8
REMARK VINA RESULT:      -3.3      6.072      9.409
REMARK  7 active torsions:
REMARK  status: ('A' for Active; 'I' for Inactive)
REMARK    1  A    between atoms: C_2  and  N_1 
REMARK    2  A    between atoms: C_4  and  O_6 
REMARK    3  A    between atoms: C_11  and  C_4 
REMARK    4  A    between atoms: O_6  and  C_12 
REMARK    5  A    between atoms: O_10  and  C_11 
REMARK    6  A    between atoms: C_13  and  O_10 
REMARK    7  A    between atoms: C_21  and  C_16 
ROOT
ATOM      1  C   UNL d   1     -39.488  14.664  20.250  0.00  0.00     0.325 C 
ATOM      2  O   UNL d   1     -38.917  14.377  20.782  0.00  0.00    -0.256 OA
ENDROOT
BRANCH   1   3
ATOM      3  O   UNL d   1     -40.203  14.970  20.529  0.00  0.00    -0.272 OA
BRANCH   3   4
ATOM      4  C   UNL d   1     -40.818  14.459  20.730  0.00  0.00     0.103 A 
ATOM      5  C   UNL d   1     -41.585  14.616  20.477  0.00  0.00     0.026 A 
ATOM      6  C   UNL d   1     -42.201  14.084  20.691  0.00  0.00     0.026 A 
ATOM      7  C   UNL d   1     -42.052  13.416  21.145  0.00  0.00     0.127 A 
ATOM      8  C   UNL d   1     -41.259  13.257  21.405  0.00  0.00     0.026 A 
ATOM      9  C   UNL d   1     -40.656  13.795  21.184  0.00  0.00     0.026 A 
BRANCH   7  10
ATOM     10  N   UNL d   1     -42.667  12.905  21.346  0.00  0.00    -0.114 N 
ATOM     11  O   UNL d   1     -42.775  12.583  22.102  0.00  0.00    -0.532 OA
ATOM     12  O   UNL d   1     -43.247  12.651  20.831  0.00  0.00    -0.532 OA
ENDBRANCH   7  10
ENDBRANCH   3   4
ENDBRANCH   1   3
BRANCH   1  13
ATOM     13  C   UNL d   1     -39.338  14.643  19.439  0.00  0.00     0.191 C 
BRANCH  13  14
ATOM     14  O   UNL d   1     -38.560  14.677  19.162  0.00  0.00    -0.300 OA
BRANCH  14  15
ATOM     15  C   UNL d   1     -38.402  14.614  18.326  0.00  0.00     0.100 A 
ATOM     16  C   UNL d   1     -38.266  15.291  17.879  0.00  0.00     0.025 A 
ATOM     17  C   UNL d   1     -38.113  15.230  17.071  0.00  0.00     0.002 A 
ATOM     18  C   UNL d   1     -38.097  14.492  16.709  0.00  0.00     0.000 A 
ATOM     19  C   UNL d   1     -38.233  13.810  17.155  0.00  0.00     0.002 A 
ATOM     20  C   UNL d   1     -38.386  13.871  17.964  0.00  0.00     0.025 A 
BRANCH  18  21
ATOM     21  C   UNL d   1     -37.940  14.429  15.878  0.00  0.00     0.000 C 
ATOM     22  C   UNL d   1     -38.320  13.848  15.429  0.00  0.00     0.000 C 
ENDBRANCH  18  21
ENDBRANCH  14  15
ENDBRANCH  13  14
ENDBRANCH   1  13
TORSDOF 7
ENDMDL
