MODEL 1
REMARK VINA RESULT:      -5.5      0.000      0.000
REMARK  8 active torsions:
REMARK  status: ('A' for Active; 'I' for Inactive)
REMARK    1  A    between atoms: C_16  and  N_1 
REMARK    2  A    between atoms: S_7  and  C_2 
REMARK       I    between atoms: C_6  and  N_12 
REMARK    3  A    between atoms: C_9  and  C_6 
REMARK    4  A    between atoms: C_13  and  S_7 
REMARK    5  A    between atoms: C_8  and  C_13 
REMARK    6  A    between atoms: N_12  and  C_22 
REMARK    7  A    between atoms: C_22  and  C_16 
REMARK    8  A    between atoms: O_24  and  C_18 
ROOT
ATOM      1  N   UNL d   1     -48.603  12.717  23.168  0.00  0.00    -0.302 N 
ATOM      2  C   UNL d   1     -49.678  13.504  23.302  0.00  0.00     0.049 A 
ATOM      3  C   UNL d   1     -48.867  13.506  23.142  0.00  0.00     0.087 A 
ATOM      4  C   UNL d   1     -49.922  12.718  23.427  0.00  0.00     0.024 A 
ATOM      5  C   UNL d   1     -49.250  12.231  23.343  0.00  0.00     0.065 A 
ATOM      6  C   UNL d   1     -50.648  12.376  23.604  0.00  0.00     0.002 A 
ATOM      7  C   UNL d   1     -49.320  11.408  23.438  0.00  0.00     0.018 A 
ATOM      8  C   UNL d   1     -50.719  11.566  23.698  0.00  0.00     0.000 A 
ATOM      9  C   UNL d   1     -50.048  11.079  23.614  0.00  0.00     0.002 A 
ENDROOT
BRANCH   1  10
ATOM     10  C   UNL d   1     -47.828  12.465  23.041  0.00  0.00     0.101 C 
BRANCH  10  11
ATOM     11  C   UNL d   1     -47.217  13.016  22.979  0.00  0.00     0.121 C 
BRANCH  11  12
ATOM     12  N   UNL d   1     -46.506  12.809  22.616  0.00  0.00    -0.205 NA
ATOM     13  C   UNL d   1     -45.835  13.270  22.731  0.00  0.00     0.279 C 
ATOM     14  O   UNL d   1     -45.868  13.941  23.211  0.00  0.00    -0.265 OA
BRANCH  13  15
ATOM     15  C   UNL d   1     -45.124  13.063  22.368  0.00  0.00     0.058 A 
ATOM     16  C   UNL d   1     -44.880  13.460  21.672  0.00  0.00     0.007 A 
ATOM     17  C   UNL d   1     -44.169  13.254  21.308  0.00  0.00     0.024 A 
ATOM     18  C   UNL d   1     -43.705  12.652  21.641  0.00  0.00     0.094 A 
ATOM     19  C   UNL d   1     -43.948  12.262  22.326  0.00  0.00     0.024 A 
ATOM     20  C   UNL d   1     -44.652  12.469  22.683  0.00  0.00     0.007 A 
BRANCH  18  21
ATOM     21  O   UNL d   1     -42.981  12.433  21.280  0.00  0.00    -0.328 OA
ATOM     22  C   UNL d   1     -42.374  12.985  21.157  0.00  0.00     0.181 C 
ENDBRANCH  18  21
ENDBRANCH  13  15
ENDBRANCH  11  12
ENDBRANCH  10  11
ENDBRANCH   1  10
BRANCH   2  23
ATOM     23  S   UNL d   1     -50.171  14.166  23.333  0.00  0.00    -0.080 SA
BRANCH  23  24
ATOM     24  C   UNL d   1     -49.845  14.918  23.450  0.00  0.00     0.100 C 
BRANCH  24  25
ATOM     25  C   UNL d   1     -50.202  15.583  23.122  0.00  0.00     0.303 C 
ATOM     26  O   UNL d   1     -49.897  15.910  22.430  0.00  0.00    -0.263 OA
ATOM     27  N   UNL d   1     -50.861  15.921  23.484  0.00  0.00    -0.102 N 
ENDBRANCH  24  25
ENDBRANCH  23  24
ENDBRANCH   2  23
TORSDOF 8
ENDMDL
MODEL 2
REMARK VINA RESULT:      -4.9      3.976      8.193
REMARK  8 active torsions:
REMARK  status: ('A' for Active; 'I' for Inactive)
REMARK    1  A    between atoms: C_16  and  N_1 
REMARK    2  A    between atoms: S_7  and  C_2 
REMARK       I    between atoms: C_6  and  N_12 
REMARK    3  A    between atoms: C_9  and  C_6 
REMARK    4  A    between atoms: C_13  and  S_7 
REMARK    5  A    between atoms: C_8  and  C_13 
REMARK    6  A    between atoms: N_12  and  C_22 
REMARK    7  A    between atoms: C_22  and  C_16 
REMARK    8  A    between atoms: O_24  and  C_18 
ROOT
ATOM      1  N   UNL d   1     -40.910  14.453  20.717  0.00  0.00    -0.302 N 
ATOM      2  C   UNL d   1     -40.372  14.901  19.576  0.00  0.00     0.049 A 
ATOM      3  C   UNL d   1     -40.978  14.433  19.888  0.00  0.00     0.087 A 
ATOM      4  C   UNL d   1     -39.925  15.212  20.206  0.00  0.00     0.024 A 
ATOM      5  C   UNL d   1     -40.263  14.931  20.914  0.00  0.00     0.065 A 
ATOM      6  C   UNL d   1     -39.268  15.705  20.240  0.00  0.00     0.002 A 
ATOM      7  C   UNL d   1     -39.934  15.150  21.646  0.00  0.00     0.018 A 
ATOM      8  C   UNL d   1     -38.943  15.921  20.959  0.00  0.00     0.000 A 
ATOM      9  C   UNL d   1     -39.280  15.640  21.667  0.00  0.00     0.002 A 
ENDROOT
BRANCH   1  10
ATOM     10  C   UNL d   1     -41.403  14.061  21.250  0.00  0.00     0.101 C 
BRANCH  10  11
ATOM     11  C   UNL d   1     -42.051  13.631  20.976  0.00  0.00     0.121 C 
BRANCH  11  12
ATOM     12  N   UNL d   1     -42.699  13.495  21.468  0.00  0.00    -0.205 NA
ATOM     13  C   UNL d   1     -43.274  12.949  21.252  0.00  0.00     0.279 C 
ATOM     14  O   UNL d   1     -43.207  12.533  20.542  0.00  0.00    -0.265 OA
BRANCH  13  15
ATOM     15  C   UNL d   1     -43.921  12.813  21.745  0.00  0.00     0.058 A 
ATOM     16  C   UNL d   1     -44.563  13.350  21.748  0.00  0.00     0.007 A 
ATOM     17  C   UNL d   1     -45.211  13.215  22.240  0.00  0.00     0.024 A 
ATOM     18  C   UNL d   1     -45.214  12.544  22.727  0.00  0.00     0.094 A 
ATOM     19  C   UNL d   1     -44.581  12.016  22.722  0.00  0.00     0.024 A 
ATOM     20  C   UNL d   1     -43.942  12.153  22.233  0.00  0.00     0.007 A 
BRANCH  18  21
ATOM     21  O   UNL d   1     -45.867  12.396  23.232  0.00  0.00    -0.328 OA
ATOM     22  C   UNL d   1     -46.519  12.907  23.258  0.00  0.00     0.181 C 
ENDBRANCH  18  21
ENDBRANCH  13  15
ENDBRANCH  11  12
ENDBRANCH  10  11
ENDBRANCH   1  10
BRANCH   2  23
ATOM     23  S   UNL d   1     -40.227  15.041  18.776  0.00  0.00    -0.080 SA
BRANCH  23  24
ATOM     24  C   UNL d   1     -40.624  14.598  18.199  0.00  0.00     0.100 C 
BRANCH  24  25
ATOM     25  C   UNL d   1     -40.527  14.768  17.401  0.00  0.00     0.303 C 
ATOM     26  O   UNL d   1     -41.054  15.279  17.025  0.00  0.00    -0.263 OA
ATOM     27  N   UNL d   1     -39.906  14.431  16.976  0.00  0.00    -0.102 N 
ENDBRANCH  24  25
ENDBRANCH  23  24
ENDBRANCH   2  23
TORSDOF 8
ENDMDL
MODEL 3
REMARK VINA RESULT:      -4.9      1.556      2.354
REMARK  8 active torsions:
REMARK  status: ('A' for Active; 'I' for Inactive)
REMARK    1  A    between atoms: C_16  and  N_1 
REMARK    2  A    between atoms: S_7  and  C_2 
REMARK       I    between atoms: C_6  and  N_12 
REMARK    3  A    between atoms: C_9  and  C_6 
REMARK    4  A    between atoms: C_13  and  S_7 
REMARK    5  A    between atoms: C_8  and  C_13 
REMARK    6  A    between atoms: N_12  and  C_22 
REMARK    7  A    between atoms: C_22  and  C_16 
REMARK    8  A    between atoms: O_24  and  C_18 
ROOT
ATOM      1  N   UNL d   1     -46.320  12.938  22.952  0.00  0.00    -0.302 N 
ATOM      2  C   UNL d   1     -47.598  13.336  22.920  0.00  0.00     0.049 A 
ATOM      3  C   UNL d   1     -46.822  13.576  22.770  0.00  0.00     0.087 A 
ATOM      4  C   UNL d   1     -47.584  12.550  23.195  0.00  0.00     0.024 A 
ATOM      5  C   UNL d   1     -46.787  12.306  23.213  0.00  0.00     0.065 A 
ATOM      6  C   UNL d   1     -48.172  12.025  23.429  0.00  0.00     0.002 A 
ATOM      7  C   UNL d   1     -46.594  11.538  23.467  0.00  0.00     0.018 A 
ATOM      8  C   UNL d   1     -47.984  11.269  23.679  0.00  0.00     0.000 A 
ATOM      9  C   UNL d   1     -47.187  11.025  23.698  0.00  0.00     0.002 A 
ENDROOT
BRANCH   1  10
ATOM     10  C   UNL d   1     -45.498  12.937  22.883  0.00  0.00     0.101 C 
BRANCH  10  11
ATOM     11  C   UNL d   1     -45.144  12.977  22.139  0.00  0.00     0.121 C 
BRANCH  11  12
ATOM     12  N   UNL d   1     -44.361  13.226  22.063  0.00  0.00    -0.205 NA
ATOM     13  C   UNL d   1     -43.930  13.032  21.390  0.00  0.00     0.279 C 
ATOM     14  O   UNL d   1     -44.277  12.588  20.787  0.00  0.00    -0.265 OA
BRANCH  13  15
ATOM     15  C   UNL d   1     -43.147  13.282  21.315  0.00  0.00     0.058 A 
ATOM     16  C   UNL d   1     -42.980  14.075  21.108  0.00  0.00     0.007 A 
ATOM     17  C   UNL d   1     -42.198  14.325  21.032  0.00  0.00     0.024 A 
ATOM     18  C   UNL d   1     -41.586  13.781  21.164  0.00  0.00     0.094 A 
ATOM     19  C   UNL d   1     -41.753  13.000  21.369  0.00  0.00     0.024 A 
ATOM     20  C   UNL d   1     -42.529  12.757  21.442  0.00  0.00     0.007 A 
BRANCH  18  21
ATOM     21  O   UNL d   1     -40.787  14.023  21.091  0.00  0.00    -0.328 OA
ATOM     22  C   UNL d   1     -40.529  14.478  20.448  0.00  0.00     0.181 C 
ENDBRANCH  18  21
ENDBRANCH  13  15
ENDBRANCH  11  12
ENDBRANCH  10  11
ENDBRANCH   1  10
BRANCH   2  23
ATOM     23  S   UNL d   1     -48.279  13.791  22.817  0.00  0.00    -0.080 SA
BRANCH  23  24
ATOM     24  C   UNL d   1     -48.218  14.612  22.729  0.00  0.00     0.100 C 
BRANCH  24  25
ATOM     25  C   UNL d   1     -48.892  15.076  22.661  0.00  0.00     0.303 C 
ATOM     26  O   UNL d   1     -49.189  15.466  23.324  0.00  0.00    -0.263 OA
ATOM     27  N   UNL d   1     -49.272  15.153  21.933  0.00  0.00    -0.102 N 
ENDBRANCH  24  25
ENDBRANCH  23  24
ENDBRANCH   2  23
TORSDOF 8
ENDMDL
MODEL 4
REMARK VINA RESULT:      -4.3      3.737      8.190
REMARK  8 active torsions:
REMARK  status: ('A' for Active; 'I' for Inactive)
REMARK    1  A    between atoms: C_16  and  N_1 
REMARK    2  A    between atoms: S_7  and  C_2 
REMARK       I    between atoms: C_6  and  N_12 
REMARK    3  A    between atoms: C_9  and  C_6 
REMARK    4  A    between atoms: C_13  and  S_7 
REMARK    5  A    between atoms: C_8  and  C_13 
REMARK    6  A    between atoms: N_12  and  C_22 
REMARK    7  A    between atoms: C_22  and  C_16 
REMARK    8  A    between atoms: O_24  and  C_18 
ROOT
ATOM      1  N   UNL d   1     -41.193  14.073  20.831  0.00  0.00    -0.302 N 
ATOM      2  C   UNL d   1     -39.903  14.065  21.188  0.00  0.00     0.049 A 
ATOM      3  C   UNL d   1     -40.669  13.919  21.459  0.00  0.00     0.087 A 
ATOM      4  C   UNL d   1     -39.945  14.309  20.393  0.00  0.00     0.024 A 
ATOM      5  C   UNL d   1     -40.750  14.313  20.175  0.00  0.00     0.065 A 
ATOM      6  C   UNL d   1     -39.376  14.527  19.840  0.00  0.00     0.002 A 
ATOM      7  C   UNL d   1     -40.970  14.535  19.404  0.00  0.00     0.018 A 
ATOM      8  C   UNL d   1     -39.591  14.746  19.081  0.00  0.00     0.000 A 
ATOM      9  C   UNL d   1     -40.396  14.750  18.863  0.00  0.00     0.002 A 
ENDROOT
BRANCH   1  10
ATOM     10  C   UNL d   1     -42.014  13.998  20.861  0.00  0.00     0.101 C 
BRANCH  10  11
ATOM     11  C   UNL d   1     -42.359  13.359  21.252  0.00  0.00     0.121 C 
BRANCH  11  12
ATOM     12  N   UNL d   1     -43.139  13.406  21.519  0.00  0.00    -0.205 NA
ATOM     13  C   UNL d   1     -43.531  12.727  21.766  0.00  0.00     0.279 C 
ATOM     14  O   UNL d   1     -43.149  11.995  21.749  0.00  0.00    -0.265 OA
BRANCH  13  15
ATOM     15  C   UNL d   1     -44.310  12.774  22.033  0.00  0.00     0.058 A 
ATOM     16  C   UNL d   1     -44.622  12.168  22.520  0.00  0.00     0.007 A 
ATOM     17  C   UNL d   1     -45.401  12.215  22.787  0.00  0.00     0.024 A 
ATOM     18  C   UNL d   1     -45.865  12.866  22.566  0.00  0.00     0.094 A 
ATOM     19  C   UNL d   1     -45.556  13.461  22.086  0.00  0.00     0.024 A 
ATOM     20  C   UNL d   1     -44.784  13.411  21.824  0.00  0.00     0.007 A 
BRANCH  18  21
ATOM     21  O   UNL d   1     -46.658  12.924  22.831  0.00  0.00    -0.328 OA
ATOM     22  C   UNL d   1     -47.021  13.659  22.955  0.00  0.00     0.181 C 
ENDBRANCH  18  21
ENDBRANCH  13  15
ENDBRANCH  11  12
ENDBRANCH  10  11
ENDBRANCH   1  10
BRANCH   2  23
ATOM     23  S   UNL d   1     -39.207  13.984  21.624  0.00  0.00    -0.080 SA
BRANCH  23  24
ATOM     24  C   UNL d   1     -39.213  13.570  22.341  0.00  0.00     0.100 C 
BRANCH  24  25
ATOM     25  C   UNL d   1     -38.515  13.439  22.754  0.00  0.00     0.303 C 
ATOM     26  O   UNL d   1     -38.088  12.745  22.626  0.00  0.00    -0.263 OA
ATOM     27  N   UNL d   1     -38.241  13.998  23.294  0.00  0.00    -0.102 N 
ENDBRANCH  24  25
ENDBRANCH  23  24
ENDBRANCH   2  23
TORSDOF 8
ENDMDL
MODEL 5
REMARK VINA RESULT:      -3.6      5.615      8.826
REMARK  8 active torsions:
REMARK  status: ('A' for Active; 'I' for Inactive)
REMARK    1  A    between atoms: C_16  and  N_1 
REMARK    2  A    between atoms: S_7  and  C_2 
REMARK       I    between atoms: C_6  and  N_12 
REMARK    3  A    between atoms: C_9  and  C_6 
REMARK    4  A    between atoms: C_13  and  S_7 
REMARK    5  A    between atoms: C_8  and  C_13 
REMARK    6  A    between atoms: N_12  and  C_22 
REMARK    7  A    between atoms: C_22  and  C_16 
REMARK    8  A    between atoms: O_24  and  C_18 
ROOT
ATOM      1  N   UNL d   1     -40.542  14.801  20.394  0.00  0.00    -0.302 N 
ATOM      2  C   UNL d   1     -41.235  14.004  21.217  0.00  0.00     0.049 A 
ATOM      3  C   UNL d   1     -41.287  14.453  20.525  0.00  0.00     0.087 A 
ATOM      4  C   UNL d   1     -40.462  14.070  21.519  0.00  0.00     0.024 A 
ATOM      5  C   UNL d   1     -40.034  14.567  21.005  0.00  0.00     0.065 A 
ATOM      6  C   UNL d   1     -40.088  13.755  22.180  0.00  0.00     0.002 A 
ATOM      7  C   UNL d   1     -39.236  14.740  21.163  0.00  0.00     0.018 A 
ATOM      8  C   UNL d   1     -39.303  13.923  22.338  0.00  0.00     0.000 A 
ATOM      9  C   UNL d   1     -38.875  14.420  21.823  0.00  0.00     0.002 A 
ENDROOT
BRANCH   1  10
ATOM     10  C   UNL d   1     -40.346  15.296  19.764  0.00  0.00     0.101 C 
BRANCH  10  11
ATOM     11  C   UNL d   1     -40.531  15.075  18.990  0.00  0.00     0.121 C 
BRANCH  11  12
ATOM     12  N   UNL d   1     -39.975  15.164  18.388  0.00  0.00    -0.205 NA
ATOM     13  C   UNL d   1     -40.173  14.974  17.613  0.00  0.00     0.279 C 
ATOM     14  O   UNL d   1     -40.928  14.693  17.433  0.00  0.00    -0.265 OA
BRANCH  13  15
ATOM     15  C   UNL d   1     -39.616  15.064  17.011  0.00  0.00     0.058 A 
ATOM     16  C   UNL d   1     -39.394  15.831  16.759  0.00  0.00     0.007 A 
ATOM     17  C   UNL d   1     -38.838  15.921  16.156  0.00  0.00     0.024 A 
ATOM     18  C   UNL d   1     -38.506  15.245  15.809  0.00  0.00     0.094 A 
ATOM     19  C   UNL d   1     -38.726  14.491  16.059  0.00  0.00     0.024 A 
ATOM     20  C   UNL d   1     -39.277  14.406  16.655  0.00  0.00     0.007 A 
BRANCH  18  21
ATOM     21  O   UNL d   1     -37.940  15.324  15.196  0.00  0.00    -0.328 OA
ATOM     22  C   UNL d   1     -38.162  15.525  14.423  0.00  0.00     0.181 C 
ENDBRANCH  18  21
ENDBRANCH  13  15
ENDBRANCH  11  12
ENDBRANCH  10  11
ENDBRANCH   1  10
BRANCH   2  23
ATOM     23  S   UNL d   1     -41.843  13.561  21.558  0.00  0.00    -0.080 SA
BRANCH  23  24
ATOM     24  C   UNL d   1     -42.375  13.148  21.075  0.00  0.00     0.100 C 
BRANCH  24  25
ATOM     25  C   UNL d   1     -43.036  12.784  21.399  0.00  0.00     0.303 C 
ATOM     26  O   UNL d   1     -42.977  12.016  21.694  0.00  0.00    -0.263 OA
ATOM     27  N   UNL d   1     -43.757  13.183  21.430  0.00  0.00    -0.102 N 
ENDBRANCH  24  25
ENDBRANCH  23  24
ENDBRANCH   2  23
TORSDOF 8
ENDMDL
MODEL 6
REMARK VINA RESULT:      -3.1      2.714      4.759
REMARK  8 active torsions:
REMARK  status: ('A' for Active; 'I' for Inactive)
REMARK    1  A    between atoms: C_16  and  N_1 
REMARK    2  A    between atoms: S_7  and  C_2 
REMARK       I    between atoms: C_6  and  N_12 
REMARK    3  A    between atoms: C_9  and  C_6 
REMARK    4  A    between atoms: C_13  and  S_7 
REMARK    5  A    between atoms: C_8  and  C_13 
REMARK    6  A    between atoms: N_12  and  C_22 
REMARK    7  A    between atoms: C_22  and  C_16 
REMARK    8  A    between atoms: O_24  and  C_18 
ROOT
ATOM      1  N   UNL d   1     -43.869  12.171  22.162  0.00  0.00    -0.302 N 
ATOM      2  C   UNL d   1     -45.145  12.305  22.544  0.00  0.00     0.049 A 
ATOM      3  C   UNL d   1     -44.549  12.644  22.083  0.00  0.00     0.087 A 
ATOM      4  C   UNL d   1     -44.840  11.622  22.910  0.00  0.00     0.024 A 
ATOM      5  C   UNL d   1     -44.046  11.542  22.670  0.00  0.00     0.065 A 
ATOM      6  C   UNL d   1     -45.165  11.066  23.422  0.00  0.00     0.002 A 
ATOM      7  C   UNL d   1     -43.590  10.904  22.948  0.00  0.00     0.018 A 
ATOM      8  C   UNL d   1     -44.718  10.437  23.697  0.00  0.00     0.000 A 
ATOM      9  C   UNL d   1     -43.924  10.358  23.456  0.00  0.00     0.002 A 
ENDROOT
BRANCH   1  10
ATOM     10  C   UNL d   1     -43.143  12.308  21.795  0.00  0.00     0.101 C 
BRANCH  10  11
ATOM     11  C   UNL d   1     -42.984  13.040  21.448  0.00  0.00     0.121 C 
BRANCH  11  12
ATOM     12  N   UNL d   1     -42.240  13.196  21.129  0.00  0.00    -0.205 NA
ATOM     13  C   UNL d   1     -41.982  13.972  21.045  0.00  0.00     0.279 C 
ATOM     14  O   UNL d   1     -42.465  14.599  21.281  0.00  0.00    -0.265 OA
BRANCH  13  15
ATOM     15  C   UNL d   1     -41.238  14.128  20.726  0.00  0.00     0.058 A 
ATOM     16  C   UNL d   1     -41.121  14.080  19.898  0.00  0.00     0.007 A 
ATOM     17  C   UNL d   1     -40.377  14.236  19.578  0.00  0.00     0.024 A 
ATOM     18  C   UNL d   1     -39.753  14.440  20.086  0.00  0.00     0.094 A 
ATOM     19  C   UNL d   1     -39.871  14.487  20.901  0.00  0.00     0.024 A 
ATOM     20  C   UNL d   1     -40.609  14.332  21.213  0.00  0.00     0.007 A 
BRANCH  18  21
ATOM     21  O   UNL d   1     -38.993  14.601  19.772  0.00  0.00    -0.328 OA
ATOM     22  C   UNL d   1     -38.896  14.959  19.031  0.00  0.00     0.181 C 
ENDBRANCH  18  21
ENDBRANCH  13  15
ENDBRANCH  11  12
ENDBRANCH  10  11
ENDBRANCH   1  10
BRANCH   2  23
ATOM     23  S   UNL d   1     -45.915  12.588  22.632  0.00  0.00    -0.080 SA
BRANCH  23  24
ATOM     24  C   UNL d   1     -46.094  13.371  22.431  0.00  0.00     0.100 C 
BRANCH  24  25
ATOM     25  C   UNL d   1     -46.857  13.663  22.522  0.00  0.00     0.303 C 
ATOM     26  O   UNL d   1     -47.012  14.229  23.100  0.00  0.00    -0.263 OA
ATOM     27  N   UNL d   1     -47.466  13.390  22.037  0.00  0.00    -0.102 N 
ENDBRANCH  24  25
ENDBRANCH  23  24
ENDBRANCH   2  23
TORSDOF 8
ENDMDL
