MODEL 1
REMARK VINA RESULT:      55.0      0.000      0.000
REMARK  3 active torsions:
REMARK  status: ('A' for Active; 'I' for Inactive)
REMARK    1  A    between atoms: C_6  and  N_1 
REMARK       I    between atoms: C_2  and  N_4 
REMARK    2  A    between atoms: C_5  and  C_2 
REMARK    3  A    between atoms: N_4  and  C_12 
ROOT
ATOM      1  C   UNL d   1     -55.213-101.860 -39.740  0.00  0.00     0.067 A 
ATOM      2  C   UNL d   1     -55.193-101.047 -39.896  0.00  0.00     0.019 A 
ATOM      3  C   UNL d   1     -55.064-102.392 -40.351  0.00  0.00     0.019 A 
ATOM      4  C   UNL d   1     -54.877-101.302 -41.266  0.00  0.00     0.085 A 
ATOM      5  C   UNL d   1     -54.897-102.114 -41.110  0.00  0.00     0.021 A 
ATOM      6  C   UNL d   1     -55.028-100.772 -40.648  0.00  0.00     0.021 A 
ENDROOT
BRANCH   4   7
ATOM      7  N   UNL d   1     -54.711-101.028 -42.016  0.00  0.00    -0.208 NA
ATOM      8  C   UNL d   1     -55.214-101.209 -42.643  0.00  0.00     0.279 C 
ATOM      9  O   UNL d   1     -55.884-101.669 -42.510  0.00  0.00    -0.265 OA
BRANCH   8  10
ATOM     10  C   UNL d   1     -55.048-100.935 -43.394  0.00  0.00     0.060 A 
ATOM     11  C   UNL d   1     -54.976-101.471 -44.022  0.00  0.00     0.034 A 
ATOM     12  C   UNL d   1     -54.806-101.194 -44.795  0.00  0.00     0.140 A 
ATOM     13  F   UNL d   1     -54.734-101.724 -45.420  0.00  0.00    -0.204 F 
ATOM     14  C   UNL d   1     -54.712-100.377 -44.919  0.00  0.00     0.030 A 
ATOM     15  C   UNL d   1     -54.786 -99.846 -44.283  0.00  0.00     0.003 A 
ATOM     16  C   UNL d   1     -54.954-100.127 -43.526  0.00  0.00     0.005 A 
ENDBRANCH   8  10
ENDBRANCH   4   7
BRANCH   1  17
ATOM     17  N   UNL d   1     -55.378-102.135 -38.990  0.00  0.00    -0.273 N 
ATOM     18  C   UNL d   1     -55.149-101.776 -38.278  0.00  0.00     0.265 A 
ATOM     19  O   UNL d   1     -54.711-101.075 -38.197  0.00  0.00    -0.267 OA
ATOM     20  C   UNL d   1     -55.431-102.235 -37.652  0.00  0.00     0.063 A 
ATOM     21  C   UNL d   1     -55.834-102.878 -37.976  0.00  0.00     0.024 A 
ATOM     22  C   UNL d   1     -55.803-102.817 -38.794  0.00  0.00     0.083 A 
ENDBRANCH   1  17
TORSDOF 3
ENDMDL
