MODEL 1
REMARK VINA RESULT:      -8.7      0.000      0.000
REMARK  3 active torsions:
REMARK  status: ('A' for Active; 'I' for Inactive)
REMARK    1  A    between atoms: C_2  and  C_1 
REMARK       I    between atoms: N_4  and  C_2 
REMARK    2  A    between atoms: C_6  and  N_4 
REMARK    3  A    between atoms: S_12  and  C_5 
ROOT
ATOM      1  C   UNL d   1     -49.155  12.770  22.930  0.00  0.00     0.298 C 
ATOM      2  N   UNL d   1     -48.392  13.078  23.009  0.00  0.00    -0.207 NA
ATOM      3  O   UNL d   1     -49.293  11.953  23.015  0.00  0.00    -0.264 OA
ENDROOT
BRANCH   1   4
ATOM      4  C   UNL d   1     -49.786  13.278  22.765  0.00  0.00     0.153 A 
ATOM      5  N   UNL d   1     -50.017  13.860  23.322  0.00  0.00    -0.216 NA
ATOM      6  C   UNL d   1     -50.652  14.366  23.149  0.00  0.00     0.190 A 
ATOM      7  N   UNL d   1     -51.057  14.298  22.432  0.00  0.00    -0.219 NA
ATOM      8  C   UNL d   1     -50.828  13.722  21.882  0.00  0.00     0.114 A 
ATOM      9  C   UNL d   1     -50.194  13.211  22.045  0.00  0.00     0.099 A 
ATOM     10 CL   UNL d   1     -49.969  12.636  21.492  0.00  0.00    -0.079 Cl
BRANCH   6  11
ATOM     11  S   UNL d   1     -50.882  14.940  23.695  0.00  0.00    -0.075 SA
ATOM     12  C   UNL d   1     -50.613  15.726  23.611  0.00  0.00     0.077 C 
ENDBRANCH   6  11
ENDBRANCH   1   4
BRANCH   2  13
ATOM     13  C   UNL d   1     -47.760  12.575  23.173  0.00  0.00     0.085 A 
ATOM     14  C   UNL d   1     -46.996  12.795  22.979  0.00  0.00     0.018 A 
ATOM     15  C   UNL d   1     -46.363  12.299  23.140  0.00  0.00     0.002 A 
ATOM     16  C   UNL d   1     -46.860  13.525  22.619  0.00  0.00     0.002 A 
ATOM     17  C   UNL d   1     -45.597  12.527  22.943  0.00  0.00     0.000 A 
ATOM     18  C   UNL d   1     -46.498  11.570  23.500  0.00  0.00     0.000 A 
ATOM     19  C   UNL d   1     -45.462  13.249  22.586  0.00  0.00     0.000 A 
ATOM     20  C   UNL d   1     -46.093  13.751  22.423  0.00  0.00     0.000 A 
ATOM     21  C   UNL d   1     -47.269  11.344  23.697  0.00  0.00     0.002 A 
ATOM     22  C   UNL d   1     -47.899  11.851  23.531  0.00  0.00     0.019 A 
ENDBRANCH   2  13
TORSDOF 3
ENDMDL
MODEL 2
REMARK VINA RESULT:      -8.7      1.670      4.161
REMARK  3 active torsions:
REMARK  status: ('A' for Active; 'I' for Inactive)
REMARK    1  A    between atoms: C_2  and  C_1 
REMARK       I    between atoms: N_4  and  C_2 
REMARK    2  A    between atoms: C_6  and  N_4 
REMARK    3  A    between atoms: S_12  and  C_5 
ROOT
ATOM      1  C   UNL d   1     -48.306  12.733  22.549  0.00  0.00     0.298 C 
ATOM      2  N   UNL d   1     -48.632  13.491  22.596  0.00  0.00    -0.207 NA
ATOM      3  O   UNL d   1     -48.749  12.100  22.235  0.00  0.00    -0.264 OA
ENDROOT
BRANCH   1   4
ATOM      4  C   UNL d   1     -47.536  12.601  22.815  0.00  0.00     0.153 A 
ATOM      5  N   UNL d   1     -46.899  13.051  22.508  0.00  0.00    -0.216 NA
ATOM      6  C   UNL d   1     -46.127  12.913  22.781  0.00  0.00     0.190 A 
ATOM      7  N   UNL d   1     -45.984  12.334  23.352  0.00  0.00    -0.219 NA
ATOM      8  C   UNL d   1     -46.614  11.889  23.656  0.00  0.00     0.114 A 
ATOM      9  C   UNL d   1     -47.390  12.020  23.390  0.00  0.00     0.099 A 
ATOM     10 CL   UNL d   1     -48.017  11.572  23.696  0.00  0.00    -0.079 Cl
BRANCH   6  11
ATOM     11  S   UNL d   1     -45.498  13.354  22.481  0.00  0.00    -0.075 SA
ATOM     12  C   UNL d   1     -45.010  13.032  21.886  0.00  0.00     0.077 C 
ENDBRANCH   6  11
ENDBRANCH   1   4
BRANCH   2  13
ATOM     13  C   UNL d   1     -49.401  13.626  22.331  0.00  0.00     0.085 A 
ATOM     14  C   UNL d   1     -49.839  14.248  22.635  0.00  0.00     0.018 A 
ATOM     15  C   UNL d   1     -50.604  14.387  22.376  0.00  0.00     0.002 A 
ATOM     16  C   UNL d   1     -49.507  14.739  23.208  0.00  0.00     0.002 A 
ATOM     17  C   UNL d   1     -51.040  15.014  22.685  0.00  0.00     0.000 A 
ATOM     18  C   UNL d   1     -50.936  13.896  21.803  0.00  0.00     0.000 A 
ATOM     19  C   UNL d   1     -50.711  15.501  23.252  0.00  0.00     0.000 A 
ATOM     20  C   UNL d   1     -49.943  15.366  23.517  0.00  0.00     0.000 A 
ATOM     21  C   UNL d   1     -50.497  13.267  21.494  0.00  0.00     0.002 A 
ATOM     22  C   UNL d   1     -49.727  13.135  21.761  0.00  0.00     0.019 A 
ENDBRANCH   2  13
TORSDOF 3
ENDMDL
MODEL 3
REMARK VINA RESULT:      -8.2      2.002      4.375
REMARK  3 active torsions:
REMARK  status: ('A' for Active; 'I' for Inactive)
REMARK    1  A    between atoms: C_2  and  C_1 
REMARK       I    between atoms: N_4  and  C_2 
REMARK    2  A    between atoms: C_6  and  N_4 
REMARK    3  A    between atoms: S_12  and  C_5 
ROOT
ATOM      1  C   UNL d   1     -47.517  13.681  22.967  0.00  0.00     0.298 C 
ATOM      2  N   UNL d   1     -48.206  13.455  22.570  0.00  0.00    -0.207 NA
ATOM      3  O   UNL d   1     -47.466  14.426  23.338  0.00  0.00    -0.264 OA
ENDROOT
BRANCH   1   4
ATOM      4  C   UNL d   1     -46.873  13.165  22.996  0.00  0.00     0.153 A 
ATOM      5  N   UNL d   1     -46.958  12.401  23.330  0.00  0.00    -0.216 NA
ATOM      6  C   UNL d   1     -46.305  11.888  23.355  0.00  0.00     0.190 A 
ATOM      7  N   UNL d   1     -45.575  12.126  23.053  0.00  0.00    -0.219 NA
ATOM      8  C   UNL d   1     -45.491  12.882  22.722  0.00  0.00     0.114 A 
ATOM      9  C   UNL d   1     -46.137  13.402  22.692  0.00  0.00     0.099 A 
ATOM     10 CL   UNL d   1     -46.049  14.157  22.361  0.00  0.00    -0.079 Cl
BRANCH   6  11
ATOM     11  S   UNL d   1     -46.385  11.135  23.683  0.00  0.00    -0.075 SA
ATOM     12  C   UNL d   1     -45.733  10.615  23.696  0.00  0.00     0.077 C 
ENDBRANCH   6  11
ENDBRANCH   1   4
BRANCH   2  13
ATOM     13  C   UNL d   1     -48.850  13.968  22.540  0.00  0.00     0.085 A 
ATOM     14  C   UNL d   1     -49.541  13.741  22.164  0.00  0.00     0.018 A 
ATOM     15  C   UNL d   1     -50.186  14.247  22.130  0.00  0.00     0.002 A 
ATOM     16  C   UNL d   1     -49.590  12.995  21.815  0.00  0.00     0.002 A 
ATOM     17  C   UNL d   1     -50.878  14.012  21.750  0.00  0.00     0.000 A 
ATOM     18  C   UNL d   1     -50.137  14.992  22.478  0.00  0.00     0.000 A 
ATOM     19  C   UNL d   1     -50.926  13.273  21.405  0.00  0.00     0.000 A 
ATOM     20  C   UNL d   1     -50.283  12.761  21.436  0.00  0.00     0.000 A 
ATOM     21  C   UNL d   1     -49.441  15.225  22.858  0.00  0.00     0.002 A 
ATOM     22  C   UNL d   1     -48.798  14.709  22.887  0.00  0.00     0.019 A 
ENDBRANCH   2  13
TORSDOF 3
ENDMDL
MODEL 4
REMARK VINA RESULT:      -7.9      1.399      2.127
REMARK  3 active torsions:
REMARK  status: ('A' for Active; 'I' for Inactive)
REMARK    1  A    between atoms: C_2  and  C_1 
REMARK       I    between atoms: N_4  and  C_2 
REMARK    2  A    between atoms: C_6  and  N_4 
REMARK    3  A    between atoms: S_12  and  C_5 
ROOT
ATOM      1  C   UNL d   1     -48.363  14.286  22.538  0.00  0.00     0.298 C 
ATOM      2  N   UNL d   1     -48.137  13.644  23.007  0.00  0.00    -0.207 NA
ATOM      3  O   UNL d   1     -47.800  14.694  22.078  0.00  0.00    -0.264 OA
ENDROOT
BRANCH   1   4
ATOM      4  C   UNL d   1     -49.153  14.525  22.525  0.00  0.00     0.153 A 
ATOM      5  N   UNL d   1     -49.715  14.103  22.068  0.00  0.00    -0.216 NA
ATOM      6  C   UNL d   1     -50.508  14.350  22.060  0.00  0.00     0.190 A 
ATOM      7  N   UNL d   1     -50.745  15.009  22.500  0.00  0.00    -0.219 NA
ATOM      8  C   UNL d   1     -50.188  15.426  22.951  0.00  0.00     0.114 A 
ATOM      9  C   UNL d   1     -49.393  15.187  22.966  0.00  0.00     0.099 A 
ATOM     10 CL   UNL d   1     -48.840  15.606  23.419  0.00  0.00    -0.079 Cl
BRANCH   6  11
ATOM     11  S   UNL d   1     -51.064  13.938  21.612  0.00  0.00    -0.075 SA
ATOM     12  C   UNL d   1     -51.052  13.104  21.598  0.00  0.00     0.077 C 
ENDBRANCH   6  11
ENDBRANCH   1   4
BRANCH   2  13
ATOM     13  C   UNL d   1     -47.349  13.403  23.022  0.00  0.00     0.085 A 
ATOM     14  C   UNL d   1     -47.155  12.639  23.246  0.00  0.00     0.018 A 
ATOM     15  C   UNL d   1     -46.373  12.393  23.263  0.00  0.00     0.002 A 
ATOM     16  C   UNL d   1     -47.753  12.111  23.457  0.00  0.00     0.002 A 
ATOM     17  C   UNL d   1     -46.185  11.624  23.489  0.00  0.00     0.000 A 
ATOM     18  C   UNL d   1     -45.776  12.920  23.053  0.00  0.00     0.000 A 
ATOM     19  C   UNL d   1     -46.777  11.101  23.698  0.00  0.00     0.000 A 
ATOM     20  C   UNL d   1     -47.564  11.342  23.682  0.00  0.00     0.000 A 
ATOM     21  C   UNL d   1     -45.967  13.692  22.826  0.00  0.00     0.002 A 
ATOM     22  C   UNL d   1     -46.757  13.930  22.812  0.00  0.00     0.019 A 
ENDBRANCH   2  13
TORSDOF 3
ENDMDL
MODEL 5
REMARK VINA RESULT:      -6.3      8.792     10.291
REMARK  3 active torsions:
REMARK  status: ('A' for Active; 'I' for Inactive)
REMARK    1  A    between atoms: C_2  and  C_1 
REMARK       I    between atoms: N_4  and  C_2 
REMARK    2  A    between atoms: C_6  and  N_4 
REMARK    3  A    between atoms: S_12  and  C_5 
ROOT
ATOM      1  C   UNL d   1     -40.200  14.434  18.431  0.00  0.00     0.298 C 
ATOM      2  N   UNL d   1     -39.800  14.721  19.095  0.00  0.00    -0.207 NA
ATOM      3  O   UNL d   1     -40.941  14.063  18.510  0.00  0.00    -0.264 OA
ENDROOT
BRANCH   1   4
ATOM      4  C   UNL d   1     -39.861  14.517  17.682  0.00  0.00     0.153 A 
ATOM      5  N   UNL d   1     -39.169  14.089  17.481  0.00  0.00    -0.216 NA
ATOM      6  C   UNL d   1     -38.835  14.177  16.726  0.00  0.00     0.190 A 
ATOM      7  N   UNL d   1     -39.181  14.684  16.173  0.00  0.00    -0.219 NA
ATOM      8  C   UNL d   1     -39.865  15.108  16.372  0.00  0.00     0.114 A 
ATOM      9  C   UNL d   1     -40.207  15.026  17.124  0.00  0.00     0.099 A 
ATOM     10 CL   UNL d   1     -40.891  15.451  17.319  0.00  0.00    -0.079 Cl
BRANCH   6  11
ATOM     11  S   UNL d   1     -38.154  13.757  16.524  0.00  0.00    -0.075 SA
ATOM     12  C   UNL d   1     -37.943  13.665  15.722  0.00  0.00     0.077 C 
ENDBRANCH   6  11
ENDBRANCH   1   4
BRANCH   2  13
ATOM     13  C   UNL d   1     -40.135  14.641  19.843  0.00  0.00     0.085 A 
ATOM     14  C   UNL d   1     -39.815  15.038  20.484  0.00  0.00     0.018 A 
ATOM     15  C   UNL d   1     -40.143  14.962  21.231  0.00  0.00     0.002 A 
ATOM     16  C   UNL d   1     -39.154  15.520  20.376  0.00  0.00     0.002 A 
ATOM     17  C   UNL d   1     -39.817  15.364  21.871  0.00  0.00     0.000 A 
ATOM     18  C   UNL d   1     -40.803  14.480  21.339  0.00  0.00     0.000 A 
ATOM     19  C   UNL d   1     -39.163  15.842  21.765  0.00  0.00     0.000 A 
ATOM     20  C   UNL d   1     -38.828  15.922  21.017  0.00  0.00     0.000 A 
ATOM     21  C   UNL d   1     -41.129  14.077  20.694  0.00  0.00     0.002 A 
ATOM     22  C   UNL d   1     -40.791  14.160  19.946  0.00  0.00     0.019 A 
ENDBRANCH   2  13
TORSDOF 3
ENDMDL
MODEL 6
REMARK VINA RESULT:      -5.8      9.055     10.263
REMARK  3 active torsions:
REMARK  status: ('A' for Active; 'I' for Inactive)
REMARK    1  A    between atoms: C_2  and  C_1 
REMARK       I    between atoms: N_4  and  C_2 
REMARK    2  A    between atoms: C_6  and  N_4 
REMARK    3  A    between atoms: S_12  and  C_5 
ROOT
ATOM      1  C   UNL d   1     -40.145  15.300  19.728  0.00  0.00     0.298 C 
ATOM      2  N   UNL d   1     -39.680  14.997  19.116  0.00  0.00    -0.207 NA
ATOM      3  O   UNL d   1     -40.862  15.691  19.562  0.00  0.00    -0.264 OA
ENDROOT
BRANCH   1   4
ATOM      4  C   UNL d   1     -39.898  15.214  20.511  0.00  0.00     0.153 A 
ATOM      5  N   UNL d   1     -39.217  15.618  20.786  0.00  0.00    -0.216 NA
ATOM      6  C   UNL d   1     -38.974  15.526  21.575  0.00  0.00     0.190 A 
ATOM      7  N   UNL d   1     -39.401  15.040  22.089  0.00  0.00    -0.219 NA
ATOM      8  C   UNL d   1     -40.074  14.640  21.817  0.00  0.00     0.114 A 
ATOM      9  C   UNL d   1     -40.325  14.726  21.029  0.00  0.00     0.099 A 
ATOM     10 CL   UNL d   1     -40.999  14.325  20.761  0.00  0.00    -0.079 Cl
BRANCH   6  11
ATOM     11  S   UNL d   1     -38.304  15.922  21.850  0.00  0.00    -0.075 SA
ATOM     12  C   UNL d   1     -38.091  15.871  22.655  0.00  0.00     0.077 C 
ENDBRANCH   6  11
ENDBRANCH   1   4
BRANCH   2  13
ATOM     13  C   UNL d   1     -39.924  15.081  18.333  0.00  0.00     0.085 A 
ATOM     14  C   UNL d   1     -39.528  14.689  17.732  0.00  0.00     0.018 A 
ATOM     15  C   UNL d   1     -39.766  14.769  16.952  0.00  0.00     0.002 A 
ATOM     16  C   UNL d   1     -38.882  14.210  17.915  0.00  0.00     0.002 A 
ATOM     17  C   UNL d   1     -39.363  14.373  16.353  0.00  0.00     0.000 A 
ATOM     18  C   UNL d   1     -40.411  15.248  16.770  0.00  0.00     0.000 A 
ATOM     19  C   UNL d   1     -38.723  13.898  16.533  0.00  0.00     0.000 A 
ATOM     20  C   UNL d   1     -38.480  13.814  17.315  0.00  0.00     0.000 A 
ATOM     21  C   UNL d   1     -40.814  15.645  17.373  0.00  0.00     0.002 A 
ATOM     22  C   UNL d   1     -40.567  15.558  18.156  0.00  0.00     0.019 A 
ENDBRANCH   2  13
TORSDOF 3
ENDMDL
