MODEL 1
REMARK VINA RESULT:      -0.1      0.000      0.000
REMARK  6 active torsions:
REMARK  status: ('A' for Active; 'I' for Inactive)
REMARK       I    between atoms: N_3  and  C_1 
REMARK    1  A    between atoms: O_5  and  C_1 
REMARK    2  A    between atoms: C_6  and  C_2 
REMARK    3  A    between atoms: C_4  and  O_5 
REMARK    4  A    between atoms: C_7  and  C_6 
REMARK    5  A    between atoms: C_9  and  C_7 
REMARK    6  A    between atoms: C_8  and  C_9 
ROOT
ATOM      1  C   UNL d   1     -41.569-122.129 -51.287  0.00  0.00     0.063 A 
ATOM      2  C   UNL d   1     -41.486-121.876 -52.079  0.00  0.00     0.108 A 
ATOM      3  C   UNL d   1     -41.448-121.590 -50.675  0.00  0.00     0.017 A 
ATOM      4  C   UNL d   1     -41.285-121.096 -52.236  0.00  0.00     0.026 A 
ATOM      5  C   UNL d   1     -41.247-120.811 -50.841  0.00  0.00     0.058 A 
ATOM      6  C   UNL d   1     -41.164-120.561 -51.625  0.00  0.00     0.013 A 
ATOM      7 CL   UNL d   1     -41.126-120.274 -50.225  0.00  0.00    -0.082 Cl
ENDROOT
BRANCH   1   8
ATOM      8  C   UNL d   1     -41.771-122.912 -51.123  0.00  0.00     0.198 C 
ATOM      9  O   UNL d   1     -41.429-123.525 -51.560  0.00  0.00    -0.286 OA
BRANCH   8  10
ATOM     10  C   UNL d   1     -42.311-123.082 -50.525  0.00  0.00     0.043 C 
BRANCH  10  11
ATOM     11  C   UNL d   1     -42.224-123.766 -50.072  0.00  0.00     0.010 C 
BRANCH  11  12
ATOM     12  C   UNL d   1     -42.446-123.767 -49.270  0.00  0.00     0.030 A 
ATOM     13  S   UNL d   1     -43.222-123.721 -48.986  0.00  0.00    -0.086 SA
ATOM     14  C   UNL d   1     -43.178-123.741 -48.153  0.00  0.00     0.035 A 
ATOM     15  C   UNL d   1     -42.385-123.798 -47.939  0.00  0.00     0.007 A 
ATOM     16  C   UNL d   1     -41.936-123.814 -48.631  0.00  0.00     0.007 A 
ENDBRANCH  11  12
ENDBRANCH  10  11
ENDBRANCH   8  10
ENDBRANCH   1   8
BRANCH   2  17
ATOM     17  O   UNL d   1     -41.607-122.411 -52.689  0.00  0.00    -0.259 OA
BRANCH  17  18
ATOM     18  C   UNL d   1     -41.835-122.135 -53.435  0.00  0.00     0.378 C 
ATOM     19  N   UNL d   1     -41.704-122.598 -54.105  0.00  0.00    -0.247 N 
ATOM     20  C   UNL d   1     -41.931-122.323 -54.846  0.00  0.00     0.112 A 
ATOM     21  C   UNL d   1     -41.340-123.344 -54.030  0.00  0.00     0.112 A 
ATOM     22  C   UNL d   1     -41.796-122.796 -55.522  0.00  0.00     0.142 A 
ATOM     23  O   UNL d   1     -41.433-123.538 -55.440  0.00  0.00    -0.300 OA
ATOM     24  C   UNL d   1     -41.206-123.809 -54.693  0.00  0.00     0.142 A 
ATOM     25  O   UNL d   1     -42.198-121.394 -53.517  0.00  0.00    -0.237 OA
ENDBRANCH  17  18
ENDBRANCH   2  17
TORSDOF 6
ENDMDL
MODEL 2
REMARK VINA RESULT:       0.4      1.949      4.631
REMARK  6 active torsions:
REMARK  status: ('A' for Active; 'I' for Inactive)
REMARK       I    between atoms: N_3  and  C_1 
REMARK    1  A    between atoms: O_5  and  C_1 
REMARK    2  A    between atoms: C_6  and  C_2 
REMARK    3  A    between atoms: C_4  and  O_5 
REMARK    4  A    between atoms: C_7  and  C_6 
REMARK    5  A    between atoms: C_9  and  C_7 
REMARK    6  A    between atoms: C_8  and  C_9 
ROOT
ATOM      1  C   UNL d   1     -41.617-122.057 -51.807  0.00  0.00     0.063 A 
ATOM      2  C   UNL d   1     -41.725-122.211 -50.994  0.00  0.00     0.108 A 
ATOM      3  C   UNL d   1     -41.417-121.296 -52.052  0.00  0.00     0.017 A 
ATOM      4  C   UNL d   1     -41.631-121.603 -50.450  0.00  0.00     0.026 A 
ATOM      5  C   UNL d   1     -41.324-120.693 -51.502  0.00  0.00     0.058 A 
ATOM      6  C   UNL d   1     -41.431-120.846 -50.696  0.00  0.00     0.013 A 
ATOM      7 CL   UNL d   1     -41.123-119.931 -51.751  0.00  0.00    -0.082 Cl
ENDROOT
BRANCH   1   8
ATOM      8  C   UNL d   1     -41.711-122.663 -52.359  0.00  0.00     0.198 C 
ATOM      9  O   UNL d   1     -41.996-123.400 -52.114  0.00  0.00    -0.286 OA
BRANCH   8  10
ATOM     10  C   UNL d   1     -41.521-122.536 -53.149  0.00  0.00     0.043 C 
BRANCH  10  11
ATOM     11  C   UNL d   1     -42.007-122.836 -53.745  0.00  0.00     0.010 C 
BRANCH  11  12
ATOM     12  C   UNL d   1     -41.948-122.541 -54.520  0.00  0.00     0.030 A 
ATOM     13  S   UNL d   1     -41.245-122.460 -54.951  0.00  0.00    -0.086 SA
ATOM     14  C   UNL d   1     -41.452-122.145 -55.696  0.00  0.00     0.035 A 
ATOM     15  C   UNL d   1     -42.269-122.037 -55.712  0.00  0.00     0.007 A 
ATOM     16  C   UNL d   1     -42.570-122.283 -54.985  0.00  0.00     0.007 A 
ENDBRANCH  11  12
ENDBRANCH  10  11
ENDBRANCH   8  10
ENDBRANCH   1   8
BRANCH   2  17
ATOM     17  O   UNL d   1     -41.925-122.968 -50.748  0.00  0.00    -0.259 OA
BRANCH  17  18
ATOM     18  C   UNL d   1     -41.865-123.166 -49.947  0.00  0.00     0.378 C 
ATOM     19  N   UNL d   1     -42.539-123.384 -49.524  0.00  0.00    -0.247 N 
ATOM     20  C   UNL d   1     -42.480-123.581 -48.727  0.00  0.00     0.112 A 
ATOM     21  C   UNL d   1     -43.281-123.403 -49.904  0.00  0.00     0.112 A 
ATOM     22  C   UNL d   1     -43.165-123.800 -48.304  0.00  0.00     0.142 A 
ATOM     23  O   UNL d   1     -43.901-123.817 -48.689  0.00  0.00    -0.300 OA
ATOM     24  C   UNL d   1     -43.956-123.619 -49.489  0.00  0.00     0.142 A 
ATOM     25  O   UNL d   1     -41.131-123.149 -49.562  0.00  0.00    -0.237 OA
ENDBRANCH  17  18
ENDBRANCH   2  17
TORSDOF 6
ENDMDL
