MODEL 1
REMARK VINA RESULT:      -7.7      0.000      0.000
REMARK  5 active torsions:
REMARK  status: ('A' for Active; 'I' for Inactive)
REMARK    1  A    between atoms: N_2  and  S_1 
REMARK    2  A    between atoms: C_6  and  S_1 
REMARK    3  A    between atoms: C_3  and  N_2 
REMARK    4  A    between atoms: N_7  and  C_3 
REMARK    5  A    between atoms: C_9  and  N_7 
ROOT
ATOM      1  N   UNL d   1      52.158  33.581  53.297  0.00  0.00    -0.128 NA
ENDROOT
BRANCH   1   2
ATOM      2  S   UNL d   1      51.447  33.869  52.978  0.00  0.00     0.287 S 
ATOM      3  O   UNL d   1      51.867  34.425  52.518  0.00  0.00    -0.198 OA
ATOM      4  O   UNL d   1      51.013  33.322  53.427  0.00  0.00    -0.198 OA
BRANCH   2   5
ATOM      5  C   UNL d   1      50.733  34.158  52.657  0.00  0.00     0.105 A 
ATOM      6  C   UNL d   1      50.192  34.565  53.144  0.00  0.00     0.013 A 
ATOM      7  C   UNL d   1      49.487  34.850  52.828  0.00  0.00     0.001 A 
ATOM      8  C   UNL d   1      49.316  34.734  52.032  0.00  0.00     0.000 A 
ATOM      9  C   UNL d   1      49.851  34.329  51.543  0.00  0.00     0.001 A 
ATOM     10  C   UNL d   1      50.557  34.043  51.860  0.00  0.00     0.013 A 
ENDBRANCH   2   5
ENDBRANCH   1   2
BRANCH   1  11
ATOM     11  C   UNL d   1      52.636  32.936  53.529  0.00  0.00     0.232 C 
ATOM     12  S   UNL d   1      52.800  32.335  52.988  0.00  0.00    -0.036 SA
BRANCH  11  13
ATOM     13  N   UNL d   1      52.939  32.905  54.297  0.00  0.00    -0.217 NA
BRANCH  13  14
ATOM     14  C   UNL d   1      53.723  33.124  54.440  0.00  0.00     0.084 A 
ATOM     15  C   UNL d   1      53.900  33.633  55.062  0.00  0.00     0.019 A 
ATOM     16  C   UNL d   1      54.677  33.852  55.205  0.00  0.00     0.002 A 
ATOM     17  C   UNL d   1      55.284  33.565  54.731  0.00  0.00     0.000 A 
ATOM     18  C   UNL d   1      55.108  33.054  54.106  0.00  0.00     0.002 A 
ATOM     19  C   UNL d   1      54.328  32.832  53.958  0.00  0.00     0.019 A 
ENDBRANCH  13  14
ENDBRANCH  11  13
ENDBRANCH   1  11
TORSDOF 5
ENDMDL
MODEL 2
REMARK VINA RESULT:      -7.6      0.805      1.353
REMARK  5 active torsions:
REMARK  status: ('A' for Active; 'I' for Inactive)
REMARK    1  A    between atoms: N_2  and  S_1 
REMARK    2  A    between atoms: C_6  and  S_1 
REMARK    3  A    between atoms: C_3  and  N_2 
REMARK    4  A    between atoms: N_7  and  C_3 
REMARK    5  A    between atoms: C_9  and  N_7 
ROOT
ATOM      1  N   UNL d   1      51.745  33.929  53.043  0.00  0.00    -0.128 NA
ENDROOT
BRANCH   1   2
ATOM      2  S   UNL d   1      51.016  34.140  52.705  0.00  0.00     0.287 S 
ATOM      3  O   UNL d   1      50.611  33.856  53.377  0.00  0.00    -0.198 OA
ATOM      4  O   UNL d   1      51.402  34.427  52.028  0.00  0.00    -0.198 OA
BRANCH   2   5
ATOM      5  C   UNL d   1      50.284  34.353  52.365  0.00  0.00     0.105 A 
ATOM      6  C   UNL d   1      50.122  34.161  51.570  0.00  0.00     0.013 A 
ATOM      7  C   UNL d   1      49.400  34.371  51.235  0.00  0.00     0.001 A 
ATOM      8  C   UNL d   1      48.838  34.770  51.684  0.00  0.00     0.000 A 
ATOM      9  C   UNL d   1      48.994  34.963  52.475  0.00  0.00     0.001 A 
ATOM     10  C   UNL d   1      49.718  34.753  52.811  0.00  0.00     0.013 A 
ENDBRANCH   2   5
ENDBRANCH   1   2
BRANCH   1  11
ATOM     11  C   UNL d   1      52.338  34.057  53.618  0.00  0.00     0.232 C 
ATOM     12  S   UNL d   1      52.649  34.814  53.721  0.00  0.00    -0.036 SA
BRANCH  11  13
ATOM     13  N   UNL d   1      52.607  33.425  54.077  0.00  0.00    -0.217 NA
BRANCH  13  14
ATOM     14  C   UNL d   1      53.418  33.312  54.189  0.00  0.00     0.084 A 
ATOM     15  C   UNL d   1      53.856  32.899  53.629  0.00  0.00     0.019 A 
ATOM     16  C   UNL d   1      54.661  32.786  53.738  0.00  0.00     0.002 A 
ATOM     17  C   UNL d   1      55.035  33.084  54.407  0.00  0.00     0.000 A 
ATOM     18  C   UNL d   1      54.597  33.498  54.971  0.00  0.00     0.002 A 
ATOM     19  C   UNL d   1      53.787  33.614  54.865  0.00  0.00     0.019 A 
ENDBRANCH  13  14
ENDBRANCH  11  13
ENDBRANCH   1  11
TORSDOF 5
ENDMDL
MODEL 3
REMARK VINA RESULT:      -7.3      2.309      3.336
REMARK  5 active torsions:
REMARK  status: ('A' for Active; 'I' for Inactive)
REMARK    1  A    between atoms: N_2  and  S_1 
REMARK    2  A    between atoms: C_6  and  S_1 
REMARK    3  A    between atoms: C_3  and  N_2 
REMARK    4  A    between atoms: N_7  and  C_3 
REMARK    5  A    between atoms: C_9  and  N_7 
ROOT
ATOM      1  N   UNL d   1      53.171  32.515  53.817  0.00  0.00    -0.128 NA
ENDROOT
BRANCH   1   2
ATOM      2  S   UNL d   1      53.153  33.324  53.999  0.00  0.00     0.287 S 
ATOM      3  O   UNL d   1      53.962  33.396  53.803  0.00  0.00    -0.198 OA
ATOM      4  O   UNL d   1      52.349  33.273  54.197  0.00  0.00    -0.198 OA
BRANCH   2   5
ATOM      5  C   UNL d   1      53.136  34.139  54.182  0.00  0.00     0.105 A 
ATOM      6  C   UNL d   1      53.388  34.403  54.931  0.00  0.00     0.013 A 
ATOM      7  C   UNL d   1      53.371  35.206  55.112  0.00  0.00     0.001 A 
ATOM      8  C   UNL d   1      53.105  35.748  54.554  0.00  0.00     0.000 A 
ATOM      9  C   UNL d   1      52.853  35.490  53.807  0.00  0.00     0.001 A 
ATOM     10  C   UNL d   1      52.870  34.686  53.626  0.00  0.00     0.013 A 
ENDBRANCH   2   5
ENDBRANCH   1   2
BRANCH   1  11
ATOM     11  C   UNL d   1      53.093  31.899  53.256  0.00  0.00     0.232 C 
ATOM     12  S   UNL d   1      52.480  31.924  52.705  0.00  0.00    -0.036 SA
BRANCH  11  13
ATOM     13  N   UNL d   1      53.631  31.272  53.259  0.00  0.00    -0.217 NA
BRANCH  13  14
ATOM     14  C   UNL d   1      53.379  30.514  53.474  0.00  0.00     0.084 A 
ATOM     15  C   UNL d   1      53.656  30.171  54.168  0.00  0.00     0.019 A 
ATOM     16  C   UNL d   1      53.408  29.419  54.382  0.00  0.00     0.002 A 
ATOM     17  C   UNL d   1      52.882  29.004  53.906  0.00  0.00     0.000 A 
ATOM     18  C   UNL d   1      52.603  29.346  53.208  0.00  0.00     0.002 A 
ATOM     19  C   UNL d   1      52.850  30.102  52.989  0.00  0.00     0.019 A 
ENDBRANCH  13  14
ENDBRANCH  11  13
ENDBRANCH   1  11
TORSDOF 5
ENDMDL
MODEL 4
REMARK VINA RESULT:      -7.3      2.413      3.837
REMARK  5 active torsions:
REMARK  status: ('A' for Active; 'I' for Inactive)
REMARK    1  A    between atoms: N_2  and  S_1 
REMARK    2  A    between atoms: C_6  and  S_1 
REMARK    3  A    between atoms: C_3  and  N_2 
REMARK    4  A    between atoms: N_7  and  C_3 
REMARK    5  A    between atoms: C_9  and  N_7 
ROOT
ATOM      1  N   UNL d   1      53.736  32.259  53.716  0.00  0.00    -0.128 NA
ENDROOT
BRANCH   1   2
ATOM      2  S   UNL d   1      53.509  31.464  53.637  0.00  0.00     0.287 S 
ATOM      3  O   UNL d   1      53.287  31.597  52.843  0.00  0.00    -0.198 OA
ATOM      4  O   UNL d   1      53.724  31.314  54.424  0.00  0.00    -0.198 OA
BRANCH   2   5
ATOM      5  C   UNL d   1      53.280  30.665  53.557  0.00  0.00     0.105 A 
ATOM      6  C   UNL d   1      53.540  30.100  54.112  0.00  0.00     0.013 A 
ATOM      7  C   UNL d   1      53.314  29.312  54.033  0.00  0.00     0.001 A 
ATOM      8  C   UNL d   1      52.833  29.082  53.407  0.00  0.00     0.000 A 
ATOM      9  C   UNL d   1      52.572  29.640  52.852  0.00  0.00     0.001 A 
ATOM     10  C   UNL d   1      52.798  30.430  52.931  0.00  0.00     0.013 A 
ENDBRANCH   2   5
ENDBRANCH   1   2
BRANCH   1  11
ATOM     11  C   UNL d   1      53.842  32.935  54.197  0.00  0.00     0.232 C 
ATOM     12  S   UNL d   1      54.605  33.204  54.360  0.00  0.00    -0.036 SA
BRANCH  11  13
ATOM     13  N   UNL d   1      53.183  33.327  54.504  0.00  0.00    -0.217 NA
BRANCH  13  14
ATOM     14  C   UNL d   1      53.104  34.143  54.401  0.00  0.00     0.084 A 
ATOM     15  C   UNL d   1      52.776  34.441  53.708  0.00  0.00     0.019 A 
ATOM     16  C   UNL d   1      52.696  35.250  53.605  0.00  0.00     0.002 A 
ATOM     17  C   UNL d   1      52.943  35.770  54.192  0.00  0.00     0.000 A 
ATOM     18  C   UNL d   1      53.273  35.474  54.889  0.00  0.00     0.002 A 
ATOM     19  C   UNL d   1      53.354  34.660  54.997  0.00  0.00     0.019 A 
ENDBRANCH  13  14
ENDBRANCH  11  13
ENDBRANCH   1  11
TORSDOF 5
ENDMDL
MODEL 5
REMARK VINA RESULT:      -7.2      0.973      4.472
REMARK  5 active torsions:
REMARK  status: ('A' for Active; 'I' for Inactive)
REMARK    1  A    between atoms: N_2  and  S_1 
REMARK    2  A    between atoms: C_6  and  S_1 
REMARK    3  A    between atoms: C_3  and  N_2 
REMARK    4  A    between atoms: N_7  and  C_3 
REMARK    5  A    between atoms: C_9  and  N_7 
ROOT
ATOM      1  N   UNL d   1      51.943  34.170  53.430  0.00  0.00    -0.128 NA
ENDROOT
BRANCH   1   2
ATOM      2  S   UNL d   1      52.668  33.954  53.773  0.00  0.00     0.287 S 
ATOM      3  O   UNL d   1      52.947  34.738  53.703  0.00  0.00    -0.198 OA
ATOM      4  O   UNL d   1      52.408  33.170  53.852  0.00  0.00    -0.198 OA
BRANCH   2   5
ATOM      5  C   UNL d   1      53.396  33.736  54.118  0.00  0.00     0.105 A 
ATOM      6  C   UNL d   1      53.887  33.178  53.740  0.00  0.00     0.013 A 
ATOM      7  C   UNL d   1      54.605  32.964  54.081  0.00  0.00     0.001 A 
ATOM      8  C   UNL d   1      54.839  33.300  54.794  0.00  0.00     0.000 A 
ATOM      9  C   UNL d   1      54.355  33.856  55.174  0.00  0.00     0.001 A 
ATOM     10  C   UNL d   1      53.635  34.071  54.833  0.00  0.00     0.013 A 
ENDBRANCH   2   5
ENDBRANCH   1   2
BRANCH   1  11
ATOM     11  C   UNL d   1      51.386  34.093  52.811  0.00  0.00     0.232 C 
ATOM     12  S   UNL d   1      51.622  34.226  52.032  0.00  0.00    -0.036 SA
BRANCH  11  13
ATOM     13  N   UNL d   1      50.606  33.886  52.986  0.00  0.00    -0.217 NA
BRANCH  13  14
ATOM     14  C   UNL d   1      49.982  34.348  52.701  0.00  0.00     0.084 A 
ATOM     15  C   UNL d   1      49.626  34.903  53.192  0.00  0.00     0.019 A 
ATOM     16  C   UNL d   1      49.007  35.363  52.911  0.00  0.00     0.002 A 
ATOM     17  C   UNL d   1      48.739  35.272  52.140  0.00  0.00     0.000 A 
ATOM     18  C   UNL d   1      49.096  34.715  51.645  0.00  0.00     0.002 A 
ATOM     19  C   UNL d   1      49.718  34.251  51.923  0.00  0.00     0.019 A 
ENDBRANCH  13  14
ENDBRANCH  11  13
ENDBRANCH   1  11
TORSDOF 5
ENDMDL
