MODEL 1
REMARK VINA RESULT:      -1.6      0.000      0.000
REMARK  5 active torsions:
REMARK  status: ('A' for Active; 'I' for Inactive)
REMARK    1  A    between atoms: C_5  and  N_1 
REMARK    2  A    between atoms: C_8  and  C_3 
REMARK    3  A    between atoms: C_7  and  C_4 
REMARK    4  A    between atoms: N_12  and  C_5 
REMARK    5  A    between atoms: N_11  and  C_10 
ROOT
ATOM      1  N   UNL d   1      58.495  -0.564  30.056  0.00  0.00    -0.203 N 
ATOM      2  N   UNL d   1      58.882  -1.103  29.585  0.00  0.00    -0.163 NA
ATOM      3  C   UNL d   1      58.714  -1.847  29.833  0.00  0.00     0.103 A 
ATOM      4  C   UNL d   1      58.059  -0.982  30.632  0.00  0.00     0.087 A 
ATOM      5  C   UNL d   1      58.201  -1.790  30.488  0.00  0.00     0.040 A 
ENDROOT
BRANCH   4   6
ATOM      6  C   UNL d   1      57.579  -0.682  31.232  0.00  0.00     0.018 A 
ATOM      7  C   UNL d   1      56.828  -0.944  31.320  0.00  0.00     0.003 A 
ATOM      8  C   UNL d   1      56.344  -0.644  31.923  0.00  0.00     0.018 A 
ATOM      9  C   UNL d   1      56.648  -0.071  32.432  0.00  0.00     0.064 A 
ATOM     10  C   UNL d   1      57.413   0.201  32.349  0.00  0.00     0.018 A 
ATOM     11  C   UNL d   1      57.883  -0.109  31.741  0.00  0.00     0.003 A 
BRANCH   9  12
ATOM     12  N   UNL d   1      56.183   0.226  33.021  0.00  0.00    -0.301 N 
ATOM     13  C   UNL d   1      56.517   0.678  33.596  0.00  0.00     0.100 C 
ATOM     14  C   UNL d   1      55.386   0.064  33.025  0.00  0.00     0.100 C 
ENDBRANCH   9  12
ENDBRANCH   4   6
BRANCH   1  15
ATOM     15  C   UNL d   1      58.529   0.269  29.975  0.00  0.00     0.222 C 
ATOM     16  S   UNL d   1      57.848   0.679  29.717  0.00  0.00    -0.037 SA
BRANCH  15  17
ATOM     17  N   UNL d   1      59.237   0.682  30.151  0.00  0.00    -0.214 NA
ATOM     18  C   UNL d   1      59.898   0.635  29.640  0.00  0.00     0.122 C 
ENDBRANCH  15  17
ENDBRANCH   1  15
BRANCH   3  19
ATOM     19  C   UNL d   1      59.011  -2.524  29.485  0.00  0.00     0.019 A 
ATOM     20  C   UNL d   1      59.731  -2.827  29.755  0.00  0.00     0.002 A 
ATOM     21  C   UNL d   1      60.039  -3.500  29.418  0.00  0.00     0.000 A 
ATOM     22  C   UNL d   1      59.632  -3.879  28.807  0.00  0.00     0.000 A 
ATOM     23  C   UNL d   1      58.903  -3.571  28.534  0.00  0.00     0.000 A 
ATOM     24  C   UNL d   1      59.946  -4.562  28.466  0.00  0.00     0.000 C 
ATOM     25  C   UNL d   1      58.609  -2.889  28.888  0.00  0.00     0.002 A 
ENDBRANCH   3  19
TORSDOF 5
ENDMDL
MODEL 2
REMARK VINA RESULT:      -0.8      1.391      4.998
REMARK  5 active torsions:
REMARK  status: ('A' for Active; 'I' for Inactive)
REMARK    1  A    between atoms: C_5  and  N_1 
REMARK    2  A    between atoms: C_8  and  C_3 
REMARK    3  A    between atoms: C_7  and  C_4 
REMARK    4  A    between atoms: N_12  and  C_5 
REMARK    5  A    between atoms: N_11  and  C_10 
ROOT
ATOM      1  N   UNL d   1      57.846   0.397  32.437  0.00  0.00    -0.203 N 
ATOM      2  N   UNL d   1      57.315   0.584  33.025  0.00  0.00    -0.163 NA
ATOM      3  C   UNL d   1      56.587   0.314  32.823  0.00  0.00     0.103 A 
ATOM      4  C   UNL d   1      57.440  -0.010  31.833  0.00  0.00     0.087 A 
ATOM      5  C   UNL d   1      56.647  -0.060  32.081  0.00  0.00     0.040 A 
ENDROOT
BRANCH   4   6
ATOM      6  C   UNL d   1      57.738  -0.312  31.125  0.00  0.00     0.018 A 
ATOM      7  C   UNL d   1      57.912   0.177  30.517  0.00  0.00     0.003 A 
ATOM      8  C   UNL d   1      58.211  -0.124  29.804  0.00  0.00     0.018 A 
ATOM      9  C   UNL d   1      58.328  -0.938  29.732  0.00  0.00     0.064 A 
ATOM     10  C   UNL d   1      58.153  -1.443  30.349  0.00  0.00     0.018 A 
ATOM     11  C   UNL d   1      57.855  -1.125  31.053  0.00  0.00     0.003 A 
BRANCH   9  12
ATOM     12  N   UNL d   1      58.619  -1.239  29.042  0.00  0.00    -0.301 N 
ATOM     13  C   UNL d   1      59.057  -0.766  28.561  0.00  0.00     0.100 C 
ATOM     14  C   UNL d   1      58.467  -2.013  28.844  0.00  0.00     0.100 C 
ENDBRANCH   9  12
ENDBRANCH   4   6
BRANCH   1  15
ATOM     15  C   UNL d   1      58.663   0.583  32.440  0.00  0.00     0.222 C 
ATOM     16  S   UNL d   1      59.059   0.682  31.711  0.00  0.00    -0.037 SA
BRANCH  15  17
ATOM     17  N   UNL d   1      59.073   0.668  33.167  0.00  0.00    -0.214 NA
ATOM     18  C   UNL d   1      59.910   0.664  33.189  0.00  0.00     0.122 C 
ENDBRANCH  15  17
ENDBRANCH   1  15
BRANCH   3  19
ATOM     19  C   UNL d   1      55.920   0.406  33.287  0.00  0.00     0.019 A 
ATOM     20  C   UNL d   1      56.002   0.378  34.110  0.00  0.00     0.002 A 
ATOM     21  C   UNL d   1      55.348   0.468  34.585  0.00  0.00     0.000 A 
ATOM     22  C   UNL d   1      54.604   0.586  34.246  0.00  0.00     0.000 A 
ATOM     23  C   UNL d   1      54.523   0.614  33.412  0.00  0.00     0.000 A 
ATOM     24  C   UNL d   1      53.942   0.677  34.729  0.00  0.00     0.000 C 
ATOM     25  C   UNL d   1      55.197   0.521  32.950  0.00  0.00     0.002 A 
ENDBRANCH   3  19
TORSDOF 5
ENDMDL
MODEL 3
REMARK VINA RESULT:       1.4      2.527      3.674
REMARK  5 active torsions:
REMARK  status: ('A' for Active; 'I' for Inactive)
REMARK    1  A    between atoms: C_5  and  N_1 
REMARK    2  A    between atoms: C_8  and  C_3 
REMARK    3  A    between atoms: C_7  and  C_4 
REMARK    4  A    between atoms: N_12  and  C_5 
REMARK    5  A    between atoms: N_11  and  C_10 
ROOT
ATOM      1  N   UNL d   1      56.443  -0.963  32.296  0.00  0.00    -0.203 N 
ATOM      2  N   UNL d   1      56.883  -0.918  31.613  0.00  0.00    -0.163 NA
ATOM      3  C   UNL d   1      57.277  -0.219  31.593  0.00  0.00     0.103 A 
ATOM      4  C   UNL d   1      56.560  -0.262  32.732  0.00  0.00     0.087 A 
ATOM      5  C   UNL d   1      57.086   0.204  32.286  0.00  0.00     0.040 A 
ENDROOT
BRANCH   4   6
ATOM      6  C   UNL d   1      56.234  -0.048  33.459  0.00  0.00     0.018 A 
ATOM      7  C   UNL d   1      55.471   0.189  33.508  0.00  0.00     0.003 A 
ATOM      8  C   UNL d   1      55.141   0.404  34.238  0.00  0.00     0.018 A 
ATOM      9  C   UNL d   1      55.612   0.371  34.915  0.00  0.00     0.064 A 
ATOM     10  C   UNL d   1      56.390   0.130  34.873  0.00  0.00     0.018 A 
ATOM     11  C   UNL d   1      56.703  -0.081  34.136  0.00  0.00     0.003 A 
BRANCH   9  12
ATOM     12  N   UNL d   1      55.298   0.579  35.629  0.00  0.00    -0.301 N 
ATOM     13  C   UNL d   1      55.787   0.681  36.258  0.00  0.00     0.100 C 
ATOM     14  C   UNL d   1      54.494   0.681  35.701  0.00  0.00     0.100 C 
ENDBRANCH   9  12
ENDBRANCH   4   6
BRANCH   1  15
ATOM     15  C   UNL d   1      55.955  -1.606  32.520  0.00  0.00     0.222 C 
ATOM     16  S   UNL d   1      55.133  -1.562  32.374  0.00  0.00    -0.037 SA
BRANCH  15  17
ATOM     17  N   UNL d   1      56.290  -2.282  32.885  0.00  0.00    -0.214 NA
ATOM     18  C   UNL d   1      55.804  -2.907  33.156  0.00  0.00     0.122 C 
ENDBRANCH  15  17
ENDBRANCH   1  15
BRANCH   3  19
ATOM     19  C   UNL d   1      57.772   0.011  30.985  0.00  0.00     0.019 A 
ATOM     20  C   UNL d   1      57.579  -0.209  30.211  0.00  0.00     0.002 A 
ATOM     21  C   UNL d   1      58.063   0.012  29.596  0.00  0.00     0.000 A 
ATOM     22  C   UNL d   1      58.744   0.454  29.744  0.00  0.00     0.000 A 
ATOM     23  C   UNL d   1      58.939   0.676  30.529  0.00  0.00     0.000 A 
ATOM     24  C   UNL d   1      59.233   0.677  29.118  0.00  0.00     0.000 C 
ATOM     25  C   UNL d   1      58.437   0.442  31.137  0.00  0.00     0.002 A 
ENDBRANCH   3  19
TORSDOF 5
ENDMDL
