MODEL 1
REMARK VINA RESULT:      -2.4      0.000      0.000
REMARK  3 active torsions:
REMARK  status: ('A' for Active; 'I' for Inactive)
REMARK    1  A    between atoms: N_9  and  C_3 
REMARK    2  A    between atoms: C_12  and  C_4 
REMARK    3  A    between atoms: C_17  and  N_10 
ROOT
ATOM      1  N   UNL d   1      32.715  20.476 -22.231  0.00  0.00    -0.196 N 
ATOM      2  C   UNL d   1      32.776  21.283 -22.102  0.00  0.00     0.167 A 
ATOM      3  C   UNL d   1      32.827  20.165 -22.988  0.00  0.00     0.152 A 
ATOM      4  C   UNL d   1      32.638  21.426 -21.305  0.00  0.00     0.057 A 
ATOM      5  N   UNL d   1      32.539  20.115 -21.514  0.00  0.00    -0.161 NA
ATOM      6  N   UNL d   1      32.951  21.793 -22.728  0.00  0.00    -0.227 NA
ATOM      7  C   UNL d   1      33.003  20.675 -23.617  0.00  0.00     0.057 A 
ATOM      8  C   UNL d   1      32.493  20.710 -20.944  0.00  0.00     0.124 A 
ATOM      9  C   UNL d   1      33.064  21.483 -23.489  0.00  0.00     0.086 A 
ATOM     10  C   UNL d   1      33.241  21.991 -24.127  0.00  0.00     0.021 C 
ENDROOT
BRANCH   3  11
ATOM     11  N   UNL d   1      32.766  19.356 -23.117  0.00  0.00    -0.286 N 
ATOM     12  C   UNL d   1      33.241  18.828 -22.688  0.00  0.00     0.101 A 
ATOM     13  C   UNL d   1      33.179  18.016 -22.818  0.00  0.00     0.100 A 
ATOM     14  N   UNL d   1      32.643  17.727 -23.377  0.00  0.00    -0.301 N 
ATOM     15  C   UNL d   1      32.170  18.250 -23.804  0.00  0.00     0.100 A 
ATOM     16  C   UNL d   1      32.232  19.062 -23.674  0.00  0.00     0.101 A 
BRANCH  14  17
ATOM     17  C   UNL d   1      32.580  16.906 -23.508  0.00  0.00     0.064 A 
ATOM     18  C   UNL d   1      31.860  16.529 -23.400  0.00  0.00     0.018 A 
ATOM     19  C   UNL d   1      31.968  15.719 -23.570  0.00  0.00     0.002 A 
ATOM     20  C   UNL d   1      32.753  15.611 -23.781  0.00  0.00     0.002 A 
ATOM     21  C   UNL d   1      33.135  16.337 -23.744  0.00  0.00     0.018 A 
ENDBRANCH  14  17
ENDBRANCH   3  11
BRANCH   4  22
ATOM     22  C   UNL d   1      32.627  22.121 -20.860  0.00  0.00     0.004 A 
ATOM     23  C   UNL d   1      31.998  22.657 -20.946  0.00  0.00     0.000 A 
ATOM     24  C   UNL d   1      31.986  23.353 -20.501  0.00  0.00     0.000 A 
ATOM     25  C   UNL d   1      32.598  23.518 -19.972  0.00  0.00     0.000 A 
ATOM     26  C   UNL d   1      33.225  22.985 -19.886  0.00  0.00     0.000 A 
ATOM     27  C   UNL d   1      33.236  22.290 -20.330  0.00  0.00     0.000 A 
ENDBRANCH   4  22
TORSDOF 3
ENDMDL
MODEL 2
REMARK VINA RESULT:      -1.1      0.926      5.195
REMARK  3 active torsions:
REMARK  status: ('A' for Active; 'I' for Inactive)
REMARK    1  A    between atoms: N_9  and  C_3 
REMARK    2  A    between atoms: C_12  and  C_4 
REMARK    3  A    between atoms: C_17  and  N_10 
ROOT
ATOM      1  N   UNL d   1      32.854  19.934 -22.822  0.00  0.00    -0.196 N 
ATOM      2  C   UNL d   1      32.831  19.449 -23.483  0.00  0.00     0.167 A 
ATOM      3  C   UNL d   1      33.005  20.742 -22.903  0.00  0.00     0.152 A 
ATOM      4  C   UNL d   1      32.672  18.682 -23.233  0.00  0.00     0.057 A 
ATOM      5  N   UNL d   1      32.709  19.470 -22.159  0.00  0.00    -0.161 NA
ATOM      6  N   UNL d   1      32.959  19.764 -24.236  0.00  0.00    -0.227 NA
ATOM      7  C   UNL d   1      33.134  21.060 -23.658  0.00  0.00     0.057 A 
ATOM      8  C   UNL d   1      32.597  18.695 -22.422  0.00  0.00     0.124 A 
ATOM      9  C   UNL d   1      33.111  20.575 -24.319  0.00  0.00     0.086 A 
ATOM     10  C   UNL d   1      33.241  20.903 -25.076  0.00  0.00     0.021 C 
ENDROOT
BRANCH   3  11
ATOM     11  N   UNL d   1      33.028  21.227 -22.241  0.00  0.00    -0.286 N 
ATOM     12  C   UNL d   1      32.860  22.036 -22.311  0.00  0.00     0.101 A 
ATOM     13  C   UNL d   1      32.883  22.524 -21.646  0.00  0.00     0.100 A 
ATOM     14  N   UNL d   1      33.074  22.205 -20.908  0.00  0.00    -0.301 N 
ATOM     15  C   UNL d   1      33.241  21.402 -20.836  0.00  0.00     0.100 A 
ATOM     16  C   UNL d   1      33.218  20.914 -21.501  0.00  0.00     0.101 A 
BRANCH  14  17
ATOM     17  C   UNL d   1      33.097  22.698 -20.236  0.00  0.00     0.064 A 
ATOM     18  C   UNL d   1      33.020  22.371 -19.487  0.00  0.00     0.018 A 
ATOM     19  C   UNL d   1      33.064  22.993 -18.932  0.00  0.00     0.002 A 
ATOM     20  C   UNL d   1      33.168  23.691 -19.348  0.00  0.00     0.002 A 
ATOM     21  C   UNL d   1      33.189  23.517 -20.150  0.00  0.00     0.018 A 
ENDBRANCH  14  17
ENDBRANCH   3  11
BRANCH   4  22
ATOM     22  C   UNL d   1      32.585  17.973 -23.644  0.00  0.00     0.004 A 
ATOM     23  C   UNL d   1      33.241  17.473 -23.751  0.00  0.00     0.000 A 
ATOM     24  C   UNL d   1      33.155  16.763 -24.162  0.00  0.00     0.000 A 
ATOM     25  C   UNL d   1      32.418  16.546 -24.467  0.00  0.00     0.000 A 
ATOM     26  C   UNL d   1      31.765  17.042 -24.361  0.00  0.00     0.000 A 
ATOM     27  C   UNL d   1      31.852  17.752 -23.951  0.00  0.00     0.000 A 
ENDBRANCH   4  22
TORSDOF 3
ENDMDL
MODEL 3
REMARK VINA RESULT:      -0.4      2.448      5.627
REMARK  3 active torsions:
REMARK  status: ('A' for Active; 'I' for Inactive)
REMARK    1  A    between atoms: N_9  and  C_3 
REMARK    2  A    between atoms: C_12  and  C_4 
REMARK    3  A    between atoms: C_17  and  N_10 
ROOT
ATOM      1  N   UNL d   1      32.849  22.553 -21.126  0.00  0.00    -0.196 N 
ATOM      2  C   UNL d   1      32.839  22.303 -21.906  0.00  0.00     0.167 A 
ATOM      3  C   UNL d   1      32.910  22.004 -20.512  0.00  0.00     0.152 A 
ATOM      4  C   UNL d   1      32.775  22.966 -22.387  0.00  0.00     0.057 A 
ATOM      5  N   UNL d   1      32.790  23.373 -21.119  0.00  0.00    -0.161 NA
ATOM      6  N   UNL d   1      32.891  21.498 -22.087  0.00  0.00    -0.227 NA
ATOM      7  C   UNL d   1      32.962  21.196 -20.691  0.00  0.00     0.057 A 
ATOM      8  C   UNL d   1      32.745  23.622 -21.905  0.00  0.00     0.124 A 
ATOM      9  C   UNL d   1      32.952  20.945 -21.472  0.00  0.00     0.086 A 
ATOM     10  C   UNL d   1      33.004  20.130 -21.644  0.00  0.00     0.021 C 
ENDROOT
BRANCH   3  11
ATOM     11  N   UNL d   1      32.919  22.255 -19.730  0.00  0.00    -0.286 N 
ATOM     12  C   UNL d   1      32.616  23.000 -19.528  0.00  0.00     0.101 A 
ATOM     13  C   UNL d   1      32.626  23.252 -18.742  0.00  0.00     0.100 A 
ATOM     14  N   UNL d   1      32.939  22.760 -18.155  0.00  0.00    -0.301 N 
ATOM     15  C   UNL d   1      33.240  22.020 -18.354  0.00  0.00     0.100 A 
ATOM     16  C   UNL d   1      33.231  21.768 -19.140  0.00  0.00     0.101 A 
BRANCH  14  17
ATOM     17  C   UNL d   1      32.948  23.015 -17.361  0.00  0.00     0.064 A 
ATOM     18  C   UNL d   1      32.622  22.541 -16.777  0.00  0.00     0.018 A 
ATOM     19  C   UNL d   1      32.713  22.938 -16.048  0.00  0.00     0.002 A 
ATOM     20  C   UNL d   1      33.093  23.648 -16.196  0.00  0.00     0.002 A 
ATOM     21  C   UNL d   1      33.241  23.702 -17.002  0.00  0.00     0.018 A 
ENDBRANCH  14  17
ENDBRANCH   3  11
BRANCH   4  22
ATOM     22  C   UNL d   1      32.739  23.055 -23.206  0.00  0.00     0.004 A 
ATOM     23  C   UNL d   1      32.206  23.597 -23.542  0.00  0.00     0.000 A 
ATOM     24  C   UNL d   1      32.170  23.686 -24.362  0.00  0.00     0.000 A 
ATOM     25  C   UNL d   1      32.663  23.238 -24.850  0.00  0.00     0.000 A 
ATOM     26  C   UNL d   1      33.195  22.699 -24.518  0.00  0.00     0.000 A 
ATOM     27  C   UNL d   1      33.230  22.610 -23.699  0.00  0.00     0.000 A 
ENDBRANCH   4  22
TORSDOF 3
ENDMDL
