MODEL 1
REMARK VINA RESULT:      -3.0      0.000      0.000
REMARK  4 active torsions:
REMARK  status: ('A' for Active; 'I' for Inactive)
REMARK    1  A    between atoms: C_11  and  C_3 
REMARK    2  A    between atoms: N_10  and  C_4 
REMARK    3  A    between atoms: C_12  and  N_10 
REMARK    4  A    between atoms: C_13  and  C_12 
ROOT
ATOM      1  C   UNL d   1      32.916  21.309 -21.925  0.00  0.00     0.167 A 
ATOM      2  N   UNL d   1      32.997  20.514 -22.126  0.00  0.00    -0.195 N 
ATOM      3  C   UNL d   1      32.759  21.351 -21.123  0.00  0.00     0.057 A 
ATOM      4  C   UNL d   1      33.158  20.300 -22.903  0.00  0.00     0.167 A 
ATOM      5  N   UNL d   1      32.891  20.072 -21.445  0.00  0.00    -0.161 NA
ATOM      6  N   UNL d   1      32.995  21.890 -22.502  0.00  0.00    -0.227 NA
ATOM      7  C   UNL d   1      33.238  20.886 -23.483  0.00  0.00     0.058 A 
ATOM      8  C   UNL d   1      32.745  20.579 -20.831  0.00  0.00     0.124 A 
ATOM      9  C   UNL d   1      33.157  21.673 -23.285  0.00  0.00     0.086 A 
ATOM     10  C   UNL d   1      33.240  22.240 -23.879  0.00  0.00     0.021 C 
ENDROOT
BRANCH   4  11
ATOM     11  N   UNL d   1      33.240  19.505 -23.104  0.00  0.00    -0.225 NA
BRANCH  11  12
ATOM     12  C   UNL d   1      32.904  19.220 -23.798  0.00  0.00     0.101 C 
BRANCH  12  13
ATOM     13  C   UNL d   1      32.675  18.421 -23.852  0.00  0.00     0.019 A 
ATOM     14  C   UNL d   1      31.899  18.223 -24.065  0.00  0.00     0.002 A 
ATOM     15  C   UNL d   1      31.673  17.438 -24.118  0.00  0.00     0.000 A 
ATOM     16  C   UNL d   1      32.219  16.835 -23.960  0.00  0.00     0.000 A 
ATOM     17  C   UNL d   1      32.992  17.034 -23.748  0.00  0.00     0.000 A 
ATOM     18  C   UNL d   1      33.220  17.828 -23.694  0.00  0.00     0.002 A 
ENDBRANCH  12  13
ENDBRANCH  11  12
ENDBRANCH   4  11
BRANCH   3  19
ATOM     19  C   UNL d   1      32.648  22.081 -20.751  0.00  0.00     0.004 A 
ATOM     20  C   UNL d   1      31.943  22.495 -20.876  0.00  0.00     0.000 A 
ATOM     21  C   UNL d   1      31.826  23.221 -20.511  0.00  0.00     0.000 A 
ATOM     22  C   UNL d   1      32.414  23.540 -20.016  0.00  0.00     0.000 A 
ATOM     23  C   UNL d   1      33.114  23.120 -19.898  0.00  0.00     0.000 A 
ATOM     24  C   UNL d   1      33.229  22.390 -20.266  0.00  0.00     0.000 A 
ENDBRANCH   3  19
TORSDOF 4
ENDMDL
MODEL 2
REMARK VINA RESULT:      -2.2      0.815      4.829
REMARK  4 active torsions:
REMARK  status: ('A' for Active; 'I' for Inactive)
REMARK    1  A    between atoms: C_11  and  C_3 
REMARK    2  A    between atoms: N_10  and  C_4 
REMARK    3  A    between atoms: C_12  and  N_10 
REMARK    4  A    between atoms: C_13  and  C_12 
ROOT
ATOM      1  C   UNL d   1      32.880  19.235 -23.494  0.00  0.00     0.167 A 
ATOM      2  N   UNL d   1      32.970  19.721 -22.835  0.00  0.00    -0.195 N 
ATOM      3  C   UNL d   1      32.713  18.479 -23.229  0.00  0.00     0.057 A 
ATOM      4  C   UNL d   1      33.142  20.519 -22.932  0.00  0.00     0.167 A 
ATOM      5  N   UNL d   1      32.858  19.260 -22.168  0.00  0.00    -0.161 NA
ATOM      6  N   UNL d   1      32.962  19.548 -24.251  0.00  0.00    -0.227 NA
ATOM      7  C   UNL d   1      33.224  20.833 -23.694  0.00  0.00     0.058 A 
ATOM      8  C   UNL d   1      32.701  18.501 -22.404  0.00  0.00     0.124 A 
ATOM      9  C   UNL d   1      33.135  20.352 -24.347  0.00  0.00     0.086 A 
ATOM     10  C   UNL d   1      33.222  20.687 -25.097  0.00  0.00     0.021 C 
ENDROOT
BRANCH   4  11
ATOM     11  N   UNL d   1      33.231  21.005 -22.272  0.00  0.00    -0.225 NA
BRANCH  11  12
ATOM     12  C   UNL d   1      33.082  21.811 -22.332  0.00  0.00     0.101 C 
BRANCH  12  13
ATOM     13  C   UNL d   1      32.827  22.238 -21.663  0.00  0.00     0.019 A 
ATOM     14  C   UNL d   1      32.599  23.031 -21.737  0.00  0.00     0.002 A 
ATOM     15  C   UNL d   1      32.349  23.451 -21.080  0.00  0.00     0.000 A 
ATOM     16  C   UNL d   1      32.321  23.085 -20.337  0.00  0.00     0.000 A 
ATOM     17  C   UNL d   1      32.548  22.295 -20.266  0.00  0.00     0.000 A 
ATOM     18  C   UNL d   1      32.801  21.871 -20.930  0.00  0.00     0.002 A 
ENDBRANCH  12  13
ENDBRANCH  11  12
ENDBRANCH   4  11
BRANCH   3  19
ATOM     19  C   UNL d   1      32.593  17.861 -23.764  0.00  0.00     0.004 A 
ATOM     20  C   UNL d   1      33.185  17.292 -23.865  0.00  0.00     0.000 A 
ATOM     21  C   UNL d   1      33.073  16.675 -24.394  0.00  0.00     0.000 A 
ATOM     22  C   UNL d   1      32.365  16.620 -24.828  0.00  0.00     0.000 A 
ATOM     23  C   UNL d   1      31.780  17.191 -24.721  0.00  0.00     0.000 A 
ATOM     24  C   UNL d   1      31.896  17.811 -24.188  0.00  0.00     0.000 A 
ENDBRANCH   3  19
TORSDOF 4
ENDMDL
MODEL 3
REMARK VINA RESULT:      -2.1      2.775      5.849
REMARK  4 active torsions:
REMARK  status: ('A' for Active; 'I' for Inactive)
REMARK    1  A    between atoms: C_11  and  C_3 
REMARK    2  A    between atoms: N_10  and  C_4 
REMARK    3  A    between atoms: C_12  and  N_10 
REMARK    4  A    between atoms: C_13  and  C_12 
ROOT
ATOM      1  C   UNL d   1      30.235  16.871 -24.235  0.00  0.00     0.167 A 
ATOM      2  N   UNL d   1      30.713  17.483 -24.511  0.00  0.00    -0.195 N 
ATOM      3  C   UNL d   1      29.455  17.088 -24.358  0.00  0.00     0.057 A 
ATOM      4  C   UNL d   1      31.531  17.422 -24.460  0.00  0.00     0.167 A 
ATOM      5  N   UNL d   1      30.224  18.072 -24.801  0.00  0.00    -0.161 NA
ATOM      6  N   UNL d   1      30.575  16.198 -23.909  0.00  0.00    -0.227 NA
ATOM      7  C   UNL d   1      31.872  16.742 -24.131  0.00  0.00     0.058 A 
ATOM      8  C   UNL d   1      29.455  17.834 -24.710  0.00  0.00     0.124 A 
ATOM      9  C   UNL d   1      31.400  16.137 -23.858  0.00  0.00     0.086 A 
ATOM     10  C   UNL d   1      31.762  15.469 -23.534  0.00  0.00     0.021 C 
ENDROOT
BRANCH   4  11
ATOM     11  N   UNL d   1      32.010  18.034 -24.735  0.00  0.00    -0.225 NA
BRANCH  11  12
ATOM     12  C   UNL d   1      32.672  18.263 -24.306  0.00  0.00     0.101 C 
BRANCH  12  13
ATOM     13  C   UNL d   1      32.863  19.070 -24.234  0.00  0.00     0.019 A 
ATOM     14  C   UNL d   1      32.952  19.540 -24.910  0.00  0.00     0.002 A 
ATOM     15  C   UNL d   1      33.139  20.334 -24.839  0.00  0.00     0.000 A 
ATOM     16  C   UNL d   1      33.241  20.673 -24.090  0.00  0.00     0.000 A 
ATOM     17  C   UNL d   1      33.152  20.204 -23.417  0.00  0.00     0.000 A 
ATOM     18  C   UNL d   1      32.962  19.401 -23.489  0.00  0.00     0.002 A 
ENDBRANCH  12  13
ENDBRANCH  11  12
ENDBRANCH   4  11
BRANCH   3  19
ATOM     19  C   UNL d   1      28.837  16.584 -24.137  0.00  0.00     0.004 A 
ATOM     20  C   UNL d   1      28.629  15.957 -24.636  0.00  0.00     0.000 A 
ATOM     21  C   UNL d   1      28.017  15.453 -24.423  0.00  0.00     0.000 A 
ATOM     22  C   UNL d   1      27.607  15.571 -23.709  0.00  0.00     0.000 A 
ATOM     23  C   UNL d   1      27.821  16.199 -23.219  0.00  0.00     0.000 A 
ATOM     24  C   UNL d   1      28.437  16.704 -23.436  0.00  0.00     0.000 A 
ENDBRANCH   3  19
TORSDOF 4
ENDMDL
MODEL 4
REMARK VINA RESULT:      -1.3      2.053      5.191
REMARK  4 active torsions:
REMARK  status: ('A' for Active; 'I' for Inactive)
REMARK    1  A    between atoms: C_11  and  C_3 
REMARK    2  A    between atoms: N_10  and  C_4 
REMARK    3  A    between atoms: C_12  and  N_10 
REMARK    4  A    between atoms: C_13  and  C_12 
ROOT
ATOM      1  C   UNL d   1      32.325  18.370 -23.877  0.00  0.00     0.167 A 
ATOM      2  N   UNL d   1      32.373  19.124 -24.206  0.00  0.00    -0.195 N 
ATOM      3  C   UNL d   1      31.973  17.878 -24.428  0.00  0.00     0.057 A 
ATOM      4  C   UNL d   1      32.706  19.741 -23.775  0.00  0.00     0.167 A 
ATOM      5  N   UNL d   1      32.049  19.090 -24.956  0.00  0.00    -0.161 NA
ATOM      6  N   UNL d   1      32.611  18.232 -23.118  0.00  0.00    -0.227 NA
ATOM      7  C   UNL d   1      32.992  19.600 -23.011  0.00  0.00     0.058 A 
ATOM      8  C   UNL d   1      31.804  18.332 -25.096  0.00  0.00     0.124 A 
ATOM      9  C   UNL d   1      32.946  18.854 -22.686  0.00  0.00     0.086 A 
ATOM     10  C   UNL d   1      33.238  18.738 -21.922  0.00  0.00     0.021 C 
ENDROOT
BRANCH   4  11
ATOM     11  N   UNL d   1      32.753  20.495 -24.104  0.00  0.00    -0.225 NA
BRANCH  11  12
ATOM     12  C   UNL d   1      33.128  21.100 -23.692  0.00  0.00     0.101 C 
BRANCH  12  13
ATOM     13  C   UNL d   1      33.113  21.878 -23.990  0.00  0.00     0.019 A 
ATOM     14  C   UNL d   1      33.206  22.522 -23.477  0.00  0.00     0.002 A 
ATOM     15  C   UNL d   1      33.191  23.287 -23.770  0.00  0.00     0.000 A 
ATOM     16  C   UNL d   1      33.083  23.421 -24.580  0.00  0.00     0.000 A 
ATOM     17  C   UNL d   1      32.991  22.778 -25.089  0.00  0.00     0.000 A 
ATOM     18  C   UNL d   1      33.006  22.005 -24.793  0.00  0.00     0.002 A 
ENDBRANCH  12  13
ENDBRANCH  11  12
ENDBRANCH   4  11
BRANCH   3  19
ATOM     19  C   UNL d   1      31.847  17.078 -24.261  0.00  0.00     0.004 A 
ATOM     20  C   UNL d   1      31.231  16.864 -23.751  0.00  0.00     0.000 A 
ATOM     21  C   UNL d   1      31.099  16.072 -23.580  0.00  0.00     0.000 A 
ATOM     22  C   UNL d   1      31.584  15.485 -23.918  0.00  0.00     0.000 A 
ATOM     23  C   UNL d   1      32.195  15.708 -24.424  0.00  0.00     0.000 A 
ATOM     24  C   UNL d   1      32.325  16.506 -24.594  0.00  0.00     0.000 A 
ENDBRANCH   3  19
TORSDOF 4
ENDMDL
