MODEL 1
REMARK VINA RESULT:      79.9      0.000      0.000
REMARK  5 active torsions:
REMARK  status: ('A' for Active; 'I' for Inactive)
REMARK    1  A    between atoms: N_5  and  S_1 
REMARK    2  A    between atoms: C_7  and  S_1 
REMARK       I    between atoms: C_4  and  N_2 
REMARK    3  A    between atoms: C_3  and  N_11 
REMARK    4  A    between atoms: C_6  and  C_4 
REMARK    5  A    between atoms: N_11  and  C_19 
ROOT
ATOM      1  C   UNL d   1     -55.568-101.967 -40.714  0.00  0.00     0.104 A 
ATOM      2  C   UNL d   1     -55.027-101.364 -40.928  0.00  0.00     0.014 A 
ATOM      3  C   UNL d   1     -56.021-102.352 -41.317  0.00  0.00     0.014 A 
ATOM      4  C   UNL d   1     -55.395-101.538 -42.319  0.00  0.00     0.084 A 
ATOM      5  C   UNL d   1     -54.940-101.148 -41.736  0.00  0.00     0.020 A 
ATOM      6  C   UNL d   1     -55.936-102.140 -42.109  0.00  0.00     0.020 A 
ENDROOT
BRANCH   4   7
ATOM      7  N   UNL d   1     -55.309-101.323 -43.121  0.00  0.00    -0.217 NA
BRANCH   7   8
ATOM      8  C   UNL d   1     -55.027-100.622 -43.302  0.00  0.00     0.224 C 
ATOM      9  N   UNL d   1     -54.755-100.353 -44.577  0.00  0.00    -0.178 NA
ATOM     10  C   UNL d   1     -54.875-100.886 -45.135  0.00  0.00     0.287 C 
ATOM     11  O   UNL d   1     -54.713-100.725 -45.892  0.00  0.00    -0.265 OA
ATOM     12  S   UNL d   1     -54.901-100.072 -42.745  0.00  0.00    -0.037 SA
BRANCH  10  13
ATOM     13  C   UNL d   1     -55.164-101.601 -44.935  0.00  0.00     0.087 A 
ATOM     14  S   UNL d   1     -54.762-102.268 -44.876  0.00  0.00    -0.082 SA
ATOM     15  C   UNL d   1     -55.273-102.837 -44.663  0.00  0.00     0.036 A 
ATOM     16  C   UNL d   1     -55.965-102.522 -44.596  0.00  0.00     0.008 A 
ATOM     17  C   UNL d   1     -55.914-101.758 -44.762  0.00  0.00     0.012 A 
ENDBRANCH  10  13
ENDBRANCH   7   8
ENDBRANCH   4   7
BRANCH   1  18
ATOM     18  S   UNL d   1     -55.655-102.184 -39.904  0.00  0.00     0.271 S 
ATOM     19  O   UNL d   1     -56.088-102.844 -40.128  0.00  0.00    -0.200 OA
ATOM     20  O   UNL d   1     -55.211-101.506 -39.675  0.00  0.00    -0.200 OA
BRANCH  18  21
ATOM     21  N   UNL d   1     -55.740-102.395 -39.116  0.00  0.00    -0.229 N 
ATOM     22  C   UNL d   1     -56.528-102.508 -38.786  0.00  0.00     0.092 A 
ATOM     23  C   UNL d   1     -56.613-102.720 -37.994  0.00  0.00     0.020 A 
ATOM     24  C   UNL d   1     -55.913-102.824 -37.513  0.00  0.00     0.003 A 
ATOM     25  C   UNL d   1     -55.167-102.713 -37.836  0.00  0.00     0.020 A 
ATOM     26  C   UNL d   1     -55.080-102.498 -38.639  0.00  0.00     0.092 A 
ENDBRANCH  18  21
ENDBRANCH   1  18
TORSDOF 5
ENDMDL
