MODEL 1
REMARK VINA RESULT:      13.5      0.000      0.000
REMARK  1 active torsions:
REMARK  status: ('A' for Active; 'I' for Inactive)
REMARK       I    between atoms: C_8  and  N_9 
REMARK    1  A    between atoms: N_9  and  C_10 
ROOT
ATOM      1  C   UNL d   1     -54.732-102.534 -37.862  0.00  0.00     0.102 A 
ATOM      2  O   UNL d   1     -54.729-102.876 -37.109  0.00  0.00    -0.307 OA
ATOM      3  C   UNL d   1     -54.733-101.715 -37.783  0.00  0.00     0.025 A 
ATOM      4  C   UNL d   1     -54.731-101.545 -36.972  0.00  0.00     0.025 A 
ATOM      5  C   UNL d   1     -54.728-102.256 -36.561  0.00  0.00     0.100 A 
ATOM      6  C   UNL d   1     -54.734-102.874 -38.611  0.00  0.00     0.044 A 
ATOM      7  C   UNL d   1     -54.736-101.234 -38.447  0.00  0.00     0.004 A 
ATOM      8  C   UNL d   1     -54.737-102.398 -39.282  0.00  0.00     0.087 A 
ATOM      9  C   UNL d   1     -54.738-101.572 -39.199  0.00  0.00     0.019 A 
ATOM     10  C   UNL d   1     -54.731-100.824 -36.557  0.00  0.00     0.002 A 
ATOM     11  C   UNL d   1     -54.725-102.257 -35.735  0.00  0.00     0.025 A 
ATOM     12  C   UNL d   1     -54.728-100.827 -35.736  0.00  0.00     0.000 A 
ATOM     13  C   UNL d   1     -54.725-101.545 -35.323  0.00  0.00     0.002 A 
ENDROOT
BRANCH   8  14
ATOM     14  N   UNL d   1     -54.739-102.737 -40.034  0.00  0.00    -0.208 NA
ATOM     15  C   UNL d   1     -54.730-102.255 -40.705  0.00  0.00     0.279 C 
ATOM     16  O   UNL d   1     -54.719-101.433 -40.618  0.00  0.00    -0.265 OA
ATOM     17  C   UNL d   1     -54.732-102.593 -41.461  0.00  0.00     0.068 C 
ENDBRANCH   8  14
TORSDOF 1
ENDMDL
