MODEL 1
REMARK VINA RESULT:      -6.5      0.000      0.000
REMARK  6 active torsions:
REMARK  status: ('A' for Active; 'I' for Inactive)
REMARK    1  A    between atoms: C_2  and  C_1 
REMARK       I    between atoms: N_5  and  C_2 
REMARK    2  A    between atoms: C_13  and  N_5 
REMARK    3  A    between atoms: C_14  and  C_6 
REMARK       I    between atoms: C_8  and  N_9 
REMARK    4  A    between atoms: N_9  and  C_15 
REMARK    5  A    between atoms: S_11  and  C_14 
REMARK    6  A    between atoms: C_16  and  S_11 
ROOT
ATOM      1  C   UNL d   1     -49.888  14.747  22.268  0.00  0.00     0.158 A 
ATOM      2  O   UNL d   1     -49.185  14.546  21.887  0.00  0.00    -0.302 OA
ATOM      3  C   UNL d   1     -49.688  15.051  23.012  0.00  0.00     0.032 A 
ATOM      4  C   UNL d   1     -48.560  14.722  22.383  0.00  0.00     0.107 A 
ATOM      5  C   UNL d   1     -48.866  15.036  23.083  0.00  0.00     0.027 A 
ENDROOT
BRANCH   1   6
ATOM      6  C   UNL d   1     -50.654  14.664  21.970  0.00  0.00     0.302 C 
ATOM      7  N   UNL d   1     -51.064  13.957  22.069  0.00  0.00    -0.206 NA
ATOM      8  O   UNL d   1     -51.003  15.293  21.575  0.00  0.00    -0.263 OA
BRANCH   7   9
ATOM      9  C   UNL d   1     -50.699  13.327  22.472  0.00  0.00     0.085 A 
ATOM     10  C   UNL d   1     -50.747  13.275  23.294  0.00  0.00     0.021 A 
ATOM     11  C   UNL d   1     -50.380  12.645  23.681  0.00  0.00     0.021 A 
ATOM     12  C   UNL d   1     -49.971  12.075  23.249  0.00  0.00     0.085 A 
ATOM     13  C   UNL d   1     -49.927  12.134  22.424  0.00  0.00     0.021 A 
ATOM     14  C   UNL d   1     -50.290  12.759  22.031  0.00  0.00     0.021 A 
BRANCH  12  15
ATOM     15  N   UNL d   1     -49.603  11.443  23.641  0.00  0.00    -0.208 NA
ATOM     16  C   UNL d   1     -48.933  11.094  23.309  0.00  0.00     0.279 C 
ATOM     17  O   UNL d   1     -48.627  11.366  22.597  0.00  0.00    -0.265 OA
ATOM     18  C   UNL d   1     -48.570  10.468  23.698  0.00  0.00     0.068 C 
ENDBRANCH  12  15
ENDBRANCH   7   9
ENDBRANCH   1   6
BRANCH   4  19
ATOM     19  C   UNL d   1     -47.758  14.609  22.222  0.00  0.00     0.060 C 
BRANCH  19  20
ATOM     20  S   UNL d   1     -47.227  14.501  22.841  0.00  0.00    -0.084 SA
BRANCH  20  21
ATOM     21  C   UNL d   1     -46.602  13.973  22.768  0.00  0.00     0.029 A 
ATOM     22  C   UNL d   1     -46.433  13.462  23.393  0.00  0.00     0.006 A 
ATOM     23  C   UNL d   1     -45.809  12.934  23.320  0.00  0.00     0.001 A 
ATOM     24  C   UNL d   1     -45.356  12.914  22.633  0.00  0.00     0.000 A 
ATOM     25  C   UNL d   1     -45.528  13.428  22.007  0.00  0.00     0.001 A 
ATOM     26  C   UNL d   1     -46.152  13.956  22.081  0.00  0.00     0.006 A 
ENDBRANCH  20  21
ENDBRANCH  19  20
ENDBRANCH   4  19
TORSDOF 6
ENDMDL
MODEL 2
REMARK VINA RESULT:      -5.3      1.752      2.677
REMARK  6 active torsions:
REMARK  status: ('A' for Active; 'I' for Inactive)
REMARK    1  A    between atoms: C_2  and  C_1 
REMARK       I    between atoms: N_5  and  C_2 
REMARK    2  A    between atoms: C_13  and  N_5 
REMARK    3  A    between atoms: C_14  and  C_6 
REMARK       I    between atoms: C_8  and  N_9 
REMARK    4  A    between atoms: N_9  and  C_15 
REMARK    5  A    between atoms: S_11  and  C_14 
REMARK    6  A    between atoms: C_16  and  S_11 
ROOT
ATOM      1  C   UNL d   1     -47.206  14.420  22.500  0.00  0.00     0.158 A 
ATOM      2  O   UNL d   1     -46.892  13.900  23.057  0.00  0.00    -0.302 OA
ATOM      3  C   UNL d   1     -47.265  14.008  21.784  0.00  0.00     0.032 A 
ATOM      4  C   UNL d   1     -46.757  13.180  22.696  0.00  0.00     0.107 A 
ATOM      5  C   UNL d   1     -46.987  13.241  21.905  0.00  0.00     0.027 A 
ENDROOT
BRANCH   1   6
ATOM      6  C   UNL d   1     -47.425  15.206  22.624  0.00  0.00     0.302 C 
ATOM      7  N   UNL d   1     -48.205  15.398  22.803  0.00  0.00    -0.206 NA
ATOM      8  O   UNL d   1     -46.857  15.796  22.567  0.00  0.00    -0.263 OA
BRANCH   7   9
ATOM      9  C   UNL d   1     -48.772  14.791  22.858  0.00  0.00     0.085 A 
ATOM     10  C   UNL d   1     -48.903  14.406  23.577  0.00  0.00     0.021 A 
ATOM     11  C   UNL d   1     -49.467  13.806  23.617  0.00  0.00     0.021 A 
ATOM     12  C   UNL d   1     -49.894  13.593  22.945  0.00  0.00     0.085 A 
ATOM     13  C   UNL d   1     -49.757  13.983  22.227  0.00  0.00     0.021 A 
ATOM     14  C   UNL d   1     -49.196  14.583  22.179  0.00  0.00     0.021 A 
BRANCH  12  15
ATOM     15  N   UNL d   1     -50.461  12.989  22.988  0.00  0.00    -0.208 NA
ATOM     16  C   UNL d   1     -50.271  12.279  23.364  0.00  0.00     0.279 C 
ATOM     17  O   UNL d   1     -49.528  12.165  23.695  0.00  0.00    -0.265 OA
ATOM     18  C   UNL d   1     -50.834  11.682  23.406  0.00  0.00     0.068 C 
ENDBRANCH  12  15
ENDBRANCH   7   9
ENDBRANCH   1   6
BRANCH   4  19
ATOM     19  C   UNL d   1     -46.446  12.502  23.051  0.00  0.00     0.060 C 
BRANCH  19  20
ATOM     20  S   UNL d   1     -45.664  12.289  22.912  0.00  0.00    -0.084 SA
BRANCH  20  21
ATOM     21  C   UNL d   1     -45.379  11.560  23.159  0.00  0.00     0.029 A 
ATOM     22  C   UNL d   1     -44.569  11.408  23.113  0.00  0.00     0.006 A 
ATOM     23  C   UNL d   1     -44.285  10.680  23.360  0.00  0.00     0.001 A 
ATOM     24  C   UNL d   1     -44.798  10.106  23.651  0.00  0.00     0.000 A 
ATOM     25  C   UNL d   1     -45.610  10.261  23.697  0.00  0.00     0.001 A 
ATOM     26  C   UNL d   1     -45.895  10.990  23.450  0.00  0.00     0.006 A 
ENDBRANCH  20  21
ENDBRANCH  19  20
ENDBRANCH   4  19
TORSDOF 6
ENDMDL
MODEL 3
REMARK VINA RESULT:      -5.0      1.091      1.597
REMARK  6 active torsions:
REMARK  status: ('A' for Active; 'I' for Inactive)
REMARK    1  A    between atoms: C_2  and  C_1 
REMARK       I    between atoms: N_5  and  C_2 
REMARK    2  A    between atoms: C_13  and  N_5 
REMARK    3  A    between atoms: C_14  and  C_6 
REMARK       I    between atoms: C_8  and  N_9 
REMARK    4  A    between atoms: N_9  and  C_15 
REMARK    5  A    between atoms: S_11  and  C_14 
REMARK    6  A    between atoms: C_16  and  S_11 
ROOT
ATOM      1  C   UNL d   1     -48.428  14.852  22.197  0.00  0.00     0.158 A 
ATOM      2  O   UNL d   1     -47.963  14.231  21.919  0.00  0.00    -0.302 OA
ATOM      3  C   UNL d   1     -48.170  15.030  22.964  0.00  0.00     0.032 A 
ATOM      4  C   UNL d   1     -47.426  14.027  22.501  0.00  0.00     0.107 A 
ATOM      5  C   UNL d   1     -47.550  14.520  23.152  0.00  0.00     0.027 A 
ENDROOT
BRANCH   1   6
ATOM      6  C   UNL d   1     -49.040  15.231  21.793  0.00  0.00     0.302 C 
ATOM      7  N   UNL d   1     -49.803  14.922  21.806  0.00  0.00    -0.206 NA
ATOM      8  O   UNL d   1     -48.881  15.922  21.378  0.00  0.00    -0.263 OA
BRANCH   7   9
ATOM      9  C   UNL d   1     -49.951  14.222  22.231  0.00  0.00     0.085 A 
ATOM     10  C   UNL d   1     -49.918  13.489  21.851  0.00  0.00     0.021 A 
ATOM     11  C   UNL d   1     -50.067  12.803  22.284  0.00  0.00     0.021 A 
ATOM     12  C   UNL d   1     -50.246  12.850  23.087  0.00  0.00     0.085 A 
ATOM     13  C   UNL d   1     -50.277  13.588  23.461  0.00  0.00     0.021 A 
ATOM     14  C   UNL d   1     -50.130  14.277  23.036  0.00  0.00     0.021 A 
BRANCH  12  15
ATOM     15  N   UNL d   1     -50.395  12.158  23.520  0.00  0.00    -0.208 NA
ATOM     16  C   UNL d   1     -50.072  11.442  23.266  0.00  0.00     0.279 C 
ATOM     17  O   UNL d   1     -49.606  11.408  22.591  0.00  0.00    -0.265 OA
ATOM     18  C   UNL d   1     -50.220  10.758  23.696  0.00  0.00     0.068 C 
ENDBRANCH  12  15
ENDBRANCH   7   9
ENDBRANCH   1   6
BRANCH   4  19
ATOM     19  C   UNL d   1     -46.855  13.432  22.455  0.00  0.00     0.060 C 
BRANCH  19  20
ATOM     20  S   UNL d   1     -46.431  13.219  23.127  0.00  0.00    -0.084 SA
BRANCH  20  21
ATOM     21  C   UNL d   1     -46.084  12.477  23.184  0.00  0.00     0.029 A 
ATOM     22  C   UNL d   1     -46.509  11.860  23.529  0.00  0.00     0.006 A 
ATOM     23  C   UNL d   1     -46.162  11.118  23.585  0.00  0.00     0.001 A 
ATOM     24  C   UNL d   1     -45.400  10.990  23.303  0.00  0.00     0.000 A 
ATOM     25  C   UNL d   1     -44.975  11.611  22.957  0.00  0.00     0.001 A 
ATOM     26  C   UNL d   1     -45.322  12.353  22.900  0.00  0.00     0.006 A 
ENDBRANCH  20  21
ENDBRANCH  19  20
ENDBRANCH   4  19
TORSDOF 6
ENDMDL
MODEL 4
REMARK VINA RESULT:      -4.6      1.481      3.341
REMARK  6 active torsions:
REMARK  status: ('A' for Active; 'I' for Inactive)
REMARK    1  A    between atoms: C_2  and  C_1 
REMARK       I    between atoms: N_5  and  C_2 
REMARK    2  A    between atoms: C_13  and  N_5 
REMARK    3  A    between atoms: C_14  and  C_6 
REMARK       I    between atoms: C_8  and  N_9 
REMARK    4  A    between atoms: N_9  and  C_15 
REMARK    5  A    between atoms: S_11  and  C_14 
REMARK    6  A    between atoms: C_16  and  S_11 
ROOT
ATOM      1  C   UNL d   1     -47.493  11.732  23.210  0.00  0.00     0.158 A 
ATOM      2  O   UNL d   1     -46.898  11.779  22.642  0.00  0.00    -0.302 OA
ATOM      3  C   UNL d   1     -47.423  12.398  23.698  0.00  0.00     0.032 A 
ATOM      4  C   UNL d   1     -46.467  12.460  22.772  0.00  0.00     0.107 A 
ATOM      5  C   UNL d   1     -46.787  12.848  23.426  0.00  0.00     0.027 A 
ENDROOT
BRANCH   1   6
ATOM      6  C   UNL d   1     -48.059  11.135  23.287  0.00  0.00     0.302 C 
ATOM      7  N   UNL d   1     -48.838  11.267  23.058  0.00  0.00    -0.206 NA
ATOM      8  O   UNL d   1     -47.837  10.407  23.596  0.00  0.00    -0.263 OA
BRANCH   7   9
ATOM      9  C   UNL d   1     -49.050  12.009  22.746  0.00  0.00     0.085 A 
ATOM     10  C   UNL d   1     -49.042  12.137  21.931  0.00  0.00     0.021 A 
ATOM     11  C   UNL d   1     -49.255  12.877  21.636  0.00  0.00     0.021 A 
ATOM     12  C   UNL d   1     -49.472  13.482  22.151  0.00  0.00     0.085 A 
ATOM     13  C   UNL d   1     -49.478  13.347  22.968  0.00  0.00     0.021 A 
ATOM     14  C   UNL d   1     -49.267  12.611  23.270  0.00  0.00     0.021 A 
BRANCH  12  15
ATOM     15  N   UNL d   1     -49.685  14.226  21.852  0.00  0.00    -0.208 NA
ATOM     16  C   UNL d   1     -50.482  14.400  21.725  0.00  0.00     0.279 C 
ATOM     17  O   UNL d   1     -51.064  13.845  21.892  0.00  0.00    -0.265 OA
ATOM     18  C   UNL d   1     -50.691  15.137  21.428  0.00  0.00     0.068 C 
ENDBRANCH  12  15
ENDBRANCH   7   9
ENDBRANCH   1   6
BRANCH   4  19
ATOM     19  C   UNL d   1     -45.820  12.723  22.332  0.00  0.00     0.060 C 
BRANCH  19  20
ATOM     20  S   UNL d   1     -45.056  12.615  22.619  0.00  0.00    -0.084 SA
BRANCH  20  21
ATOM     21  C   UNL d   1     -44.407  12.712  22.127  0.00  0.00     0.029 A 
ATOM     22  C   UNL d   1     -44.403  13.333  21.584  0.00  0.00     0.006 A 
ATOM     23  C   UNL d   1     -43.754  13.430  21.092  0.00  0.00     0.001 A 
ATOM     24  C   UNL d   1     -43.113  12.916  21.137  0.00  0.00     0.000 A 
ATOM     25  C   UNL d   1     -43.119  12.293  21.683  0.00  0.00     0.001 A 
ATOM     26  C   UNL d   1     -43.769  12.196  22.175  0.00  0.00     0.006 A 
ENDBRANCH  20  21
ENDBRANCH  19  20
ENDBRANCH   4  19
TORSDOF 6
ENDMDL
MODEL 5
REMARK VINA RESULT:      -4.6      1.894      4.827
REMARK  6 active torsions:
REMARK  status: ('A' for Active; 'I' for Inactive)
REMARK    1  A    between atoms: C_2  and  C_1 
REMARK       I    between atoms: N_5  and  C_2 
REMARK    2  A    between atoms: C_13  and  N_5 
REMARK    3  A    between atoms: C_14  and  C_6 
REMARK       I    between atoms: C_8  and  N_9 
REMARK    4  A    between atoms: N_9  and  C_15 
REMARK    5  A    between atoms: S_11  and  C_14 
REMARK    6  A    between atoms: C_16  and  S_11 
ROOT
ATOM      1  C   UNL d   1     -46.692  11.020  23.187  0.00  0.00     0.158 A 
ATOM      2  O   UNL d   1     -47.329  11.282  23.641  0.00  0.00    -0.302 OA
ATOM      3  C   UNL d   1     -46.980  10.856  22.428  0.00  0.00     0.032 A 
ATOM      4  C   UNL d   1     -47.999  11.282  23.173  0.00  0.00     0.107 A 
ATOM      5  C   UNL d   1     -47.789  11.018  22.420  0.00  0.00     0.027 A 
ENDROOT
BRANCH   1   6
ATOM      6  C   UNL d   1     -45.910  10.934  23.436  0.00  0.00     0.302 C 
ATOM      7  N   UNL d   1     -45.395  11.575  23.422  0.00  0.00    -0.206 NA
ATOM      8  O   UNL d   1     -45.649  10.200  23.698  0.00  0.00    -0.263 OA
BRANCH   7   9
ATOM      9  C   UNL d   1     -45.672  12.313  23.154  0.00  0.00     0.085 A 
ATOM     10  C   UNL d   1     -46.067  12.822  23.670  0.00  0.00     0.021 A 
ATOM     11  C   UNL d   1     -46.336  13.551  23.391  0.00  0.00     0.021 A 
ATOM     12  C   UNL d   1     -46.211  13.766  22.606  0.00  0.00     0.085 A 
ATOM     13  C   UNL d   1     -45.814  13.250  22.094  0.00  0.00     0.021 A 
ATOM     14  C   UNL d   1     -45.542  12.522  22.364  0.00  0.00     0.021 A 
BRANCH  12  15
ATOM     15  N   UNL d   1     -46.483  14.499  22.328  0.00  0.00    -0.208 NA
ATOM     16  C   UNL d   1     -47.136  14.854  22.688  0.00  0.00     0.279 C 
ATOM     17  O   UNL d   1     -47.518  14.488  23.316  0.00  0.00    -0.265 OA
ATOM     18  C   UNL d   1     -47.403  15.579  22.412  0.00  0.00     0.068 C 
ENDBRANCH  12  15
ENDBRANCH   7   9
ENDBRANCH   1   6
BRANCH   4  19
ATOM     19  C   UNL d   1     -48.760  11.504  23.405  0.00  0.00     0.060 C 
BRANCH  19  20
ATOM     20  S   UNL d   1     -49.349  11.601  22.840  0.00  0.00    -0.084 SA
BRANCH  20  21
ATOM     21  C   UNL d   1     -49.922  12.183  22.928  0.00  0.00     0.029 A 
ATOM     22  C   UNL d   1     -50.020  12.744  22.331  0.00  0.00     0.006 A 
ATOM     23  C   UNL d   1     -50.592  13.326  22.420  0.00  0.00     0.001 A 
ATOM     24  C   UNL d   1     -51.063  13.351  23.094  0.00  0.00     0.000 A 
ATOM     25  C   UNL d   1     -50.962  12.786  23.692  0.00  0.00     0.001 A 
ATOM     26  C   UNL d   1     -50.390  12.205  23.603  0.00  0.00     0.006 A 
ENDBRANCH  20  21
ENDBRANCH  19  20
ENDBRANCH   4  19
TORSDOF 6
ENDMDL
MODEL 6
REMARK VINA RESULT:      -4.6      7.885     10.126
REMARK  6 active torsions:
REMARK  status: ('A' for Active; 'I' for Inactive)
REMARK    1  A    between atoms: C_2  and  C_1 
REMARK       I    between atoms: N_5  and  C_2 
REMARK    2  A    between atoms: C_13  and  N_5 
REMARK    3  A    between atoms: C_14  and  C_6 
REMARK       I    between atoms: C_8  and  N_9 
REMARK    4  A    between atoms: N_9  and  C_15 
REMARK    5  A    between atoms: S_11  and  C_14 
REMARK    6  A    between atoms: C_16  and  S_11 
ROOT
ATOM      1  C   UNL d   1     -38.982  15.442  20.013  0.00  0.00     0.158 A 
ATOM      2  O   UNL d   1     -38.725  14.915  19.434  0.00  0.00    -0.302 OA
ATOM      3  C   UNL d   1     -39.564  15.922  19.671  0.00  0.00     0.032 A 
ATOM      4  C   UNL d   1     -39.139  15.063  18.745  0.00  0.00     0.107 A 
ATOM      5  C   UNL d   1     -39.662  15.687  18.886  0.00  0.00     0.027 A 
ENDROOT
BRANCH   1   6
ATOM      6  C   UNL d   1     -38.714  15.491  20.793  0.00  0.00     0.302 C 
ATOM      7  N   UNL d   1     -39.169  15.193  21.410  0.00  0.00    -0.206 NA
ATOM      8  O   UNL d   1     -37.987  15.840  20.947  0.00  0.00    -0.263 OA
BRANCH   7   9
ATOM      9  C   UNL d   1     -39.904  14.841  21.239  0.00  0.00     0.085 A 
ATOM     10  C   UNL d   1     -39.953  14.031  21.086  0.00  0.00     0.021 A 
ATOM     11  C   UNL d   1     -40.688  13.696  20.918  0.00  0.00     0.021 A 
ATOM     12  C   UNL d   1     -41.365  14.165  20.905  0.00  0.00     0.085 A 
ATOM     13  C   UNL d   1     -41.308  14.977  21.060  0.00  0.00     0.021 A 
ATOM     14  C   UNL d   1     -40.579  15.319  21.228  0.00  0.00     0.021 A 
BRANCH  12  15
ATOM     15  N   UNL d   1     -42.103  13.825  20.736  0.00  0.00    -0.208 NA
ATOM     16  C   UNL d   1     -42.424  13.272  21.257  0.00  0.00     0.279 C 
ATOM     17  O   UNL d   1     -42.022  13.055  21.939  0.00  0.00    -0.265 OA
ATOM     18  C   UNL d   1     -43.155  12.936  21.089  0.00  0.00     0.068 C 
ENDBRANCH  12  15
ENDBRANCH   7   9
ENDBRANCH   1   6
BRANCH   4  19
ATOM     19  C   UNL d   1     -39.057  14.663  18.027  0.00  0.00     0.060 C 
BRANCH  19  20
ATOM     20  S   UNL d   1     -38.316  14.396  17.789  0.00  0.00    -0.084 SA
BRANCH  20  21
ATOM     21  C   UNL d   1     -38.204  14.092  17.035  0.00  0.00     0.029 A 
ATOM     22  C   UNL d   1     -38.083  13.281  16.942  0.00  0.00     0.006 A 
ATOM     23  C   UNL d   1     -37.971  12.978  16.188  0.00  0.00     0.001 A 
ATOM     24  C   UNL d   1     -37.979  13.473  15.532  0.00  0.00     0.000 A 
ATOM     25  C   UNL d   1     -38.101  14.287  15.627  0.00  0.00     0.001 A 
ATOM     26  C   UNL d   1     -38.213  14.591  16.381  0.00  0.00     0.006 A 
ENDBRANCH  20  21
ENDBRANCH  19  20
ENDBRANCH   4  19
TORSDOF 6
ENDMDL
MODEL 7
REMARK VINA RESULT:      -4.0      1.992      4.544
REMARK  6 active torsions:
REMARK  status: ('A' for Active; 'I' for Inactive)
REMARK    1  A    between atoms: C_2  and  C_1 
REMARK       I    between atoms: N_5  and  C_2 
REMARK    2  A    between atoms: C_13  and  N_5 
REMARK    3  A    between atoms: C_14  and  C_6 
REMARK       I    between atoms: C_8  and  N_9 
REMARK    4  A    between atoms: N_9  and  C_15 
REMARK    5  A    between atoms: S_11  and  C_14 
REMARK    6  A    between atoms: C_16  and  S_11 
ROOT
ATOM      1  C   UNL d   1     -47.969  11.802  22.970  0.00  0.00     0.158 A 
ATOM      2  O   UNL d   1     -48.246  12.507  23.295  0.00  0.00    -0.302 OA
ATOM      3  C   UNL d   1     -48.072  11.850  22.150  0.00  0.00     0.032 A 
ATOM      4  C   UNL d   1     -48.516  12.984  22.690  0.00  0.00     0.107 A 
ATOM      5  C   UNL d   1     -48.411  12.582  21.976  0.00  0.00     0.027 A 
ENDROOT
BRANCH   1   6
ATOM      6  C   UNL d   1     -47.646  11.161  23.379  0.00  0.00     0.302 C 
ATOM      7  N   UNL d   1     -46.831  11.091  23.469  0.00  0.00    -0.206 NA
ATOM      8  O   UNL d   1     -48.147  10.592  23.696  0.00  0.00    -0.263 OA
BRANCH   7   9
ATOM      9  C   UNL d   1     -46.335  11.674  23.142  0.00  0.00     0.085 A 
ATOM     10  C   UNL d   1     -46.104  12.326  23.594  0.00  0.00     0.021 A 
ATOM     11  C   UNL d   1     -45.612  12.896  23.258  0.00  0.00     0.021 A 
ATOM     12  C   UNL d   1     -45.354  12.815  22.480  0.00  0.00     0.085 A 
ATOM     13  C   UNL d   1     -45.590  12.159  22.033  0.00  0.00     0.021 A 
ATOM     14  C   UNL d   1     -46.080  11.586  22.361  0.00  0.00     0.021 A 
BRANCH  12  15
ATOM     15  N   UNL d   1     -44.859  13.391  22.145  0.00  0.00    -0.208 NA
ATOM     16  C   UNL d   1     -44.148  13.161  21.794  0.00  0.00     0.279 C 
ATOM     17  O   UNL d   1     -43.927  12.370  21.773  0.00  0.00    -0.265 OA
ATOM     18  C   UNL d   1     -43.660  13.732  21.462  0.00  0.00     0.068 C 
ENDBRANCH  12  15
ENDBRANCH   7   9
ENDBRANCH   1   6
BRANCH   4  19
ATOM     19  C   UNL d   1     -48.840  13.740  22.767  0.00  0.00     0.060 C 
BRANCH  19  20
ATOM     20  S   UNL d   1     -49.366  13.900  23.380  0.00  0.00    -0.084 SA
BRANCH  20  21
ATOM     21  C   UNL d   1     -49.840  14.569  23.359  0.00  0.00     0.029 A 
ATOM     22  C   UNL d   1     -49.554  15.253  22.996  0.00  0.00     0.006 A 
ATOM     23  C   UNL d   1     -50.029  15.922  22.976  0.00  0.00     0.001 A 
ATOM     24  C   UNL d   1     -50.780  15.914  23.312  0.00  0.00     0.000 A 
ATOM     25  C   UNL d   1     -51.064  15.226  23.676  0.00  0.00     0.001 A 
ATOM     26  C   UNL d   1     -50.590  14.557  23.697  0.00  0.00     0.006 A 
ENDBRANCH  20  21
ENDBRANCH  19  20
ENDBRANCH   4  19
TORSDOF 6
ENDMDL
MODEL 8
REMARK VINA RESULT:      -4.0      6.612      9.241
REMARK  6 active torsions:
REMARK  status: ('A' for Active; 'I' for Inactive)
REMARK    1  A    between atoms: C_2  and  C_1 
REMARK       I    between atoms: N_5  and  C_2 
REMARK    2  A    between atoms: C_13  and  N_5 
REMARK    3  A    between atoms: C_14  and  C_6 
REMARK       I    between atoms: C_8  and  N_9 
REMARK    4  A    between atoms: N_9  and  C_15 
REMARK    5  A    between atoms: S_11  and  C_14 
REMARK    6  A    between atoms: C_16  and  S_11 
ROOT
ATOM      1  C   UNL d   1     -40.059  14.450  20.740  0.00  0.00     0.158 A 
ATOM      2  O   UNL d   1     -40.705  13.948  20.841  0.00  0.00    -0.302 OA
ATOM      3  C   UNL d   1     -40.315  15.220  20.904  0.00  0.00     0.032 A 
ATOM      4  C   UNL d   1     -41.351  14.398  21.063  0.00  0.00     0.107 A 
ATOM      5  C   UNL d   1     -41.114  15.188  21.104  0.00  0.00     0.027 A 
ENDROOT
BRANCH   1   6
ATOM      6  C   UNL d   1     -39.294  14.232  20.517  0.00  0.00     0.302 C 
ATOM      7  N   UNL d   1     -39.043  14.328  19.739  0.00  0.00    -0.206 NA
ATOM      8  O   UNL d   1     -38.784  13.919  21.079  0.00  0.00    -0.263 OA
BRANCH   7   9
ATOM      9  C   UNL d   1     -39.570  14.647  19.179  0.00  0.00     0.085 A 
ATOM     10  C   UNL d   1     -39.645  15.465  19.095  0.00  0.00     0.021 A 
ATOM     11  C   UNL d   1     -40.171  15.767  18.536  0.00  0.00     0.021 A 
ATOM     12  C   UNL d   1     -40.615  15.257  18.066  0.00  0.00     0.085 A 
ATOM     13  C   UNL d   1     -40.535  14.437  18.156  0.00  0.00     0.021 A 
ATOM     14  C   UNL d   1     -40.013  14.128  18.711  0.00  0.00     0.021 A 
BRANCH  12  15
ATOM     15  N   UNL d   1     -41.144  15.564  17.505  0.00  0.00    -0.208 NA
ATOM     16  C   UNL d   1     -40.921  15.592  16.710  0.00  0.00     0.279 C 
ATOM     17  O   UNL d   1     -40.184  15.321  16.471  0.00  0.00    -0.265 OA
ATOM     18  C   UNL d   1     -41.445  15.897  16.156  0.00  0.00     0.068 C 
ENDBRANCH  12  15
ENDBRANCH   7   9
ENDBRANCH   1   6
BRANCH   4  19
ATOM     19  C   UNL d   1     -42.112  14.119  21.222  0.00  0.00     0.060 C 
BRANCH  19  20
ATOM     20  S   UNL d   1     -42.299  13.332  21.075  0.00  0.00    -0.084 SA
BRANCH  20  21
ATOM     21  C   UNL d   1     -42.975  12.996  21.398  0.00  0.00     0.029 A 
ATOM     22  C   UNL d   1     -42.909  12.294  21.827  0.00  0.00     0.006 A 
ATOM     23  C   UNL d   1     -43.584  11.958  22.150  0.00  0.00     0.001 A 
ATOM     24  C   UNL d   1     -44.319  12.315  22.049  0.00  0.00     0.000 A 
ATOM     25  C   UNL d   1     -44.382  13.019  21.618  0.00  0.00     0.001 A 
ATOM     26  C   UNL d   1     -43.707  13.355  21.295  0.00  0.00     0.006 A 
ENDBRANCH  20  21
ENDBRANCH  19  20
ENDBRANCH   4  19
TORSDOF 6
ENDMDL
MODEL 9
REMARK VINA RESULT:      -3.8      2.022      3.512
REMARK  6 active torsions:
REMARK  status: ('A' for Active; 'I' for Inactive)
REMARK    1  A    between atoms: C_2  and  C_1 
REMARK       I    between atoms: N_5  and  C_2 
REMARK    2  A    between atoms: C_13  and  N_5 
REMARK    3  A    between atoms: C_14  and  C_6 
REMARK       I    between atoms: C_8  and  N_9 
REMARK    4  A    between atoms: N_9  and  C_15 
REMARK    5  A    between atoms: S_11  and  C_14 
REMARK    6  A    between atoms: C_16  and  S_11 
ROOT
ATOM      1  C   UNL d   1     -48.666  11.528  22.579  0.00  0.00     0.158 A 
ATOM      2  O   UNL d   1     -47.945  11.181  22.380  0.00  0.00    -0.302 OA
ATOM      3  C   UNL d   1     -48.664  11.648  23.398  0.00  0.00     0.032 A 
ATOM      4  C   UNL d   1     -47.504  11.086  23.061  0.00  0.00     0.107 A 
ATOM      5  C   UNL d   1     -47.945  11.374  23.697  0.00  0.00     0.027 A 
ENDROOT
BRANCH   1   6
ATOM      6  C   UNL d   1     -49.280  11.724  22.063  0.00  0.00     0.302 C 
ATOM      7  N   UNL d   1     -49.359  12.493  21.782  0.00  0.00    -0.206 NA
ATOM      8  O   UNL d   1     -49.814  11.143  21.834  0.00  0.00    -0.263 OA
BRANCH   7   9
ATOM      9  C   UNL d   1     -48.812  13.072  22.022  0.00  0.00     0.085 A 
ATOM     10  C   UNL d   1     -48.159  13.250  21.550  0.00  0.00     0.021 A 
ATOM     11  C   UNL d   1     -47.624  13.827  21.801  0.00  0.00     0.021 A 
ATOM     12  C   UNL d   1     -47.743  14.219  22.515  0.00  0.00     0.085 A 
ATOM     13  C   UNL d   1     -48.400  14.036  22.983  0.00  0.00     0.021 A 
ATOM     14  C   UNL d   1     -48.938  13.462  22.741  0.00  0.00     0.021 A 
BRANCH  12  15
ATOM     15  N   UNL d   1     -47.203  14.798  22.764  0.00  0.00    -0.208 NA
ATOM     16  C   UNL d   1     -46.399  14.701  22.604  0.00  0.00     0.279 C 
ATOM     17  O   UNL d   1     -46.129  14.039  22.202  0.00  0.00    -0.265 OA
ATOM     18  C   UNL d   1     -45.867  15.276  22.852  0.00  0.00     0.068 C 
ENDBRANCH  12  15
ENDBRANCH   7   9
ENDBRANCH   1   6
BRANCH   4  19
ATOM     19  C   UNL d   1     -46.747  10.760  23.115  0.00  0.00     0.060 C 
BRANCH  19  20
ATOM     20  S   UNL d   1     -46.130  11.206  23.426  0.00  0.00    -0.084 SA
BRANCH  20  21
ATOM     21  C   UNL d   1     -45.358  10.930  23.393  0.00  0.00     0.029 A 
ATOM     22  C   UNL d   1     -45.187  10.179  23.689  0.00  0.00     0.006 A 
ATOM     23  C   UNL d   1     -44.415   9.903  23.656  0.00  0.00     0.001 A 
ATOM     24  C   UNL d   1     -43.817  10.368  23.334  0.00  0.00     0.000 A 
ATOM     25  C   UNL d   1     -43.991  11.121  23.038  0.00  0.00     0.001 A 
ATOM     26  C   UNL d   1     -44.763  11.397  23.071  0.00  0.00     0.006 A 
ENDBRANCH  20  21
ENDBRANCH  19  20
ENDBRANCH   4  19
TORSDOF 6
ENDMDL
