MODEL 1
REMARK VINA RESULT:      -1.9      0.000      0.000
REMARK  5 active torsions:
REMARK  status: ('A' for Active; 'I' for Inactive)
REMARK    1  A    between atoms: C_11  and  C_1 
REMARK    2  A    between atoms: C_5  and  S_13 
REMARK       I    between atoms: C_12  and  N_14 
REMARK    3  A    between atoms: C_18  and  C_12 
REMARK    4  A    between atoms: S_13  and  C_18 
REMARK    5  A    between atoms: N_14  and  C_19 
ROOT
ATOM      1  C   UNL d   1      33.187  20.903 -21.025  0.00  0.00     0.024 A 
ATOM      2  C   UNL d   1      33.201  20.117 -20.776  0.00  0.00     0.004 A 
ATOM      3  C   UNL d   1      33.192  21.093 -21.817  0.00  0.00     0.004 A 
ATOM      4  C   UNL d   1      33.223  19.706 -22.152  0.00  0.00     0.085 A 
ATOM      5  C   UNL d   1      33.209  20.492 -22.383  0.00  0.00     0.019 A 
ATOM      6  C   UNL d   1      33.218  19.515 -21.343  0.00  0.00     0.019 A 
ENDROOT
BRANCH   4   7
ATOM      7  N   UNL d   1      33.241  19.114 -22.726  0.00  0.00    -0.208 NA
ATOM      8  C   UNL d   1      32.533  18.785 -22.993  0.00  0.00     0.286 C 
ATOM      9  O   UNL d   1      31.817  19.045 -22.687  0.00  0.00    -0.265 OA
BRANCH   8  10
ATOM     10  C   UNL d   1      32.546  18.193 -23.568  0.00  0.00     0.100 C 
BRANCH  10  11
ATOM     11  S   UNL d   1      31.840  17.958 -23.931  0.00  0.00    -0.054 SA
BRANCH  11  12
ATOM     12  C   UNL d   1      31.791  17.222 -24.306  0.00  0.00     0.164 A 
ATOM     13  S   UNL d   1      31.109  16.777 -24.401  0.00  0.00    -0.039 SA
ATOM     14  C   UNL d   1      31.315  16.082 -24.806  0.00  0.00     0.134 A 
ATOM     15  C   UNL d   1      30.796  15.470 -25.021  0.00  0.00     0.030 C 
ATOM     16  N   UNL d   1      32.127  16.105 -24.957  0.00  0.00    -0.140 NA
ATOM     17  N   UNL d   1      32.425  16.811 -24.648  0.00  0.00    -0.134 NA
ENDBRANCH  11  12
ENDBRANCH  10  11
ENDBRANCH   8  10
ENDBRANCH   4   7
BRANCH   1  18
ATOM     18  C   UNL d   1      33.169  21.519 -20.455  0.00  0.00     0.111 A 
ATOM     19  N   UNL d   1      33.120  21.384 -19.648  0.00  0.00    -0.239 NA
ATOM     20  C   UNL d   1      33.115  22.113 -19.268  0.00  0.00     0.088 A 
ATOM     21  C   UNL d   1      33.075  22.323 -18.476  0.00  0.00     0.020 A 
ATOM     22  C   UNL d   1      33.162  22.700 -19.847  0.00  0.00     0.049 A 
ATOM     23  C   UNL d   1      33.080  23.111 -18.253  0.00  0.00     0.002 A 
ATOM     24  C   UNL d   1      33.127  23.702 -18.825  0.00  0.00     0.001 A 
ATOM     25  C   UNL d   1      33.168  23.489 -19.627  0.00  0.00     0.008 A 
ATOM     26  S   UNL d   1      33.195  22.331 -20.579  0.00  0.00    -0.066 SA
ENDBRANCH   1  18
TORSDOF 5
ENDMDL
MODEL 2
REMARK VINA RESULT:      -1.8      1.337      6.428
REMARK  5 active torsions:
REMARK  status: ('A' for Active; 'I' for Inactive)
REMARK    1  A    between atoms: C_11  and  C_1 
REMARK    2  A    between atoms: C_5  and  S_13 
REMARK       I    between atoms: C_12  and  N_14 
REMARK    3  A    between atoms: C_18  and  C_12 
REMARK    4  A    between atoms: S_13  and  C_18 
REMARK    5  A    between atoms: N_14  and  C_19 
ROOT
ATOM      1  C   UNL d   1      32.776  19.006 -22.659  0.00  0.00     0.024 A 
ATOM      2  C   UNL d   1      33.111  19.059 -21.908  0.00  0.00     0.004 A 
ATOM      3  C   UNL d   1      32.572  19.676 -23.076  0.00  0.00     0.004 A 
ATOM      4  C   UNL d   1      33.034  20.490 -21.998  0.00  0.00     0.085 A 
ATOM      5  C   UNL d   1      32.702  20.421 -22.745  0.00  0.00     0.019 A 
ATOM      6  C   UNL d   1      33.241  19.805 -21.576  0.00  0.00     0.019 A 
ENDROOT
BRANCH   4   7
ATOM      7  N   UNL d   1      33.159  21.240 -21.678  0.00  0.00    -0.208 NA
ATOM      8  C   UNL d   1      32.597  21.562 -21.166  0.00  0.00     0.286 C 
ATOM      9  O   UNL d   1      31.920  21.138 -20.979  0.00  0.00    -0.265 OA
BRANCH   8  10
ATOM     10  C   UNL d   1      32.718  22.312 -20.843  0.00  0.00     0.100 C 
BRANCH  10  11
ATOM     11  S   UNL d   1      32.245  22.568 -20.214  0.00  0.00    -0.054 SA
BRANCH  11  12
ATOM     12  C   UNL d   1      32.594  22.879 -19.532  0.00  0.00     0.164 A 
ATOM     13  S   UNL d   1      32.622  22.514 -18.798  0.00  0.00    -0.039 SA
ATOM     14  C   UNL d   1      33.023  23.021 -18.278  0.00  0.00     0.134 A 
ATOM     15  C   UNL d   1      33.179  22.875 -17.476  0.00  0.00     0.030 C 
ATOM     16  N   UNL d   1      33.241  23.700 -18.698  0.00  0.00    -0.140 NA
ATOM     17  N   UNL d   1      32.976  23.614 -19.476  0.00  0.00    -0.134 NA
ENDBRANCH  11  12
ENDBRANCH  10  11
ENDBRANCH   8  10
ENDBRANCH   4   7
BRANCH   1  18
ATOM     18  C   UNL d   1      32.641  18.252 -23.003  0.00  0.00     0.111 A 
ATOM     19  N   UNL d   1      31.901  17.995 -23.244  0.00  0.00    -0.239 NA
ATOM     20  C   UNL d   1      31.984  17.237 -23.551  0.00  0.00     0.088 A 
ATOM     21  C   UNL d   1      31.444  16.708 -23.872  0.00  0.00     0.020 A 
ATOM     22  C   UNL d   1      32.781  17.028 -23.498  0.00  0.00     0.049 A 
ATOM     23  C   UNL d   1      31.688  15.973 -24.140  0.00  0.00     0.002 A 
ATOM     24  C   UNL d   1      32.483  15.759 -24.090  0.00  0.00     0.001 A 
ATOM     25  C   UNL d   1      33.028  16.294 -23.765  0.00  0.00     0.008 A 
ATOM     26  S   UNL d   1      33.184  17.657 -23.159  0.00  0.00    -0.066 SA
ENDBRANCH   1  18
TORSDOF 5
ENDMDL
MODEL 3
REMARK VINA RESULT:       0.5      1.216      1.876
REMARK  5 active torsions:
REMARK  status: ('A' for Active; 'I' for Inactive)
REMARK    1  A    between atoms: C_11  and  C_1 
REMARK    2  A    between atoms: C_5  and  S_13 
REMARK       I    between atoms: C_12  and  N_14 
REMARK    3  A    between atoms: C_18  and  C_12 
REMARK    4  A    between atoms: S_13  and  C_18 
REMARK    5  A    between atoms: N_14  and  C_19 
ROOT
ATOM      1  C   UNL d   1      32.983  21.804 -19.578  0.00  0.00     0.024 A 
ATOM      2  C   UNL d   1      33.153  20.997 -19.586  0.00  0.00     0.004 A 
ATOM      3  C   UNL d   1      32.893  22.221 -20.271  0.00  0.00     0.004 A 
ATOM      4  C   UNL d   1      33.140  21.033 -21.022  0.00  0.00     0.085 A 
ATOM      5  C   UNL d   1      32.972  21.835 -20.996  0.00  0.00     0.019 A 
ATOM      6  C   UNL d   1      33.232  20.609 -20.313  0.00  0.00     0.019 A 
ENDROOT
BRANCH   4   7
ATOM      7  N   UNL d   1      33.217  20.657 -21.753  0.00  0.00    -0.208 NA
ATOM      8  C   UNL d   1      32.567  20.271 -22.082  0.00  0.00     0.286 C 
ATOM      9  O   UNL d   1      31.849  20.262 -21.684  0.00  0.00    -0.265 OA
BRANCH   8  10
ATOM     10  C   UNL d   1      32.638  19.894 -22.813  0.00  0.00     0.100 C 
BRANCH  10  11
ATOM     11  S   UNL d   1      32.086  19.318 -23.034  0.00  0.00    -0.054 SA
BRANCH  11  12
ATOM     12  C   UNL d   1      32.314  18.691 -23.522  0.00  0.00     0.164 A 
ATOM     13  S   UNL d   1      32.080  17.909 -23.439  0.00  0.00    -0.039 SA
ATOM     14  C   UNL d   1      32.439  17.472 -24.046  0.00  0.00     0.134 A 
ATOM     15  C   UNL d   1      32.357  16.656 -24.175  0.00  0.00     0.030 C 
ATOM     16  N   UNL d   1      32.894  17.991 -24.502  0.00  0.00    -0.140 NA
ATOM     17  N   UNL d   1      32.818  18.748 -24.178  0.00  0.00    -0.134 NA
ENDBRANCH  11  12
ENDBRANCH  10  11
ENDBRANCH   8  10
ENDBRANCH   4   7
BRANCH   1  18
ATOM     18  C   UNL d   1      32.901  22.204 -18.845  0.00  0.00     0.111 A 
ATOM     19  N   UNL d   1      33.228  21.930 -18.145  0.00  0.00    -0.239 NA
ATOM     20  C   UNL d   1      33.034  22.462 -17.549  0.00  0.00     0.088 A 
ATOM     21  C   UNL d   1      33.204  22.479 -16.746  0.00  0.00     0.020 A 
ATOM     22  C   UNL d   1      32.585  23.066 -17.886  0.00  0.00     0.049 A 
ATOM     23  C   UNL d   1      32.933  23.091 -16.275  0.00  0.00     0.002 A 
ATOM     24  C   UNL d   1      32.483  23.698 -16.605  0.00  0.00     0.001 A 
ATOM     25  C   UNL d   1      32.311  23.680 -17.417  0.00  0.00     0.008 A 
ATOM     26  S   UNL d   1      32.504  22.905 -18.686  0.00  0.00    -0.066 SA
ENDBRANCH   1  18
TORSDOF 5
ENDMDL
