MODEL 1
REMARK VINA RESULT:      -0.1      0.000      0.000
REMARK  3 active torsions:
REMARK  status: ('A' for Active; 'I' for Inactive)
REMARK    1  A    between atoms: N_5  and  C_1 
REMARK    2  A    between atoms: C_9  and  C_2 
REMARK       I    between atoms: C_8  and  N_5 
REMARK    3  A    between atoms: C_13  and  C_8 
ROOT
ATOM      1  C   UNL d   1      32.916  21.215 -22.620  0.00  0.00     0.156 A 
ATOM      2  C   UNL d   1      32.870  21.350 -23.435  0.00  0.00     0.091 A 
ATOM      3  N   UNL d   1      33.018  20.443 -22.334  0.00  0.00    -0.289 N 
ATOM      4  C   UNL d   1      32.926  20.713 -23.963  0.00  0.00     0.201 A 
ATOM      5  C   UNL d   1      33.027  19.946 -23.676  0.00  0.00     0.055 A 
ATOM      6  C   UNL d   1      33.074  19.811 -22.862  0.00  0.00     0.069 A 
ATOM      7  O   UNL d   1      32.880  20.848 -24.777  0.00  0.00    -0.286 OA
ATOM      8  C   UNL d   1      33.065  20.308 -21.520  0.00  0.00     0.101 C 
ATOM      9  C   UNL d   1      33.083  19.314 -24.203  0.00  0.00     0.005 A 
ATOM     10  C   UNL d   1      33.175  19.044 -22.575  0.00  0.00     0.018 A 
ATOM     11  C   UNL d   1      33.186  18.538 -23.911  0.00  0.00     0.000 A 
ATOM     12  C   UNL d   1      33.232  18.404 -23.104  0.00  0.00     0.002 A 
ENDROOT
BRANCH   1  13
ATOM     13  N   UNL d   1      32.860  21.852 -22.079  0.00  0.00    -0.190 NA
ATOM     14  C   UNL d   1      32.411  21.805 -21.385  0.00  0.00     0.280 C 
ATOM     15  O   UNL d   1      32.007  21.104 -21.228  0.00  0.00    -0.265 OA
BRANCH  14  16
ATOM     16  C   UNL d   1      32.361  22.437 -20.857  0.00  0.00     0.058 A 
ATOM     17  C   UNL d   1      31.748  22.986 -20.936  0.00  0.00     0.005 A 
ATOM     18  C   UNL d   1      31.697  23.617 -20.408  0.00  0.00     0.000 A 
ATOM     19  C   UNL d   1      32.256  23.695 -19.807  0.00  0.00     0.000 A 
ATOM     20  C   UNL d   1      32.866  23.142 -19.734  0.00  0.00     0.000 A 
ATOM     21  C   UNL d   1      32.917  22.511 -20.263  0.00  0.00     0.005 A 
ENDBRANCH  14  16
ENDBRANCH   1  13
BRANCH   2  22
ATOM     22  C   UNL d   1      32.768  22.116 -23.721  0.00  0.00     0.087 A 
ATOM     23  N   UNL d   1      33.241  22.728 -23.435  0.00  0.00    -0.244 NA
ATOM     24  C   UNL d   1      33.139  23.504 -23.724  0.00  0.00     0.099 A 
ATOM     25  C   UNL d   1      32.555  23.652 -24.303  0.00  0.00     0.021 A 
ATOM     26  C   UNL d   1      32.088  23.038 -24.583  0.00  0.00     0.003 A 
ATOM     27  C   UNL d   1      32.193  22.271 -24.294  0.00  0.00     0.019 A 
ENDBRANCH   2  22
TORSDOF 3
ENDMDL
MODEL 2
REMARK VINA RESULT:       0.6      3.494      5.572
REMARK  3 active torsions:
REMARK  status: ('A' for Active; 'I' for Inactive)
REMARK    1  A    between atoms: N_5  and  C_1 
REMARK    2  A    between atoms: C_9  and  C_2 
REMARK       I    between atoms: C_8  and  N_5 
REMARK    3  A    between atoms: C_13  and  C_8 
ROOT
ATOM      1  C   UNL d   1      30.700  17.371 -24.081  0.00  0.00     0.156 A 
ATOM      2  C   UNL d   1      30.852  16.662 -23.683  0.00  0.00     0.091 A 
ATOM      3  N   UNL d   1      29.921  17.579 -24.273  0.00  0.00    -0.289 N 
ATOM      4  C   UNL d   1      30.224  16.161 -23.477  0.00  0.00     0.201 A 
ATOM      5  C   UNL d   1      29.449  16.370 -23.669  0.00  0.00     0.055 A 
ATOM      6  C   UNL d   1      29.297  17.079 -24.067  0.00  0.00     0.069 A 
ATOM      7  O   UNL d   1      30.376  15.453 -23.080  0.00  0.00    -0.286 OA
ATOM      8  C   UNL d   1      29.769  18.288 -24.671  0.00  0.00     0.101 C 
ATOM      9  C   UNL d   1      28.826  15.870 -23.463  0.00  0.00     0.005 A 
ATOM     10  C   UNL d   1      28.523  17.287 -24.258  0.00  0.00     0.018 A 
ATOM     11  C   UNL d   1      28.042  16.084 -23.658  0.00  0.00     0.000 A 
ATOM     12  C   UNL d   1      27.892  16.786 -24.052  0.00  0.00     0.002 A 
ENDROOT
BRANCH   1  13
ATOM     13  N   UNL d   1      31.329  17.884 -24.293  0.00  0.00    -0.190 NA
ATOM     14  C   UNL d   1      31.383  18.658 -24.007  0.00  0.00     0.280 C 
ATOM     15  O   UNL d   1      30.795  18.928 -23.496  0.00  0.00    -0.265 OA
BRANCH  14  16
ATOM     16  C   UNL d   1      32.004  19.157 -24.220  0.00  0.00     0.058 A 
ATOM     17  C   UNL d   1      32.168  19.823 -23.758  0.00  0.00     0.005 A 
ATOM     18  C   UNL d   1      32.788  20.322 -23.971  0.00  0.00     0.000 A 
ATOM     19  C   UNL d   1      33.241  20.154 -24.640  0.00  0.00     0.000 A 
ATOM     20  C   UNL d   1      33.071  19.486 -25.096  0.00  0.00     0.000 A 
ATOM     21  C   UNL d   1      32.450  18.987 -24.884  0.00  0.00     0.005 A 
ENDBRANCH  14  16
ENDBRANCH   1  13
BRANCH   2  22
ATOM     22  C   UNL d   1      31.627  16.454 -23.492  0.00  0.00     0.087 A 
ATOM     23  N   UNL d   1      31.935  16.655 -22.755  0.00  0.00    -0.244 NA
ATOM     24  C   UNL d   1      32.719  16.444 -22.560  0.00  0.00     0.099 A 
ATOM     25  C   UNL d   1      33.183  16.030 -23.118  0.00  0.00     0.021 A 
ATOM     26  C   UNL d   1      32.869  15.833 -23.850  0.00  0.00     0.003 A 
ATOM     27  C   UNL d   1      32.092  16.044 -24.039  0.00  0.00     0.019 A 
ENDBRANCH   2  22
TORSDOF 3
ENDMDL
MODEL 3
REMARK VINA RESULT:       1.3      1.365      4.227
REMARK  3 active torsions:
REMARK  status: ('A' for Active; 'I' for Inactive)
REMARK    1  A    between atoms: N_5  and  C_1 
REMARK    2  A    between atoms: C_9  and  C_2 
REMARK       I    between atoms: C_8  and  N_5 
REMARK    3  A    between atoms: C_13  and  C_8 
ROOT
ATOM      1  C   UNL d   1      32.534  22.269 -21.146  0.00  0.00     0.156 A 
ATOM      2  C   UNL d   1      32.599  21.539 -20.765  0.00  0.00     0.091 A 
ATOM      3  N   UNL d   1      32.527  22.969 -20.700  0.00  0.00    -0.289 N 
ATOM      4  C   UNL d   1      32.657  21.508 -19.938  0.00  0.00     0.201 A 
ATOM      5  C   UNL d   1      32.650  22.205 -19.497  0.00  0.00     0.055 A 
ATOM      6  C   UNL d   1      32.585  22.936 -19.878  0.00  0.00     0.069 A 
ATOM      7  O   UNL d   1      32.722  20.777 -19.557  0.00  0.00    -0.286 OA
ATOM      8  C   UNL d   1      32.462  23.700 -21.082  0.00  0.00     0.101 C 
ATOM      9  C   UNL d   1      32.708  22.172 -18.675  0.00  0.00     0.005 A 
ATOM     10  C   UNL d   1      32.578  23.633 -19.437  0.00  0.00     0.018 A 
ATOM     11  C   UNL d   1      32.700  22.879 -18.230  0.00  0.00     0.000 A 
ATOM     12  C   UNL d   1      32.636  23.603 -18.608  0.00  0.00     0.002 A 
ENDROOT
BRANCH   1  13
ATOM     13  N   UNL d   1      32.475  22.310 -21.981  0.00  0.00    -0.190 NA
ATOM     14  C   UNL d   1      32.823  22.920 -22.419  0.00  0.00     0.280 C 
ATOM     15  O   UNL d   1      33.240  23.504 -22.014  0.00  0.00    -0.265 OA
BRANCH  14  16
ATOM     16  C   UNL d   1      32.761  22.954 -23.241  0.00  0.00     0.058 A 
ATOM     17  C   UNL d   1      32.435  23.626 -23.597  0.00  0.00     0.005 A 
ATOM     18  C   UNL d   1      32.373  23.660 -24.418  0.00  0.00     0.000 A 
ATOM     19  C   UNL d   1      32.635  23.027 -24.877  0.00  0.00     0.000 A 
ATOM     20  C   UNL d   1      32.960  22.359 -24.514  0.00  0.00     0.000 A 
ATOM     21  C   UNL d   1      33.022  22.325 -23.692  0.00  0.00     0.005 A 
ENDBRANCH  14  16
ENDBRANCH   1  13
BRANCH   2  22
ATOM     22  C   UNL d   1      32.607  20.842 -21.206  0.00  0.00     0.087 A 
ATOM     23  N   UNL d   1      32.002  20.691 -21.745  0.00  0.00    -0.244 NA
ATOM     24  C   UNL d   1      32.008  19.986 -22.192  0.00  0.00     0.099 A 
ATOM     25  C   UNL d   1      32.631  19.440 -22.086  0.00  0.00     0.021 A 
ATOM     26  C   UNL d   1      33.230  19.596 -21.547  0.00  0.00     0.003 A 
ATOM     27  C   UNL d   1      33.220  20.295 -21.107  0.00  0.00     0.019 A 
ENDBRANCH   2  22
TORSDOF 3
ENDMDL
