MODEL 1
REMARK VINA RESULT:      62.6      0.000      0.000
REMARK  2 active torsions:
REMARK  status: ('A' for Active; 'I' for Inactive)
REMARK    1  A    between atoms: N_9  and  C_3 
REMARK    2  A    between atoms: C_11  and  C_4 
ROOT
ATOM      1  N   UNL d   1     -54.797-101.454 -40.925  0.00  0.00    -0.196 N 
ATOM      2  C   UNL d   1     -54.814-101.421 -40.075  0.00  0.00     0.167 A 
ATOM      3  C   UNL d   1     -54.769-100.762 -41.340  0.00  0.00     0.153 A 
ATOM      4  C   UNL d   1     -54.842-102.106 -39.641  0.00  0.00     0.057 A 
ATOM      5  N   UNL d   1     -54.840-102.875 -40.857  0.00  0.00    -0.161 NA
ATOM      6  N   UNL d   1     -54.800-100.698 -39.696  0.00  0.00    -0.227 NA
ATOM      7  C   UNL d   1     -54.755-100.027 -40.968  0.00  0.00     0.057 A 
ATOM      8  C   UNL d   1     -54.856-102.843 -40.033  0.00  0.00     0.124 A 
ATOM      9  C   UNL d   1     -54.771 -99.994 -40.130  0.00  0.00     0.086 A 
ATOM     10  C   UNL d   1     -54.757 -99.233 -39.732  0.00  0.00     0.021 C 
ENDROOT
BRANCH   4  11
ATOM     11  C   UNL d   1     -54.858-102.073 -38.817  0.00  0.00     0.005 A 
ATOM     12  C   UNL d   1     -55.017-101.368 -38.443  0.00  0.00     0.001 A 
ATOM     13  C   UNL d   1     -55.033-101.335 -37.618  0.00  0.00     0.011 A 
ATOM     14  C   UNL d   1     -54.889-102.009 -37.183  0.00  0.00     0.058 A 
ATOM     15  C   UNL d   1     -54.730-102.716 -37.571  0.00  0.00     0.011 A 
ATOM     16 CL   UNL d   1     -54.906-101.975 -36.319  0.00  0.00    -0.082 Cl
ATOM     17  C   UNL d   1     -54.715-102.748 -38.383  0.00  0.00     0.001 A 
ENDBRANCH   4  11
BRANCH   3  18
ATOM     18  N   UNL d   1     -54.752-100.792 -42.200  0.00  0.00    -0.285 N 
ATOM     19  C   UNL d   1     -54.747-100.063 -42.653  0.00  0.00     0.108 A 
ATOM     20  C   UNL d   1     -54.731-100.097 -43.503  0.00  0.00     0.142 A 
ATOM     21  O   UNL d   1     -54.719-100.860 -43.918  0.00  0.00    -0.300 OA
ATOM     22  C   UNL d   1     -54.725-101.580 -43.444  0.00  0.00     0.142 A 
ATOM     23  C   UNL d   1     -54.741-101.546 -42.594  0.00  0.00     0.108 A 
ENDBRANCH   3  18
TORSDOF 2
ENDMDL
