MODEL 1
REMARK VINA RESULT:      -6.6      0.000      0.000
REMARK  5 active torsions:
REMARK  status: ('A' for Active; 'I' for Inactive)
REMARK    1  A    between atoms: N_4  and  C_2 
REMARK    2  A    between atoms: C_11  and  C_3 
REMARK       I    between atoms: C_8  and  N_4 
REMARK    3  A    between atoms: C_14  and  C_5 
REMARK    4  A    between atoms: C_7  and  C_8 
REMARK    5  A    between atoms: C_17  and  C_14 
ROOT
ATOM      1  C   UNL d   1     -41.699-123.245 -49.199  0.00  0.00     0.101 A 
ATOM      2  O   UNL d   1     -41.933-122.731 -49.808  0.00  0.00    -0.302 OA
ATOM      3  C   UNL d   1     -41.578-122.986 -50.503  0.00  0.00     0.158 A 
ATOM      4  C   UNL d   1     -41.202-123.813 -49.525  0.00  0.00     0.027 A 
ATOM      5  C   UNL d   1     -41.123-123.658 -50.331  0.00  0.00     0.032 A 
ENDROOT
BRANCH   3   6
ATOM      6  C   UNL d   1     -41.659-122.635 -51.247  0.00  0.00     0.304 C 
ATOM      7  N   UNL d   1     -41.439-123.051 -51.924  0.00  0.00    -0.180 NA
ATOM      8  O   UNL d   1     -41.958-121.874 -51.307  0.00  0.00    -0.263 OA
BRANCH   7   9
ATOM      9  C   UNL d   1     -41.519-122.703 -52.666  0.00  0.00     0.216 A 
ATOM     10  N   UNL d   1     -41.859-123.050 -53.329  0.00  0.00    -0.200 NA
ATOM     11  C   UNL d   1     -41.822-122.506 -53.946  0.00  0.00     0.175 A 
ATOM     12  N   UNL d   1     -41.457-121.822 -53.664  0.00  0.00    -0.187 NA
ATOM     13  S   UNL d   1     -41.269-121.946 -52.867  0.00  0.00     0.054 SA
BRANCH  11  14
ATOM     14  C   UNL d   1     -42.099-122.621 -54.715  0.00  0.00     0.082 C 
BRANCH  14  15
ATOM     15  C   UNL d   1     -42.378-121.978 -55.151  0.00  0.00     0.199 C 
ATOM     16  O   UNL d   1     -43.035-121.558 -54.890  0.00  0.00    -0.286 OA
ATOM     17  C   UNL d   1     -41.998-121.755 -55.849  0.00  0.00     0.045 C 
ENDBRANCH  14  15
ENDBRANCH  11  14
ENDBRANCH   7   9
ENDBRANCH   3   6
BRANCH   1  18
ATOM     18  C   UNL d   1     -41.927-123.193 -48.406  0.00  0.00     0.033 A 
ATOM     19  C   UNL d   1     -42.696-123.393 -48.185  0.00  0.00     0.060 A 
ATOM     20 CL   UNL d   1     -43.241-123.644 -48.753  0.00  0.00    -0.082 Cl
ATOM     21  C   UNL d   1     -42.927-123.343 -47.398  0.00  0.00     0.011 A 
ATOM     22  C   UNL d   1     -42.383-123.091 -46.822  0.00  0.00     0.001 A 
ATOM     23  C   UNL d   1     -41.617-122.892 -47.040  0.00  0.00     0.000 A 
ATOM     24  C   UNL d   1     -41.383-122.941 -47.830  0.00  0.00     0.003 A 
ENDBRANCH   1  18
TORSDOF 5
ENDMDL
MODEL 2
REMARK VINA RESULT:      -5.9      1.974      5.709
REMARK  5 active torsions:
REMARK  status: ('A' for Active; 'I' for Inactive)
REMARK    1  A    between atoms: N_4  and  C_2 
REMARK    2  A    between atoms: C_11  and  C_3 
REMARK       I    between atoms: C_8  and  N_4 
REMARK    3  A    between atoms: C_14  and  C_5 
REMARK    4  A    between atoms: C_7  and  C_8 
REMARK    5  A    between atoms: C_17  and  C_14 
ROOT
ATOM      1  C   UNL d   1     -41.522-122.302 -53.117  0.00  0.00     0.101 A 
ATOM      2  O   UNL d   1     -41.803-122.871 -52.582  0.00  0.00    -0.302 OA
ATOM      3  C   UNL d   1     -41.601-122.627 -51.824  0.00  0.00     0.158 A 
ATOM      4  C   UNL d   1     -41.149-121.712 -52.684  0.00  0.00     0.027 A 
ATOM      5  C   UNL d   1     -41.194-121.906 -51.884  0.00  0.00     0.032 A 
ENDROOT
BRANCH   3   6
ATOM      6  C   UNL d   1     -41.774-123.028 -51.122  0.00  0.00     0.304 C 
ATOM      7  N   UNL d   1     -41.689-122.644 -50.398  0.00  0.00    -0.180 NA
ATOM      8  O   UNL d   1     -42.028-123.807 -51.151  0.00  0.00    -0.263 OA
BRANCH   7   9
ATOM      9  C   UNL d   1     -41.859-123.041 -49.697  0.00  0.00     0.216 A 
ATOM     10  N   UNL d   1     -41.351-123.139 -49.060  0.00  0.00    -0.200 NA
ATOM     11  C   UNL d   1     -41.749-123.569 -48.482  0.00  0.00     0.175 A 
ATOM     12  N   UNL d   1     -42.506-123.738 -48.763  0.00  0.00    -0.187 NA
ATOM     13  S   UNL d   1     -42.573-123.409 -49.520  0.00  0.00     0.054 SA
BRANCH  11  14
ATOM     14  C   UNL d   1     -41.447-123.795 -47.747  0.00  0.00     0.082 C 
BRANCH  14  15
ATOM     15  C   UNL d   1     -41.661-123.374 -47.070  0.00  0.00     0.199 C 
ATOM     16  O   UNL d   1     -42.409-123.470 -46.744  0.00  0.00    -0.286 OA
ATOM     17  C   UNL d   1     -41.123-122.857 -46.718  0.00  0.00     0.045 C 
ENDBRANCH  14  15
ENDBRANCH  11  14
ENDBRANCH   7   9
ENDBRANCH   3   6
BRANCH   1  18
ATOM     18  C   UNL d   1     -41.603-122.327 -53.939  0.00  0.00     0.033 A 
ATOM     19  C   UNL d   1     -42.152-121.838 -54.314  0.00  0.00     0.060 A 
ATOM     20 CL   UNL d   1     -42.621-121.323 -53.870  0.00  0.00    -0.082 Cl
ATOM     21  C   UNL d   1     -42.235-121.860 -55.131  0.00  0.00     0.011 A 
ATOM     22  C   UNL d   1     -41.766-122.376 -55.582  0.00  0.00     0.001 A 
ATOM     23  C   UNL d   1     -41.218-122.863 -55.211  0.00  0.00     0.000 A 
ATOM     24  C   UNL d   1     -41.133-122.843 -54.390  0.00  0.00     0.003 A 
ENDBRANCH   1  18
TORSDOF 5
ENDMDL
MODEL 3
REMARK VINA RESULT:      -5.4      1.939      5.657
REMARK  5 active torsions:
REMARK  status: ('A' for Active; 'I' for Inactive)
REMARK    1  A    between atoms: N_4  and  C_2 
REMARK    2  A    between atoms: C_11  and  C_3 
REMARK       I    between atoms: C_8  and  N_4 
REMARK    3  A    between atoms: C_14  and  C_5 
REMARK    4  A    between atoms: C_7  and  C_8 
REMARK    5  A    between atoms: C_17  and  C_14 
ROOT
ATOM      1  C   UNL d   1     -41.656-122.862 -53.440  0.00  0.00     0.101 A 
ATOM      2  O   UNL d   1     -41.808-122.536 -52.692  0.00  0.00    -0.302 OA
ATOM      3  C   UNL d   1     -41.487-123.039 -52.127  0.00  0.00     0.158 A 
ATOM      4  C   UNL d   1     -41.242-123.563 -53.330  0.00  0.00     0.027 A 
ATOM      5  C   UNL d   1     -41.135-123.679 -52.521  0.00  0.00     0.032 A 
ENDROOT
BRANCH   3   6
ATOM      6  C   UNL d   1     -41.511-122.928 -51.308  0.00  0.00     0.304 C 
ATOM      7  N   UNL d   1     -41.765-123.540 -50.818  0.00  0.00    -0.180 NA
ATOM      8  O   UNL d   1     -41.282-122.208 -50.988  0.00  0.00    -0.263 OA
BRANCH   7   9
ATOM      9  C   UNL d   1     -41.789-123.432 -50.002  0.00  0.00     0.216 A 
ATOM     10  N   UNL d   1     -42.442-123.550 -49.518  0.00  0.00    -0.200 NA
ATOM     11  C   UNL d   1     -42.219-123.377 -48.745  0.00  0.00     0.175 A 
ATOM     12  N   UNL d   1     -41.425-123.152 -48.751  0.00  0.00    -0.187 NA
ATOM     13  S   UNL d   1     -41.159-123.187 -49.535  0.00  0.00     0.054 SA
BRANCH  11  14
ATOM     14  C   UNL d   1     -42.700-123.420 -48.076  0.00  0.00     0.082 C 
BRANCH  14  15
ATOM     15  C   UNL d   1     -42.469-123.043 -47.379  0.00  0.00     0.199 C 
ATOM     16  O   UNL d   1     -42.300-122.239 -47.383  0.00  0.00    -0.286 OA
ATOM     17  C   UNL d   1     -42.408-123.472 -46.677  0.00  0.00     0.045 C 
ENDBRANCH  14  15
ENDBRANCH  11  14
ENDBRANCH   7   9
ENDBRANCH   3   6
BRANCH   1  18
ATOM     18  C   UNL d   1     -41.880-122.537 -54.166  0.00  0.00     0.033 A 
ATOM     19  C   UNL d   1     -41.618-122.879 -54.869  0.00  0.00     0.060 A 
ATOM     20 CL   UNL d   1     -41.131-123.546 -54.851  0.00  0.00    -0.082 Cl
ATOM     21  C   UNL d   1     -41.840-122.559 -55.593  0.00  0.00     0.011 A 
ATOM     22  C   UNL d   1     -42.329-121.888 -55.617  0.00  0.00     0.001 A 
ATOM     23  C   UNL d   1     -42.591-121.546 -54.918  0.00  0.00     0.000 A 
ATOM     24  C   UNL d   1     -42.370-121.866 -54.190  0.00  0.00     0.003 A 
ENDBRANCH   1  18
TORSDOF 5
ENDMDL
