MODEL 1
REMARK VINA RESULT:      -4.6      0.000      0.000
REMARK  5 active torsions:
REMARK  status: ('A' for Active; 'I' for Inactive)
REMARK    1  A    between atoms: C_11  and  C_1 
REMARK    2  A    between atoms: C_12  and  N_3 
REMARK    3  A    between atoms: C_7  and  S_13 
REMARK    4  A    between atoms: C_14  and  C_11 
REMARK    5  A    between atoms: S_13  and  C_14 
ROOT
ATOM      1  C   UNL d   1     -41.720-122.933 -51.262  0.00  0.00     0.057 A 
ATOM      2  C   UNL d   1     -41.641-123.227 -50.496  0.00  0.00     0.067 A 
ATOM      3  N   UNL d   1     -42.169-122.830 -50.018  0.00  0.00    -0.306 N 
ATOM      4  C   UNL d   1     -42.576-122.292 -50.476  0.00  0.00     0.064 A 
ATOM      5  C   UNL d   1     -42.306-122.347 -51.250  0.00  0.00     0.022 A 
ATOM      6  C   UNL d   1     -41.122-123.817 -50.250  0.00  0.00     0.019 C 
ATOM      7  C   UNL d   1     -43.126-121.696 -50.628  0.00  0.00     0.019 C 
ENDROOT
BRANCH   1   8
ATOM      8  C   UNL d   1     -41.554-122.872 -52.077  0.00  0.00     0.204 C 
ATOM      9  O   UNL d   1     -41.144-123.482 -52.469  0.00  0.00    -0.286 OA
BRANCH   8  10
ATOM     10  C   UNL d   1     -41.601-122.447 -52.784  0.00  0.00     0.080 C 
BRANCH  10  11
ATOM     11  S   UNL d   1     -41.585-122.849 -53.505  0.00  0.00    -0.043 SA
BRANCH  11  12
ATOM     12  C   UNL d   1     -41.686-122.435 -54.215  0.00  0.00     0.233 A 
ATOM     13  N   UNL d   1     -42.291-122.558 -54.754  0.00  0.00    -0.029 NA
ATOM     14  C   UNL d   1     -42.179-122.031 -55.373  0.00  0.00     0.788 A 
ATOM     15  N   UNL d   1     -42.657-121.958 -56.041  0.00  0.00     0.064 N 
ATOM     16  N   UNL d   1     -41.506-121.590 -55.208  0.00  0.00     0.050 NA
ATOM     17  N   UNL d   1     -41.193-121.838 -54.485  0.00  0.00    -0.105 NA
ENDBRANCH  11  12
ENDBRANCH  10  11
ENDBRANCH   8  10
ENDBRANCH   1   8
BRANCH   3  18
ATOM     18  C   UNL d   1     -42.275-122.953 -49.199  0.00  0.00     0.064 A 
ATOM     19  C   UNL d   1     -42.833-123.457 -48.958  0.00  0.00     0.020 A 
ATOM     20  C   UNL d   1     -42.937-123.578 -48.140  0.00  0.00     0.031 A 
ATOM     21  C   UNL d   1     -42.464-123.178 -47.593  0.00  0.00     0.140 A 
ATOM     22  C   UNL d   1     -41.893-122.661 -47.864  0.00  0.00     0.031 A 
ATOM     23  F   UNL d   1     -42.567-123.297 -46.783  0.00  0.00    -0.204 F 
ATOM     24  C   UNL d   1     -41.792-122.542 -48.668  0.00  0.00     0.020 A 
ENDBRANCH   3  18
TORSDOF 5
ENDMDL
MODEL 2
REMARK VINA RESULT:      -4.5      2.465      5.563
REMARK  5 active torsions:
REMARK  status: ('A' for Active; 'I' for Inactive)
REMARK    1  A    between atoms: C_11  and  C_1 
REMARK    2  A    between atoms: C_12  and  N_3 
REMARK    3  A    between atoms: C_7  and  S_13 
REMARK    4  A    between atoms: C_14  and  C_11 
REMARK    5  A    between atoms: S_13  and  C_14 
ROOT
ATOM      1  C   UNL d   1     -41.650-122.239 -52.207  0.00  0.00     0.057 A 
ATOM      2  C   UNL d   1     -41.905-121.864 -52.895  0.00  0.00     0.067 A 
ATOM      3  N   UNL d   1     -41.775-122.372 -53.520  0.00  0.00    -0.306 N 
ATOM      4  C   UNL d   1     -41.442-123.057 -53.230  0.00  0.00     0.064 A 
ATOM      5  C   UNL d   1     -41.360-122.985 -52.416  0.00  0.00     0.022 A 
ATOM      6  C   UNL d   1     -42.234-121.112 -52.950  0.00  0.00     0.019 C 
ATOM      7  C   UNL d   1     -41.123-123.817 -53.275  0.00  0.00     0.019 C 
ENDROOT
BRANCH   1   8
ATOM      8  C   UNL d   1     -41.504-122.315 -51.389  0.00  0.00     0.204 C 
ATOM      9  O   UNL d   1     -41.123-121.704 -50.971  0.00  0.00    -0.286 OA
BRANCH   8  10
ATOM     10  C   UNL d   1     -41.559-122.759 -50.694  0.00  0.00     0.080 C 
BRANCH  10  11
ATOM     11  S   UNL d   1     -41.862-122.411 -50.009  0.00  0.00    -0.043 SA
BRANCH  11  12
ATOM     12  C   UNL d   1     -42.008-122.873 -49.337  0.00  0.00     0.233 A 
ATOM     13  N   UNL d   1     -42.748-123.038 -49.026  0.00  0.00    -0.029 NA
ATOM     14  C   UNL d   1     -42.636-123.510 -48.365  0.00  0.00     0.788 A 
ATOM     15  N   UNL d   1     -43.229-123.811 -47.877  0.00  0.00     0.064 N 
ATOM     16  N   UNL d   1     -41.829-123.631 -48.276  0.00  0.00     0.050 NA
ATOM     17  N   UNL d   1     -41.430-123.234 -48.881  0.00  0.00    -0.105 NA
ENDBRANCH  11  12
ENDBRANCH  10  11
ENDBRANCH   8  10
ENDBRANCH   1   8
BRANCH   3  18
ATOM     18  C   UNL d   1     -41.952-122.216 -54.321  0.00  0.00     0.064 A 
ATOM     19  C   UNL d   1     -41.358-122.170 -54.842  0.00  0.00     0.020 A 
ATOM     20  C   UNL d   1     -41.538-122.014 -55.641  0.00  0.00     0.031 A 
ATOM     21  C   UNL d   1     -42.321-121.910 -55.881  0.00  0.00     0.140 A 
ATOM     22  C   UNL d   1     -42.919-121.962 -55.328  0.00  0.00     0.031 A 
ATOM     23  F   UNL d   1     -42.500-121.756 -56.673  0.00  0.00    -0.204 F 
ATOM     24  C   UNL d   1     -42.742-122.115 -54.543  0.00  0.00     0.020 A 
ENDBRANCH   3  18
TORSDOF 5
ENDMDL
