MODEL 1
REMARK VINA RESULT:       2.3      0.000      0.000
REMARK  4 active torsions:
REMARK  status: ('A' for Active; 'I' for Inactive)
REMARK    1  A    between atoms: C_8  and  C_1 
REMARK    2  A    between atoms: N_5  and  C_2 
REMARK       I    between atoms: C_6  and  N_5 
REMARK    3  A    between atoms: C_10  and  C_6 
REMARK    4  A    between atoms: N_9  and  C_8 
ROOT
ATOM      1  C   UNL d   1     -42.190-122.312 -51.974  0.00  0.00     0.042 A 
ATOM      2  C   UNL d   1     -42.635-122.313 -51.282  0.00  0.00     0.115 A 
ATOM      3  S   UNL d   1     -42.385-121.669 -50.830  0.00  0.00    -0.068 SA
ATOM      4  C   UNL d   1     -41.675-121.676 -51.944  0.00  0.00     0.009 A 
ATOM      5  C   UNL d   1     -41.797-121.281 -51.237  0.00  0.00     0.031 A 
ATOM      6  C   UNL d   1     -41.124-121.473 -52.534  0.00  0.00     0.001 C 
ATOM      7  C   UNL d   1     -41.402-120.604 -50.967  0.00  0.00     0.007 C 
ENDROOT
BRANCH   2   8
ATOM      8  N   UNL d   1     -43.223-122.853 -51.073  0.00  0.00    -0.201 NA
ATOM      9  C   UNL d   1     -43.157-123.282 -50.368  0.00  0.00     0.282 C 
ATOM     10  O   UNL d   1     -43.744-123.817 -50.166  0.00  0.00    -0.265 OA
BRANCH   9  11
ATOM     11  C   UNL d   1     -42.502-123.170 -49.876  0.00  0.00     0.085 A 
ATOM     12  C   UNL d   1     -42.588-122.731 -49.181  0.00  0.00     0.145 A 
ATOM     13  F   UNL d   1     -43.287-122.380 -48.918  0.00  0.00    -0.204 F 
ATOM     14  C   UNL d   1     -41.938-122.616 -48.685  0.00  0.00     0.030 A 
ATOM     15  C   UNL d   1     -41.206-122.943 -48.893  0.00  0.00     0.002 A 
ATOM     16  C   UNL d   1     -41.123-123.380 -49.586  0.00  0.00     0.000 A 
ATOM     17  C   UNL d   1     -41.778-123.491 -50.078  0.00  0.00     0.007 A 
ENDBRANCH   9  11
ENDBRANCH   2   8
BRANCH   1  18
ATOM     18  C   UNL d   1     -42.190-122.818 -52.634  0.00  0.00     0.082 C 
BRANCH  18  19
ATOM     19  N   UNL d   1     -42.373-122.516 -53.375  0.00  0.00    -0.304 N 
ATOM     20  C   UNL d   1     -42.023-122.853 -54.054  0.00  0.00     0.064 A 
ATOM     21  C   UNL d   1     -41.500-123.483 -53.977  0.00  0.00     0.019 C 
ATOM     22  C   UNL d   1     -42.202-122.552 -54.805  0.00  0.00     0.018 A 
ATOM     23  C   UNL d   1     -42.724-121.924 -54.879  0.00  0.00     0.003 A 
ATOM     24  C   UNL d   1     -43.069-121.591 -54.205  0.00  0.00     0.019 A 
ATOM     25  C   UNL d   1     -42.893-121.887 -53.461  0.00  0.00     0.080 A 
ENDBRANCH  18  19
ENDBRANCH   1  18
TORSDOF 4
ENDMDL
MODEL 2
REMARK VINA RESULT:       3.0      1.937      4.177
REMARK  4 active torsions:
REMARK  status: ('A' for Active; 'I' for Inactive)
REMARK    1  A    between atoms: C_8  and  C_1 
REMARK    2  A    between atoms: N_5  and  C_2 
REMARK       I    between atoms: C_6  and  N_5 
REMARK    3  A    between atoms: C_10  and  C_6 
REMARK    4  A    between atoms: N_9  and  C_8 
ROOT
ATOM      1  C   UNL d   1     -41.792-121.921 -52.697  0.00  0.00     0.042 A 
ATOM      2  C   UNL d   1     -42.320-122.090 -53.305  0.00  0.00     0.115 A 
ATOM      3  S   UNL d   1     -42.514-121.374 -53.667  0.00  0.00    -0.068 SA
ATOM      4  C   UNL d   1     -41.665-121.112 -52.688  0.00  0.00     0.009 A 
ATOM      5  C   UNL d   1     -42.112-120.777 -53.288  0.00  0.00     0.031 A 
ATOM      6  C   UNL d   1     -41.167-120.708 -52.159  0.00  0.00     0.001 C 
ATOM      7  C   UNL d   1     -42.159-119.974 -53.488  0.00  0.00     0.007 C 
ENDROOT
BRANCH   2   8
ATOM      8  N   UNL d   1     -42.607-122.834 -53.519  0.00  0.00    -0.201 NA
ATOM      9  C   UNL d   1     -42.574-123.077 -54.310  0.00  0.00     0.282 C 
ATOM     10  O   UNL d   1     -42.861-123.817 -54.516  0.00  0.00    -0.265 OA
BRANCH   9  11
ATOM     11  C   UNL d   1     -42.254-122.575 -54.883  0.00  0.00     0.085 A 
ATOM     12  C   UNL d   1     -42.759-122.196 -55.417  0.00  0.00     0.145 A 
ATOM     13  F   UNL d   1     -43.580-122.270 -55.437  0.00  0.00    -0.204 F 
ATOM     14  C   UNL d   1     -42.446-121.694 -55.992  0.00  0.00     0.030 A 
ATOM     15  C   UNL d   1     -41.626-121.576 -56.025  0.00  0.00     0.002 A 
ATOM     16  C   UNL d   1     -41.126-121.955 -55.493  0.00  0.00     0.000 A 
ATOM     17  C   UNL d   1     -41.446-122.457 -54.919  0.00  0.00     0.007 A 
ENDBRANCH   9  11
ENDBRANCH   2   8
BRANCH   1  18
ATOM     18  C   UNL d   1     -41.408-122.410 -52.145  0.00  0.00     0.082 C 
BRANCH  18  19
ATOM     19  N   UNL d   1     -41.738-122.518 -51.402  0.00  0.00    -0.304 N 
ATOM     20  C   UNL d   1     -41.594-123.229 -50.987  0.00  0.00     0.064 A 
ATOM     21  C   UNL d   1     -41.123-123.813 -51.325  0.00  0.00     0.019 C 
ATOM     22  C   UNL d   1     -41.925-123.344 -50.237  0.00  0.00     0.018 A 
ATOM     23  C   UNL d   1     -42.394-122.760 -49.903  0.00  0.00     0.003 A 
ATOM     24  C   UNL d   1     -42.536-122.058 -50.315  0.00  0.00     0.019 A 
ATOM     25  C   UNL d   1     -42.209-121.941 -51.058  0.00  0.00     0.080 A 
ENDBRANCH  18  19
ENDBRANCH   1  18
TORSDOF 4
ENDMDL
