MODEL 1
REMARK VINA RESULT:      31.6      0.000      0.000
REMARK  2 active torsions:
REMARK  status: ('A' for Active; 'I' for Inactive)
REMARK       I    between atoms: C_9  and  N_1 
REMARK    1  A    between atoms: C_5  and  C_3 
REMARK    2  A    between atoms: C_8  and  C_4 
ROOT
ATOM      1  N   UNL d   1     -50.504  24.517  33.608  0.00  0.00    -0.193 N 
ATOM      2  N   UNL d   1     -51.128  24.003  33.605  0.00  0.00    -0.162 NA
ATOM      3  C   UNL d   1     -50.798  25.277  33.471  0.00  0.00     0.110 A 
ATOM      4  C   UNL d   1     -51.822  24.430  33.467  0.00  0.00     0.109 A 
ATOM      5  C   UNL d   1     -51.597  25.213  33.387  0.00  0.00     0.043 A 
ATOM      6  C   UNL d   1     -49.583  24.356  33.735  0.00  0.00     0.281 C 
ATOM      7  O   UNL d   1     -49.092  24.989  33.706  0.00  0.00    -0.265 OA
ATOM      8  C   UNL d   1     -49.289  23.596  33.872  0.00  0.00     0.068 C 
ENDROOT
BRANCH   3   9
ATOM      9  C   UNL d   1     -50.348  25.947  33.432  0.00  0.00     0.118 A 
ATOM     10  O   UNL d   1     -50.644  26.716  33.465  0.00  0.00    -0.306 OA
ATOM     11  C   UNL d   1     -49.993  27.235  33.406  0.00  0.00     0.100 A 
ATOM     12  C   UNL d   1     -50.049  28.069  33.416  0.00  0.00     0.027 C 
ATOM     13  C   UNL d   1     -49.297  26.796  33.337  0.00  0.00     0.027 A 
ATOM     14  C   UNL d   1     -49.520  26.004  33.354  0.00  0.00     0.028 A 
ENDBRANCH   3   9
BRANCH   4  15
ATOM     15  C   UNL d   1     -52.588  24.125  33.421  0.00  0.00     0.049 A 
ATOM     16  S   UNL d   1     -53.260  24.556  33.324  0.00  0.00    -0.085 SA
ATOM     17  C   UNL d   1     -53.886  24.049  33.306  0.00  0.00     0.035 A 
ATOM     18  C   UNL d   1     -53.587  23.285  33.395  0.00  0.00     0.007 A 
ATOM     19  C   UNL d   1     -52.783  23.338  33.465  0.00  0.00     0.009 A 
ENDBRANCH   4  15
TORSDOF 2
ENDMDL
