MODEL 1
REMARK VINA RESULT:      -5.4      0.000      0.000
REMARK  4 active torsions:
REMARK  status: ('A' for Active; 'I' for Inactive)
REMARK    1  A    between atoms: N_2  and  S_1 
REMARK    2  A    between atoms: N_3  and  S_1 
REMARK    3  A    between atoms: C_8  and  N_3 
REMARK    4  A    between atoms: C_6  and  C_8 
ROOT
ATOM      1  S   UNL d   1     -41.427-122.563 -52.228  0.00  0.00     0.351 S 
ATOM      2  O   UNL d   1     -41.725-123.298 -52.461  0.00  0.00    -0.180 OA
ATOM      3  O   UNL d   1     -41.131-121.832 -51.998  0.00  0.00    -0.180 OA
ENDROOT
BRANCH   1   4
ATOM      4  N   UNL d   1     -41.504-122.787 -51.437  0.00  0.00    -0.211 N 
ATOM      5  C   UNL d   1     -41.760-122.229 -50.886  0.00  0.00     0.120 C 
ATOM      6  C   UNL d   1     -41.836-122.454 -50.099  0.00  0.00     0.142 C 
ATOM      7  O   UNL d   1     -41.556-123.187 -49.845  0.00  0.00    -0.300 OA
ATOM      8  C   UNL d   1     -41.200-123.697 -50.382  0.00  0.00     0.142 C 
ATOM      9  C   UNL d   1     -41.123-123.472 -51.173  0.00  0.00     0.120 C 
ENDBRANCH   1   4
BRANCH   1  10
ATOM     10  N   UNL d   1     -41.327-122.282 -52.994  0.00  0.00    -0.144 NA
BRANCH  10  11
ATOM     11  C   UNL d   1     -41.819-122.549 -53.613  0.00  0.00     0.121 C 
BRANCH  11  12
ATOM     12  C   UNL d   1     -41.885-122.109 -54.323  0.00  0.00     0.185 C 
ATOM     13  O   UNL d   1     -42.669-121.867 -54.606  0.00  0.00    -0.321 OA
ATOM     14  C   UNL d   1     -42.586-121.667 -55.400  0.00  0.00     0.117 C 
ATOM     15  C   UNL d   1     -41.885-121.999 -55.682  0.00  0.00     0.025 C 
ATOM     16  C   UNL d   1     -41.531-122.409 -55.057  0.00  0.00     0.012 C 
ENDBRANCH  11  12
ENDBRANCH  10  11
ENDBRANCH   1  10
TORSDOF 4
ENDMDL
MODEL 2
REMARK VINA RESULT:      -5.2      0.866      3.928
REMARK  4 active torsions:
REMARK  status: ('A' for Active; 'I' for Inactive)
REMARK    1  A    between atoms: N_2  and  S_1 
REMARK    2  A    between atoms: N_3  and  S_1 
REMARK    3  A    between atoms: C_8  and  N_3 
REMARK    4  A    between atoms: C_6  and  C_8 
ROOT
ATOM      1  S   UNL d   1     -41.529-122.711 -53.116  0.00  0.00     0.351 S 
ATOM      2  O   UNL d   1     -41.193-121.979 -52.934  0.00  0.00    -0.180 OA
ATOM      3  O   UNL d   1     -41.863-123.440 -53.296  0.00  0.00    -0.180 OA
ENDROOT
BRANCH   1   4
ATOM      4  N   UNL d   1     -41.619-122.470 -53.901  0.00  0.00    -0.211 N 
ATOM      5  C   UNL d   1     -42.286-122.032 -54.111  0.00  0.00     0.120 C 
ATOM      6  C   UNL d   1     -42.375-121.793 -54.892  0.00  0.00     0.142 C 
ATOM      7  O   UNL d   1     -41.867-122.080 -55.476  0.00  0.00    -0.300 OA
ATOM      8  C   UNL d   1     -41.270-122.606 -55.276  0.00  0.00     0.142 C 
ATOM      9  C   UNL d   1     -41.180-122.847 -54.492  0.00  0.00     0.120 C 
ENDBRANCH   1   4
BRANCH   1  10
ATOM     10  N   UNL d   1     -41.466-123.008 -52.353  0.00  0.00    -0.144 NA
BRANCH  10  11
ATOM     11  C   UNL d   1     -41.565-122.508 -51.692  0.00  0.00     0.121 C 
BRANCH  11  12
ATOM     12  C   UNL d   1     -41.742-122.829 -50.938  0.00  0.00     0.185 C 
ATOM     13  O   UNL d   1     -42.401-122.505 -50.477  0.00  0.00    -0.321 OA
ATOM     14  C   UNL d   1     -42.294-122.751 -49.699  0.00  0.00     0.117 C 
ATOM     15  C   UNL d   1     -41.507-122.982 -49.604  0.00  0.00     0.025 C 
ATOM     16  C   UNL d   1     -41.124-122.879 -50.329  0.00  0.00     0.012 C 
ENDBRANCH  11  12
ENDBRANCH  10  11
ENDBRANCH   1  10
TORSDOF 4
ENDMDL
MODEL 3
REMARK VINA RESULT:      -4.8      0.914      3.979
REMARK  4 active torsions:
REMARK  status: ('A' for Active; 'I' for Inactive)
REMARK    1  A    between atoms: N_2  and  S_1 
REMARK    2  A    between atoms: N_3  and  S_1 
REMARK    3  A    between atoms: C_8  and  N_3 
REMARK    4  A    between atoms: C_6  and  C_8 
ROOT
ATOM      1  S   UNL d   1     -41.499-122.696 -53.449  0.00  0.00     0.351 S 
ATOM      2  O   UNL d   1     -41.788-123.451 -53.617  0.00  0.00    -0.180 OA
ATOM      3  O   UNL d   1     -41.210-121.945 -53.280  0.00  0.00    -0.180 OA
ENDROOT
BRANCH   1   4
ATOM      4  N   UNL d   1     -41.785-122.429 -54.176  0.00  0.00    -0.211 N 
ATOM      5  C   UNL d   1     -41.353-122.590 -54.860  0.00  0.00     0.120 C 
ATOM      6  C   UNL d   1     -41.638-122.324 -55.583  0.00  0.00     0.142 C 
ATOM      7  O   UNL d   1     -42.283-121.810 -55.613  0.00  0.00    -0.300 OA
ATOM      8  C   UNL d   1     -42.642-121.563 -54.917  0.00  0.00     0.142 C 
ATOM      9  C   UNL d   1     -42.356-121.830 -54.190  0.00  0.00     0.120 C 
ENDBRANCH   1   4
BRANCH   1  10
ATOM     10  N   UNL d   1     -41.192-122.901 -52.714  0.00  0.00    -0.144 NA
BRANCH  10  11
ATOM     11  C   UNL d   1     -41.643-122.793 -52.020  0.00  0.00     0.121 C 
BRANCH  11  12
ATOM     12  C   UNL d   1     -41.404-123.149 -51.299  0.00  0.00     0.185 C 
ATOM     13  O   UNL d   1     -41.946-123.685 -50.886  0.00  0.00    -0.321 OA
ATOM     14  C   UNL d   1     -41.673-123.752 -50.112  0.00  0.00     0.117 C 
ATOM     15  C   UNL d   1     -41.166-123.119 -49.957  0.00  0.00     0.025 C 
ATOM     16  C   UNL d   1     -41.125-122.656 -50.641  0.00  0.00     0.012 C 
ENDBRANCH  11  12
ENDBRANCH  10  11
ENDBRANCH   1  10
TORSDOF 4
ENDMDL
MODEL 4
REMARK VINA RESULT:      -4.7      0.754      4.022
REMARK  4 active torsions:
REMARK  status: ('A' for Active; 'I' for Inactive)
REMARK    1  A    between atoms: N_2  and  S_1 
REMARK    2  A    between atoms: N_3  and  S_1 
REMARK    3  A    between atoms: C_8  and  N_3 
REMARK    4  A    between atoms: C_6  and  C_8 
ROOT
ATOM      1  S   UNL d   1     -41.389-122.629 -52.597  0.00  0.00     0.351 S 
ATOM      2  O   UNL d   1     -41.612-123.423 -52.566  0.00  0.00    -0.180 OA
ATOM      3  O   UNL d   1     -41.166-121.838 -52.626  0.00  0.00    -0.180 OA
ENDROOT
BRANCH   1   4
ATOM      4  N   UNL d   1     -41.534-122.623 -53.410  0.00  0.00    -0.211 N 
ATOM      5  C   UNL d   1     -41.123-123.150 -53.894  0.00  0.00     0.120 C 
ATOM      6  C   UNL d   1     -41.268-123.143 -54.703  0.00  0.00     0.142 C 
ATOM      7  O   UNL d   1     -41.731-122.548 -55.038  0.00  0.00    -0.300 OA
ATOM      8  C   UNL d   1     -42.048-121.959 -54.562  0.00  0.00     0.142 C 
ATOM      9  C   UNL d   1     -41.902-121.965 -53.750  0.00  0.00     0.120 C 
ENDBRANCH   1   4
BRANCH   1  10
ATOM     10  N   UNL d   1     -41.227-122.571 -51.793  0.00  0.00    -0.144 NA
BRANCH  10  11
ATOM     11  C   UNL d   1     -41.656-123.024 -51.239  0.00  0.00     0.121 C 
BRANCH  11  12
ATOM     12  C   UNL d   1     -41.585-122.869 -50.418  0.00  0.00     0.185 C 
ATOM     13  O   UNL d   1     -41.123-123.407 -49.919  0.00  0.00    -0.321 OA
ATOM     14  C   UNL d   1     -41.345-123.261 -49.140  0.00  0.00     0.117 C 
ATOM     15  C   UNL d   1     -42.068-122.863 -49.143  0.00  0.00     0.025 C 
ATOM     16  C   UNL d   1     -42.297-122.763 -49.932  0.00  0.00     0.012 C 
ENDBRANCH  11  12
ENDBRANCH  10  11
ENDBRANCH   1  10
TORSDOF 4
ENDMDL
MODEL 5
REMARK VINA RESULT:      -3.9      1.388      1.972
REMARK  4 active torsions:
REMARK  status: ('A' for Active; 'I' for Inactive)
REMARK    1  A    between atoms: N_2  and  S_1 
REMARK    2  A    between atoms: N_3  and  S_1 
REMARK    3  A    between atoms: C_8  and  N_3 
REMARK    4  A    between atoms: C_6  and  C_8 
ROOT
ATOM      1  S   UNL d   1     -41.887-122.667 -50.446  0.00  0.00     0.351 S 
ATOM      2  O   UNL d   1     -41.123-122.959 -50.333  0.00  0.00    -0.180 OA
ATOM      3  O   UNL d   1     -42.648-122.375 -50.559  0.00  0.00    -0.180 OA
ENDROOT
BRANCH   1   4
ATOM      4  N   UNL d   1     -42.098-122.939 -49.695  0.00  0.00    -0.211 N 
ATOM      5  C   UNL d   1     -42.882-122.867 -49.448  0.00  0.00     0.120 C 
ATOM      6  C   UNL d   1     -43.090-123.138 -48.701  0.00  0.00     0.142 C 
ATOM      7  O   UNL d   1     -42.508-123.374 -48.165  0.00  0.00    -0.300 OA
ATOM      8  C   UNL d   1     -41.716-123.337 -48.380  0.00  0.00     0.142 C 
ATOM      9  C   UNL d   1     -41.506-123.065 -49.131  0.00  0.00     0.120 C 
ENDBRANCH   1   4
BRANCH   1  10
ATOM     10  N   UNL d   1     -41.740-122.374 -51.199  0.00  0.00    -0.144 NA
BRANCH  10  11
ATOM     11  C   UNL d   1     -41.764-122.877 -51.864  0.00  0.00     0.121 C 
BRANCH  11  12
ATOM     12  C   UNL d   1     -41.437-122.631 -52.596  0.00  0.00     0.185 C 
ATOM     13  O   UNL d   1     -41.879-122.079 -53.098  0.00  0.00    -0.321 OA
ATOM     14  C   UNL d   1     -41.552-122.127 -53.852  0.00  0.00     0.117 C 
ATOM     15  C   UNL d   1     -41.123-122.831 -53.907  0.00  0.00     0.025 C 
ATOM     16  C   UNL d   1     -41.185-123.221 -53.181  0.00  0.00     0.012 C 
ENDBRANCH  11  12
ENDBRANCH  10  11
ENDBRANCH   1  10
TORSDOF 4
ENDMDL
MODEL 6
REMARK VINA RESULT:      -3.5      1.639      4.462
REMARK  4 active torsions:
REMARK  status: ('A' for Active; 'I' for Inactive)
REMARK    1  A    between atoms: N_2  and  S_1 
REMARK    2  A    between atoms: N_3  and  S_1 
REMARK    3  A    between atoms: C_8  and  N_3 
REMARK    4  A    between atoms: C_6  and  C_8 
ROOT
ATOM      1  S   UNL d   1     -41.520-122.855 -50.900  0.00  0.00     0.351 S 
ATOM      2  O   UNL d   1     -41.901-123.588 -50.901  0.00  0.00    -0.180 OA
ATOM      3  O   UNL d   1     -41.141-122.126 -50.898  0.00  0.00    -0.180 OA
ENDROOT
BRANCH   1   4
ATOM      4  N   UNL d   1     -41.353-122.945 -51.704  0.00  0.00    -0.211 N 
ATOM      5  C   UNL d   1     -41.290-122.273 -52.178  0.00  0.00     0.120 C 
ATOM      6  C   UNL d   1     -41.125-122.363 -52.978  0.00  0.00     0.142 C 
ATOM      7  O   UNL d   1     -41.133-123.113 -53.323  0.00  0.00    -0.300 OA
ATOM      8  C   UNL d   1     -41.307-123.772 -52.865  0.00  0.00     0.142 C 
ATOM      9  C   UNL d   1     -41.474-123.682 -52.061  0.00  0.00     0.120 C 
ENDBRANCH   1   4
BRANCH   1  10
ATOM     10  N   UNL d   1     -41.654-122.707 -50.103  0.00  0.00    -0.144 NA
BRANCH  10  11
ATOM     11  C   UNL d   1     -41.985-123.295 -49.612  0.00  0.00     0.121 C 
BRANCH  11  12
ATOM     12  C   UNL d   1     -42.118-123.143 -48.798  0.00  0.00     0.185 C 
ATOM     13  O   UNL d   1     -41.486-123.298 -48.224  0.00  0.00    -0.321 OA
ATOM     14  C   UNL d   1     -41.840-123.328 -47.481  0.00  0.00     0.117 C 
ATOM     15  C   UNL d   1     -42.650-123.452 -47.581  0.00  0.00     0.025 C 
ATOM     16  C   UNL d   1     -42.799-123.499 -48.393  0.00  0.00     0.012 C 
ENDBRANCH  11  12
ENDBRANCH  10  11
ENDBRANCH   1  10
TORSDOF 4
ENDMDL
MODEL 7
REMARK VINA RESULT:      -3.3      1.797      4.600
REMARK  4 active torsions:
REMARK  status: ('A' for Active; 'I' for Inactive)
REMARK    1  A    between atoms: N_2  and  S_1 
REMARK    2  A    between atoms: N_3  and  S_1 
REMARK    3  A    between atoms: C_8  and  N_3 
REMARK    4  A    between atoms: C_6  and  C_8 
ROOT
ATOM      1  S   UNL d   1     -41.850-122.821 -50.674  0.00  0.00     0.351 S 
ATOM      2  O   UNL d   1     -42.372-122.202 -50.512  0.00  0.00    -0.180 OA
ATOM      3  O   UNL d   1     -41.332-123.438 -50.835  0.00  0.00    -0.180 OA
ENDROOT
BRANCH   1   4
ATOM      4  N   UNL d   1     -41.572-122.409 -51.333  0.00  0.00    -0.211 N 
ATOM      5  C   UNL d   1     -41.659-121.589 -51.359  0.00  0.00     0.120 C 
ATOM      6  C   UNL d   1     -41.381-121.179 -52.015  0.00  0.00     0.142 C 
ATOM      7  O   UNL d   1     -41.123-121.589 -52.683  0.00  0.00    -0.300 OA
ATOM      8  C   UNL d   1     -41.143-122.409 -52.693  0.00  0.00     0.142 C 
ATOM      9  C   UNL d   1     -41.421-122.822 -52.034  0.00  0.00     0.120 C 
ENDBRANCH   1   4
BRANCH   1  10
ATOM     10  N   UNL d   1     -42.085-123.280 -50.034  0.00  0.00    -0.144 NA
BRANCH  10  11
ATOM     11  C   UNL d   1     -42.055-122.974 -49.258  0.00  0.00     0.121 C 
BRANCH  11  12
ATOM     12  C   UNL d   1     -42.213-123.469 -48.600  0.00  0.00     0.185 C 
ATOM     13  O   UNL d   1     -42.981-123.421 -48.201  0.00  0.00    -0.321 OA
ATOM     14  C   UNL d   1     -42.891-123.776 -47.464  0.00  0.00     0.117 C 
ATOM     15  C   UNL d   1     -42.086-123.810 -47.286  0.00  0.00     0.025 C 
ATOM     16  C   UNL d   1     -41.673-123.474 -47.919  0.00  0.00     0.012 C 
ENDBRANCH  11  12
ENDBRANCH  10  11
ENDBRANCH   1  10
TORSDOF 4
ENDMDL
