MODEL 1
REMARK VINA RESULT:      -2.4      0.000      0.000
REMARK  6 active torsions:
REMARK  status: ('A' for Active; 'I' for Inactive)
REMARK    1  A    between atoms: C_4  and  C_1 
REMARK    2  A    between atoms: C_7  and  C_4 
REMARK    3  A    between atoms: N_10  and  C_7 
REMARK    4  A    between atoms: C_11  and  N_10 
REMARK    5  A    between atoms: O_14  and  C_12 
REMARK    6  A    between atoms: C_19  and  O_14 
ROOT
ATOM      1  C   UNL d   1      32.061  16.794 -23.899  0.00  0.00     0.122 C 
ATOM      2  C   UNL d   1      32.575  16.163 -24.017  0.00  0.00     0.106 C 
ATOM      3  N   UNL d   1      33.090  15.531 -24.135  0.00  0.00    -0.191 NA
ENDROOT
BRANCH   1   4
ATOM      4  C   UNL d   1      32.324  17.568 -24.011  0.00  0.00     0.159 A 
ATOM      5  N   UNL d   1      32.394  17.960 -24.735  0.00  0.00    -0.226 NA
ATOM      6  C   UNL d   1      32.675  18.715 -24.591  0.00  0.00     0.099 A 
ATOM      7  C   UNL d   1      32.853  19.351 -25.095  0.00  0.00     0.021 A 
ATOM      8  C   UNL d   1      32.781  18.798 -23.777  0.00  0.00     0.083 A 
ATOM      9  C   UNL d   1      33.134  20.060 -24.777  0.00  0.00     0.002 A 
ATOM     10  C   UNL d   1      33.240  20.142 -23.964  0.00  0.00     0.002 A 
ATOM     11  C   UNL d   1      33.065  19.516 -23.459  0.00  0.00     0.019 A 
ATOM     12  N   UNL d   1      32.566  18.093 -23.416  0.00  0.00    -0.287 N 
ATOM     13  C   UNL d   1      32.583  17.924 -22.603  0.00  0.00     0.101 C 
ENDBRANCH   1   4
BRANCH   1  14
ATOM     14  C   UNL d   1      31.283  16.653 -23.668  0.00  0.00     0.112 C 
BRANCH  14  15
ATOM     15  N   UNL d   1      30.693  16.564 -24.238  0.00  0.00    -0.241 NA
BRANCH  15  16
ATOM     16  C   UNL d   1      29.931  16.337 -24.012  0.00  0.00     0.104 A 
ATOM     17  C   UNL d   1      29.271  16.743 -24.297  0.00  0.00     0.118 A 
ATOM     18  C   UNL d   1      28.513  16.514 -24.069  0.00  0.00     0.026 A 
ATOM     19  C   UNL d   1      28.414  15.875 -23.552  0.00  0.00     0.002 A 
ATOM     20  C   UNL d   1      29.081  15.461 -23.260  0.00  0.00     0.002 A 
ATOM     21  C   UNL d   1      29.838  15.699 -23.496  0.00  0.00     0.021 A 
BRANCH  17  22
ATOM     22  O   UNL d   1      29.374  17.375 -24.808  0.00  0.00    -0.304 OA
BRANCH  22  23
ATOM     23  C   UNL d   1      28.731  17.857 -24.994  0.00  0.00     0.123 C 
ATOM     24  C   UNL d   1      28.835  18.665 -25.097  0.00  0.00     0.029 C 
ENDBRANCH  22  23
ENDBRANCH  17  22
ENDBRANCH  15  16
ENDBRANCH  14  15
ENDBRANCH   1  14
TORSDOF 6
ENDMDL
MODEL 2
REMARK VINA RESULT:       0.4      2.818      4.526
REMARK  6 active torsions:
REMARK  status: ('A' for Active; 'I' for Inactive)
REMARK    1  A    between atoms: C_4  and  C_1 
REMARK    2  A    between atoms: C_7  and  C_4 
REMARK    3  A    between atoms: N_10  and  C_7 
REMARK    4  A    between atoms: C_11  and  N_10 
REMARK    5  A    between atoms: O_14  and  C_12 
REMARK    6  A    between atoms: C_19  and  O_14 
ROOT
ATOM      1  C   UNL d   1      33.119  20.161 -21.601  0.00  0.00     0.122 C 
ATOM      2  C   UNL d   1      33.179  19.612 -20.992  0.00  0.00     0.106 C 
ATOM      3  N   UNL d   1      33.240  19.061 -20.382  0.00  0.00    -0.191 NA
ENDROOT
BRANCH   1   4
ATOM      4  C   UNL d   1      32.935  20.948 -21.432  0.00  0.00     0.159 A 
ATOM      5  N   UNL d   1      33.104  21.602 -21.908  0.00  0.00    -0.226 NA
ATOM      6  C   UNL d   1      32.826  22.272 -21.528  0.00  0.00     0.099 A 
ATOM      7  C   UNL d   1      32.836  23.076 -21.736  0.00  0.00     0.021 A 
ATOM      8  C   UNL d   1      32.483  22.039 -20.815  0.00  0.00     0.083 A 
ATOM      9  C   UNL d   1      32.504  23.635 -21.225  0.00  0.00     0.002 A 
ATOM     10  C   UNL d   1      32.162  23.402 -20.513  0.00  0.00     0.002 A 
ATOM     11  C   UNL d   1      32.149  22.606 -20.302  0.00  0.00     0.019 A 
ATOM     12  N   UNL d   1      32.549  21.223 -20.752  0.00  0.00    -0.287 N 
ATOM     13  C   UNL d   1      32.281  20.749 -20.124  0.00  0.00     0.101 C 
ENDBRANCH   1   4
BRANCH   1  14
ATOM     14  C   UNL d   1      33.241  19.926 -22.381  0.00  0.00     0.112 C 
BRANCH  14  15
ATOM     15  N   UNL d   1      32.900  19.228 -22.659  0.00  0.00    -0.241 NA
BRANCH  15  16
ATOM     16  C   UNL d   1      32.884  19.071 -23.472  0.00  0.00     0.104 A 
ATOM     17  C   UNL d   1      32.520  18.389 -23.760  0.00  0.00     0.118 A 
ATOM     18  C   UNL d   1      32.506  18.237 -24.569  0.00  0.00     0.026 A 
ATOM     19  C   UNL d   1      32.858  18.771 -25.094  0.00  0.00     0.002 A 
ATOM     20  C   UNL d   1      33.228  19.465 -24.806  0.00  0.00     0.002 A 
ATOM     21  C   UNL d   1      33.237  19.608 -23.991  0.00  0.00     0.021 A 
BRANCH  17  22
ATOM     22  O   UNL d   1      32.173  17.863 -23.236  0.00  0.00    -0.304 OA
BRANCH  22  23
ATOM     23  C   UNL d   1      32.264  17.052 -23.353  0.00  0.00     0.123 C 
ATOM     24  C   UNL d   1      31.860  16.517 -22.880  0.00  0.00     0.029 C 
ENDBRANCH  22  23
ENDBRANCH  17  22
ENDBRANCH  15  16
ENDBRANCH  14  15
ENDBRANCH   1  14
TORSDOF 6
ENDMDL
