MODEL 1
REMARK VINA RESULT:      -6.1      0.000      0.000
REMARK  6 active torsions:
REMARK  status: ('A' for Active; 'I' for Inactive)
REMARK       I    between atoms: N_2  and  C_1 
REMARK       I    between atoms: N_7  and  C_1 
REMARK    1  A    between atoms: C_4  and  N_2 
REMARK       I    between atoms: C_3  and  N_8 
REMARK    2  A    between atoms: C_6  and  C_3 
REMARK    3  A    between atoms: N_5  and  C_12 
REMARK    4  A    between atoms: C_12  and  C_6 
REMARK    5  A    between atoms: N_8  and  N_7 
REMARK    6  A    between atoms: O_14  and  C_10 
ROOT
ATOM      1  C   UNL d   1     -45.076  13.029  22.254  0.00  0.00     0.387 C 
ATOM      2  N   UNL d   1     -45.589  12.600  22.742  0.00  0.00    -0.188 NA
ATOM      3  N   UNL d   1     -44.345  12.726  22.068  0.00  0.00    -0.085 NA
ATOM      4  O   UNL d   1     -45.312  13.765  21.960  0.00  0.00    -0.241 OA
ENDROOT
BRANCH   3   5
ATOM      5  N   UNL d   1     -43.832  13.155  21.581  0.00  0.00    -0.101 NA
ATOM      6  C   UNL d   1     -43.057  12.896  21.465  0.00  0.00     0.298 C 
ATOM      7  O   UNL d   1     -42.796  12.207  21.837  0.00  0.00    -0.264 OA
BRANCH   6   8
ATOM      8  C   UNL d   1     -42.551  13.326  20.980  0.00  0.00     0.083 C 
BRANCH   8   9
ATOM      9  C   UNL d   1     -41.817  13.558  21.263  0.00  0.00     0.085 C 
BRANCH   9  10
ATOM     10  N   UNL d   1     -41.365  14.110  20.846  0.00  0.00    -0.299 N 
ATOM     11  C   UNL d   1     -41.171  14.823  21.196  0.00  0.00     0.107 A 
ATOM     12  C   UNL d   1     -40.721  15.374  20.780  0.00  0.00     0.142 A 
ATOM     13  O   UNL d   1     -40.469  15.202  20.011  0.00  0.00    -0.300 OA
ATOM     14  C   UNL d   1     -40.666  14.482  19.659  0.00  0.00     0.142 A 
ATOM     15  C   UNL d   1     -41.114  13.938  20.078  0.00  0.00     0.107 A 
ENDBRANCH   9  10
ENDBRANCH   8   9
ENDBRANCH   6   8
ENDBRANCH   3   5
BRANCH   2  16
ATOM     16  C   UNL d   1     -46.332  12.905  22.932  0.00  0.00     0.108 A 
ATOM     17  C   UNL d   1     -46.892  12.431  23.296  0.00  0.00     0.112 A 
ATOM     18  C   UNL d   1     -47.627  12.728  23.487  0.00  0.00     0.026 A 
ATOM     19  C   UNL d   1     -47.813  13.515  23.312  0.00  0.00     0.002 A 
ATOM     20  C   UNL d   1     -47.251  13.996  22.945  0.00  0.00     0.002 A 
ATOM     21  C   UNL d   1     -46.509  13.691  22.755  0.00  0.00     0.021 A 
BRANCH  17  22
ATOM     22  O   UNL d   1     -46.707  11.648  23.470  0.00  0.00    -0.327 OA
ATOM     23  C   UNL d   1     -47.310  11.128  23.698  0.00  0.00     0.181 C 
ENDBRANCH  17  22
ENDBRANCH   2  16
TORSDOF 6
ENDMDL
MODEL 2
REMARK VINA RESULT:      -5.8      2.639      5.978
REMARK  6 active torsions:
REMARK  status: ('A' for Active; 'I' for Inactive)
REMARK       I    between atoms: N_2  and  C_1 
REMARK       I    between atoms: N_7  and  C_1 
REMARK    1  A    between atoms: C_4  and  N_2 
REMARK       I    between atoms: C_3  and  N_8 
REMARK    2  A    between atoms: C_6  and  C_3 
REMARK    3  A    between atoms: N_5  and  C_12 
REMARK    4  A    between atoms: C_12  and  C_6 
REMARK    5  A    between atoms: N_8  and  N_7 
REMARK    6  A    between atoms: O_14  and  C_10 
ROOT
ATOM      1  C   UNL d   1     -45.975  12.391  23.081  0.00  0.00     0.387 C 
ATOM      2  N   UNL d   1     -45.205  12.165  22.877  0.00  0.00    -0.188 NA
ATOM      3  N   UNL d   1     -46.256  13.121  22.861  0.00  0.00    -0.085 NA
ATOM      4  O   UNL d   1     -46.454  11.868  23.509  0.00  0.00    -0.241 OA
ENDROOT
BRANCH   3   5
ATOM      5  N   UNL d   1     -47.026  13.346  23.065  0.00  0.00    -0.101 NA
ATOM      6  C   UNL d   1     -47.287  14.115  22.917  0.00  0.00     0.298 C 
ATOM      7  O   UNL d   1     -46.775  14.658  22.564  0.00  0.00    -0.264 OA
BRANCH   6   8
ATOM      8  C   UNL d   1     -48.052  14.333  23.122  0.00  0.00     0.083 C 
BRANCH   8   9
ATOM      9  C   UNL d   1     -48.497  14.787  22.603  0.00  0.00     0.085 C 
BRANCH   9  10
ATOM     10  N   UNL d   1     -49.297  14.926  22.754  0.00  0.00    -0.299 N 
ATOM     11  C   UNL d   1     -49.514  15.497  23.296  0.00  0.00     0.107 A 
ATOM     12  C   UNL d   1     -50.312  15.637  23.447  0.00  0.00     0.142 A 
ATOM     13  O   UNL d   1     -50.889  15.197  23.047  0.00  0.00    -0.300 OA
ATOM     14  C   UNL d   1     -50.668  14.621  22.500  0.00  0.00     0.142 A 
ATOM     15  C   UNL d   1     -49.873  14.487  22.354  0.00  0.00     0.107 A 
ENDBRANCH   9  10
ENDBRANCH   8   9
ENDBRANCH   6   8
ENDBRANCH   3   5
BRANCH   2  16
ATOM     16  C   UNL d   1     -44.918  11.424  23.099  0.00  0.00     0.108 A 
ATOM     17  C   UNL d   1     -44.139  11.221  22.946  0.00  0.00     0.112 A 
ATOM     18  C   UNL d   1     -43.850  10.490  23.163  0.00  0.00     0.026 A 
ATOM     19  C   UNL d   1     -44.345   9.946  23.542  0.00  0.00     0.002 A 
ATOM     20  C   UNL d   1     -45.131  10.147  23.698  0.00  0.00     0.002 A 
ATOM     21  C   UNL d   1     -45.418  10.887  23.476  0.00  0.00     0.021 A 
BRANCH  17  22
ATOM     22  O   UNL d   1     -43.647  11.762  22.569  0.00  0.00    -0.327 OA
ATOM     23  C   UNL d   1     -42.833  11.614  22.529  0.00  0.00     0.181 C 
ENDBRANCH  17  22
ENDBRANCH   2  16
TORSDOF 6
ENDMDL
MODEL 3
REMARK VINA RESULT:      -5.2      2.159      3.718
REMARK  6 active torsions:
REMARK  status: ('A' for Active; 'I' for Inactive)
REMARK       I    between atoms: N_2  and  C_1 
REMARK       I    between atoms: N_7  and  C_1 
REMARK    1  A    between atoms: C_4  and  N_2 
REMARK       I    between atoms: C_3  and  N_8 
REMARK    2  A    between atoms: C_6  and  C_3 
REMARK    3  A    between atoms: N_5  and  C_12 
REMARK    4  A    between atoms: C_12  and  C_6 
REMARK    5  A    between atoms: N_8  and  N_7 
REMARK    6  A    between atoms: O_14  and  C_10 
ROOT
ATOM      1  C   UNL d   1     -48.255  13.163  23.012  0.00  0.00     0.387 C 
ATOM      2  N   UNL d   1     -48.983  13.555  23.058  0.00  0.00    -0.188 NA
ATOM      3  N   UNL d   1     -47.576  13.582  22.859  0.00  0.00    -0.085 NA
ATOM      4  O   UNL d   1     -48.226  12.343  23.122  0.00  0.00    -0.241 OA
ENDROOT
BRANCH   3   5
ATOM      5  N   UNL d   1     -46.849  13.190  22.813  0.00  0.00    -0.101 NA
ATOM      6  C   UNL d   1     -46.159  13.611  22.649  0.00  0.00     0.298 C 
ATOM      7  O   UNL d   1     -46.198  14.427  22.530  0.00  0.00    -0.264 OA
BRANCH   6   8
ATOM      8  C   UNL d   1     -45.440  13.216  22.605  0.00  0.00     0.083 C 
BRANCH   8   9
ATOM      9  C   UNL d   1     -45.047  13.168  21.885  0.00  0.00     0.085 C 
BRANCH   9  10
ATOM     10  N   UNL d   1     -44.287  12.846  21.847  0.00  0.00    -0.299 N 
ATOM     11  C   UNL d   1     -43.720  13.200  21.378  0.00  0.00     0.107 A 
ATOM     12  C   UNL d   1     -42.961  12.879  21.340  0.00  0.00     0.142 A 
ATOM     13  O   UNL d   1     -42.780  12.200  21.778  0.00  0.00    -0.300 OA
ATOM     14  C   UNL d   1     -43.354  11.844  22.251  0.00  0.00     0.142 A 
ATOM     15  C   UNL d   1     -44.106  12.168  22.285  0.00  0.00     0.107 A 
ENDBRANCH   9  10
ENDBRANCH   8   9
ENDBRANCH   6   8
ENDBRANCH   3   5
BRANCH   2  16
ATOM     16  C   UNL d   1     -49.673  13.131  23.213  0.00  0.00     0.108 A 
ATOM     17  C   UNL d   1     -50.376  13.526  23.360  0.00  0.00     0.112 A 
ATOM     18  C   UNL d   1     -51.061  13.112  23.513  0.00  0.00     0.026 A 
ATOM     19  C   UNL d   1     -51.051  12.285  23.522  0.00  0.00     0.002 A 
ATOM     20  C   UNL d   1     -50.345  11.883  23.374  0.00  0.00     0.002 A 
ATOM     21  C   UNL d   1     -49.655  12.307  23.219  0.00  0.00     0.021 A 
BRANCH  17  22
ATOM     22  O   UNL d   1     -50.385  14.349  23.351  0.00  0.00    -0.327 OA
ATOM     23  C   UNL d   1     -51.031  14.752  23.678  0.00  0.00     0.181 C 
ENDBRANCH  17  22
ENDBRANCH   2  16
TORSDOF 6
ENDMDL
MODEL 4
REMARK VINA RESULT:      -4.8      1.230      5.856
REMARK  6 active torsions:
REMARK  status: ('A' for Active; 'I' for Inactive)
REMARK       I    between atoms: N_2  and  C_1 
REMARK       I    between atoms: N_7  and  C_1 
REMARK    1  A    between atoms: C_4  and  N_2 
REMARK       I    between atoms: C_3  and  N_8 
REMARK    2  A    between atoms: C_6  and  C_3 
REMARK    3  A    between atoms: N_5  and  C_12 
REMARK    4  A    between atoms: C_12  and  C_6 
REMARK    5  A    between atoms: N_8  and  N_7 
REMARK    6  A    between atoms: O_14  and  C_10 
ROOT
ATOM      1  C   UNL d   1     -42.089  13.819  21.227  0.00  0.00     0.387 C 
ATOM      2  N   UNL d   1     -41.284  13.644  21.144  0.00  0.00    -0.188 NA
ATOM      3  N   UNL d   1     -42.617  13.229  21.408  0.00  0.00    -0.085 NA
ATOM      4  O   UNL d   1     -42.349  14.598  21.124  0.00  0.00    -0.241 OA
ENDROOT
BRANCH   3   5
ATOM      5  N   UNL d   1     -43.421  13.405  21.491  0.00  0.00    -0.101 NA
ATOM      6  C   UNL d   1     -43.944  12.832  21.772  0.00  0.00     0.298 C 
ATOM      7  O   UNL d   1     -43.661  12.082  21.969  0.00  0.00    -0.264 OA
BRANCH   6   8
ATOM      8  C   UNL d   1     -44.742  13.012  21.852  0.00  0.00     0.083 C 
BRANCH   8   9
ATOM      9  C   UNL d   1     -45.128  12.839  22.556  0.00  0.00     0.085 C 
BRANCH   9  10
ATOM     10  N   UNL d   1     -45.904  13.095  22.679  0.00  0.00    -0.299 N 
ATOM     11  C   UNL d   1     -46.075  13.894  22.658  0.00  0.00     0.107 A 
ATOM     12  C   UNL d   1     -46.849  14.150  22.781  0.00  0.00     0.142 A 
ATOM     13  O   UNL d   1     -47.447  13.596  22.923  0.00  0.00    -0.300 OA
ATOM     14  C   UNL d   1     -47.273  12.791  22.943  0.00  0.00     0.142 A 
ATOM     15  C   UNL d   1     -46.501  12.542  22.821  0.00  0.00     0.107 A 
ENDBRANCH   9  10
ENDBRANCH   8   9
ENDBRANCH   6   8
ENDBRANCH   3   5
BRANCH   2  16
ATOM     16  C   UNL d   1     -40.746  14.242  20.960  0.00  0.00     0.108 A 
ATOM     17  C   UNL d   1     -40.005  14.252  21.309  0.00  0.00     0.112 A 
ATOM     18  C   UNL d   1     -39.470  14.840  21.131  0.00  0.00     0.026 A 
ATOM     19  C   UNL d   1     -39.673  15.435  20.593  0.00  0.00     0.002 A 
ATOM     20  C   UNL d   1     -40.419  15.429  20.238  0.00  0.00     0.002 A 
ATOM     21  C   UNL d   1     -40.957  14.831  20.422  0.00  0.00     0.021 A 
BRANCH  17  22
ATOM     22  O   UNL d   1     -39.803  13.661  21.844  0.00  0.00    -0.327 OA
ATOM     23  C   UNL d   1     -39.028  13.620  22.133  0.00  0.00     0.181 C 
ENDBRANCH  17  22
ENDBRANCH   2  16
TORSDOF 6
ENDMDL
MODEL 5
REMARK VINA RESULT:      -3.3      1.466      2.212
REMARK  6 active torsions:
REMARK  status: ('A' for Active; 'I' for Inactive)
REMARK       I    between atoms: N_2  and  C_1 
REMARK       I    between atoms: N_7  and  C_1 
REMARK    1  A    between atoms: C_4  and  N_2 
REMARK       I    between atoms: C_3  and  N_8 
REMARK    2  A    between atoms: C_6  and  C_3 
REMARK    3  A    between atoms: N_5  and  C_12 
REMARK    4  A    between atoms: C_12  and  C_6 
REMARK    5  A    between atoms: N_8  and  N_7 
REMARK    6  A    between atoms: O_14  and  C_10 
ROOT
ATOM      1  C   UNL d   1     -43.611  12.369  22.023  0.00  0.00     0.387 C 
ATOM      2  N   UNL d   1     -44.396  12.384  22.286  0.00  0.00    -0.188 NA
ATOM      3  N   UNL d   1     -43.326  12.972  21.559  0.00  0.00    -0.085 NA
ATOM      4  O   UNL d   1     -43.121  11.736  22.235  0.00  0.00    -0.241 OA
ENDROOT
BRANCH   3   5
ATOM      5  N   UNL d   1     -42.542  12.956  21.296  0.00  0.00    -0.101 NA
ATOM      6  C   UNL d   1     -42.153  13.660  21.107  0.00  0.00     0.298 C 
ATOM      7  O   UNL d   1     -42.551  14.379  21.183  0.00  0.00    -0.264 OA
BRANCH   6   8
ATOM      8  C   UNL d   1     -41.374  13.638  20.847  0.00  0.00     0.083 C 
BRANCH   8   9
ATOM      9  C   UNL d   1     -41.008  14.331  20.604  0.00  0.00     0.085 C 
BRANCH   9  10
ATOM     10  N   UNL d   1     -40.258  14.307  20.259  0.00  0.00    -0.299 N 
ATOM     11  C   UNL d   1     -40.182  14.361  19.447  0.00  0.00     0.107 A 
ATOM     12  C   UNL d   1     -39.434  14.337  19.103  0.00  0.00     0.142 A 
ATOM     13  O   UNL d   1     -38.763  14.257  19.582  0.00  0.00    -0.300 OA
ATOM     14  C   UNL d   1     -38.841  14.203  20.401  0.00  0.00     0.142 A 
ATOM     15  C   UNL d   1     -39.588  14.228  20.738  0.00  0.00     0.107 A 
ENDBRANCH   9  10
ENDBRANCH   8   9
ENDBRANCH   6   8
ENDBRANCH   3   5
BRANCH   2  16
ATOM     16  C   UNL d   1     -44.686  11.772  22.757  0.00  0.00     0.108 A 
ATOM     17  C   UNL d   1     -45.439  11.821  23.078  0.00  0.00     0.112 A 
ATOM     18  C   UNL d   1     -45.731  11.219  23.544  0.00  0.00     0.026 A 
ATOM     19  C   UNL d   1     -45.267  10.552  23.697  0.00  0.00     0.002 A 
ATOM     20  C   UNL d   1     -44.508  10.499  23.375  0.00  0.00     0.002 A 
ATOM     21  C   UNL d   1     -44.217  11.110  22.905  0.00  0.00     0.021 A 
BRANCH  17  22
ATOM     22  O   UNL d   1     -45.901  12.485  22.926  0.00  0.00    -0.327 OA
ATOM     23  C   UNL d   1     -46.662  12.534  23.248  0.00  0.00     0.181 C 
ENDBRANCH  17  22
ENDBRANCH   2  16
TORSDOF 6
ENDMDL
