MODEL 1
REMARK VINA RESULT:      86.4      0.000      0.000
REMARK  3 active torsions:
REMARK  status: ('A' for Active; 'I' for Inactive)
REMARK       I    between atoms: C_6  and  N_1 
REMARK    1  A    between atoms: C_11  and  C_5 
REMARK    2  A    between atoms: C_12  and  C_6 
REMARK    3  A    between atoms: C_27  and  N_10 
ROOT
ATOM      1  N   UNL d   1      44.761 -15.739  37.556  0.00  0.00    -0.264 N 
ATOM      2  C   UNL d   1      44.736 -15.096  37.030  0.00  0.00     0.198 A 
ATOM      3  C   UNL d   1      44.008 -16.084  37.564  0.00  0.00     0.138 A 
ATOM      4  N   UNL d   1      43.975 -15.053  36.724  0.00  0.00    -0.243 NA
ATOM      5  C   UNL d   1      43.523 -15.660  37.050  0.00  0.00     0.105 A 
ATOM      6  C   UNL d   1      45.408 -15.985  37.984  0.00  0.00     0.263 C 
ATOM      7  C   UNL d   1      44.637 -14.475  36.495  0.00  0.00     0.041 A 
ATOM      8  C   UNL d   1      45.459 -15.218  37.386  0.00  0.00     0.041 A 
ATOM      9  S   UNL d   1      43.781 -16.745  38.014  0.00  0.00    -0.058 SA
ATOM     10  N   UNL d   1      46.006 -14.105  36.687  0.00  0.00    -0.303 N 
ATOM     11  O   UNL d   1      46.129 -15.580  37.917  0.00  0.00    -0.267 OA
ATOM     12  C   UNL d   1      46.094 -14.723  37.215  0.00  0.00     0.080 A 
ATOM     13  C   UNL d   1      45.282 -13.982  36.330  0.00  0.00     0.080 A 
ENDROOT
BRANCH   6  14
ATOM     14  C   UNL d   1      45.349 -16.633  38.485  0.00  0.00     0.056 A 
ATOM     15  C   UNL d   1      45.152 -17.365  38.178  0.00  0.00     0.005 A 
ATOM     16  C   UNL d   1      45.092 -18.019  38.677  0.00  0.00     0.000 A 
ATOM     17  C   UNL d   1      45.232 -17.936  39.487  0.00  0.00     0.000 A 
ATOM     18  C   UNL d   1      45.432 -17.193  39.796  0.00  0.00     0.000 A 
ATOM     19  C   UNL d   1      45.171 -18.593  39.986  0.00  0.00     0.000 C 
ATOM     20  C   UNL d   1      45.490 -16.544  39.296  0.00  0.00     0.005 A 
ENDBRANCH   6  14
BRANCH   5  21
ATOM     21  C   UNL d   1      42.731 -15.814  36.891  0.00  0.00     0.020 A 
ATOM     22  C   UNL d   1      42.148 -15.273  37.135  0.00  0.00     0.004 A 
ATOM     23  C   UNL d   1      41.341 -15.431  36.971  0.00  0.00     0.030 A 
ATOM     24  C   UNL d   1      41.133 -16.126  36.567  0.00  0.00     0.140 A 
ATOM     25  C   UNL d   1      41.710 -16.652  36.330  0.00  0.00     0.030 A 
ATOM     26  F   UNL d   1      40.338 -16.278  36.408  0.00  0.00    -0.204 F 
ATOM     27  C   UNL d   1      42.508 -16.514  36.482  0.00  0.00     0.004 A 
ENDBRANCH   5  21
BRANCH  10  28
ATOM     28  C   UNL d   1      46.647 -13.604  36.514  0.00  0.00     0.080 C 
ATOM     29  C   UNL d   1      46.541 -12.783  36.524  0.00  0.00     0.021 C 
ENDBRANCH  10  28
TORSDOF 3
ENDMDL
