MODEL 1
REMARK VINA RESULT:      36.6      0.000      0.000
REMARK  6 active torsions:
REMARK  status: ('A' for Active; 'I' for Inactive)
REMARK    1  A    between atoms: C_13  and  C_3 
REMARK    2  A    between atoms: S_12  and  C_4 
REMARK    3  A    between atoms: C_8  and  C_6 
REMARK    4  A    between atoms: O_17  and  C_8 
REMARK    5  A    between atoms: C_10  and  C_16 
REMARK    6  A    between atoms: C_16  and  S_12 
ROOT
ATOM      1  O   UNL d   1     -56.864 -99.012 -45.526  0.00  0.00    -0.263 OA
ATOM      2  N   UNL d   1     -56.944 -98.761 -44.219  0.00  0.00    -0.120 NA
ATOM      3  C   UNL d   1     -57.387 -98.871 -44.895  0.00  0.00     0.205 A 
ATOM      4  C   UNL d   1     -56.097 -98.985 -45.220  0.00  0.00     0.236 A 
ATOM      5  N   UNL d   1     -56.145 -98.831 -44.417  0.00  0.00    -0.114 NA
ENDROOT
BRANCH   4   6
ATOM      6  S   UNL d   1     -55.388 -99.095 -45.647  0.00  0.00    -0.039 SA
BRANCH   6   7
ATOM      7  C   UNL d   1     -54.748 -99.480 -45.295  0.00  0.00     0.064 C 
BRANCH   7   8
ATOM      8  C   UNL d   1     -54.861-100.209 -44.928  0.00  0.00     0.107 A 
ATOM      9  O   UNL d   1     -55.111-100.942 -45.216  0.00  0.00    -0.301 OA
ATOM     10  C   UNL d   1     -55.118-101.480 -44.577  0.00  0.00     0.163 A 
ATOM     11  C   UNL d   1     -54.873-101.069 -43.908  0.00  0.00     0.032 A 
ATOM     12  C   UNL d   1     -54.715-100.296 -44.114  0.00  0.00     0.027 A 
BRANCH  10  13
ATOM     13  C   UNL d   1     -55.333-102.279 -44.610  0.00  0.00     0.319 C 
ATOM     14  O   UNL d   1     -54.749-102.857 -44.726  0.00  0.00    -0.257 OA
BRANCH  13  15
ATOM     15  O   UNL d   1     -56.123-102.507 -44.529  0.00  0.00    -0.294 OA
ATOM     16  C   UNL d   1     -56.405-102.799 -43.807  0.00  0.00     0.185 C 
ENDBRANCH  13  15
ENDBRANCH  10  13
ENDBRANCH   7   8
ENDBRANCH   6   7
ENDBRANCH   4   6
BRANCH   3  17
ATOM     17  C   UNL d   1     -58.207 -98.857 -44.999  0.00  0.00     0.046 A 
ATOM     18  C   UNL d   1     -58.519 -98.789 -45.754  0.00  0.00     0.024 A 
ATOM     19  C   UNL d   1     -59.336 -98.774 -45.866  0.00  0.00     0.099 A 
ATOM     20  N   UNL d   1     -59.847 -98.829 -45.219  0.00  0.00    -0.242 NA
ATOM     21  C   UNL d   1     -59.530 -98.898 -44.455  0.00  0.00     0.099 A 
ATOM     22  C   UNL d   1     -58.715 -98.912 -44.350  0.00  0.00     0.024 A 
ENDBRANCH   3  17
TORSDOF 6
ENDMDL
MODEL 2
REMARK VINA RESULT:      37.8      4.126      5.777
REMARK  6 active torsions:
REMARK  status: ('A' for Active; 'I' for Inactive)
REMARK    1  A    between atoms: C_13  and  C_3 
REMARK    2  A    between atoms: S_12  and  C_4 
REMARK    3  A    between atoms: C_8  and  C_6 
REMARK    4  A    between atoms: O_17  and  C_8 
REMARK    5  A    between atoms: C_10  and  C_16 
REMARK    6  A    between atoms: C_16  and  S_12 
ROOT
ATOM      1  O   UNL d   1     -54.899-101.408 -40.063  0.00  0.00    -0.263 OA
ATOM      2  N   UNL d   1     -55.709-102.451 -40.246  0.00  0.00    -0.120 NA
ATOM      3  C   UNL d   1     -55.305-102.023 -39.680  0.00  0.00     0.205 A 
ATOM      4  C   UNL d   1     -55.063-101.469 -40.871  0.00  0.00     0.236 A 
ATOM      5  N   UNL d   1     -55.561-102.111 -40.984  0.00  0.00    -0.114 NA
ENDROOT
BRANCH   4   6
ATOM      6  S   UNL d   1     -54.777-100.970 -41.476  0.00  0.00    -0.039 SA
BRANCH   6   7
ATOM      7  C   UNL d   1     -54.714-101.252 -42.249  0.00  0.00     0.064 C 
BRANCH   7   8
ATOM      8  C   UNL d   1     -55.022-100.809 -42.871  0.00  0.00     0.107 A 
ATOM      9  O   UNL d   1     -55.343-100.048 -42.905  0.00  0.00    -0.301 OA
ATOM     10  C   UNL d   1     -55.564 -99.898 -43.696  0.00  0.00     0.163 A 
ATOM     11  C   UNL d   1     -55.376-100.567 -44.135  0.00  0.00     0.032 A 
ATOM     12  C   UNL d   1     -55.046-101.125 -43.640  0.00  0.00     0.027 A 
BRANCH  10  13
ATOM     13  C   UNL d   1     -55.910 -99.203 -43.986  0.00  0.00     0.319 C 
ATOM     14  O   UNL d   1     -56.513 -98.832 -43.554  0.00  0.00    -0.257 OA
BRANCH  13  15
ATOM     15  O   UNL d   1     -55.659 -98.875 -44.702  0.00  0.00    -0.294 OA
ATOM     16  C   UNL d   1     -55.695 -99.315 -45.403  0.00  0.00     0.185 C 
ENDBRANCH  13  15
ENDBRANCH  10  13
ENDBRANCH   7   8
ENDBRANCH   6   7
ENDBRANCH   4   6
BRANCH   3  17
ATOM     17  C   UNL d   1     -55.267-102.132 -38.861  0.00  0.00     0.046 A 
ATOM     18  C   UNL d   1     -55.711-102.727 -38.511  0.00  0.00     0.024 A 
ATOM     19  C   UNL d   1     -55.679-102.842 -37.695  0.00  0.00     0.099 A 
ATOM     20  N   UNL d   1     -55.201-102.361 -37.224  0.00  0.00    -0.242 NA
ATOM     21  C   UNL d   1     -54.753-101.760 -37.579  0.00  0.00     0.099 A 
ATOM     22  C   UNL d   1     -54.789-101.649 -38.393  0.00  0.00     0.024 A 
ENDBRANCH   3  17
TORSDOF 6
ENDMDL
