MODEL 1
REMARK VINA RESULT:     -11.0      0.000      0.000
REMARK  3 active torsions:
REMARK  status: ('A' for Active; 'I' for Inactive)
REMARK    1  A    between atoms: C_6  and  C_1 
REMARK       I    between atoms: N_10  and  C_6 
REMARK    2  A    between atoms: C_23  and  N_10 
REMARK    3  A    between atoms: C_22  and  C_23 
ROOT
ATOM      1  C   UNL d   1      53.717  31.559  53.477  0.00  0.00     0.266 C 
ATOM      2  N   UNL d   1      53.323  32.155  53.878  0.00  0.00    -0.210 NA
ATOM      3  O   UNL d   1      54.247  31.896  52.956  0.00  0.00    -0.269 OA
ENDROOT
BRANCH   1   4
ATOM      4  C   UNL d   1      53.506  30.796  53.673  0.00  0.00     0.150 A 
ATOM      5  C   UNL d   1      53.270  29.491  54.237  0.00  0.00     0.028 A 
ATOM      6  C   UNL d   1      53.253  30.042  53.783  0.00  0.00     0.078 A 
ATOM      7  C   UNL d   1      53.444  29.035  54.906  0.00  0.00     0.002 C 
ATOM      8  C   UNL d   1      52.827  28.895  53.877  0.00  0.00     0.002 C 
ATOM      9  C   UNL d   1      52.810  29.440  53.430  0.00  0.00     0.012 C 
ATOM     10  C   UNL d   1      53.676  30.580  54.150  0.00  0.00    -0.023 A 
ATOM     11  C   UNL d   1      52.842  29.967  53.086  0.00  0.00     0.211 A 
ATOM     12  C   UNL d   1      53.918  31.242  54.089  0.00  0.00    -0.015 A 
ATOM     13  C   UNL d   1      53.109  30.716  53.004  0.00  0.00     0.219 A 
ATOM     14  O   UNL d   1      52.396  29.368  52.724  0.00  0.00    -0.288 OA
ATOM     15  O   UNL d   1      52.700  30.650  52.302  0.00  0.00    -0.287 OA
ENDBRANCH   1   4
BRANCH   2  16
ATOM     16  C   UNL d   1      53.497  32.947  53.718  0.00  0.00     0.102 C 
BRANCH  16  17
ATOM     17  C   UNL d   1      53.279  33.728  53.854  0.00  0.00     0.021 A 
ATOM     18  C   UNL d   1      53.441  34.078  54.588  0.00  0.00     0.028 A 
ATOM     19  C   UNL d   1      53.220  34.871  54.729  0.00  0.00     0.119 A 
ATOM     20  O   UNL d   1      53.304  35.358  55.382  0.00  0.00    -0.300 OA
ATOM     21  C   UNL d   1      52.838  35.304  54.131  0.00  0.00     0.119 A 
ATOM     22  C   UNL d   1      52.980  36.091  55.203  0.00  0.00     0.304 A 
ATOM     23  O   UNL d   1      52.691  36.060  54.428  0.00  0.00    -0.300 OA
ATOM     24  C   UNL d   1      52.681  34.946  53.402  0.00  0.00     0.026 A 
ATOM     25  C   UNL d   1      52.899  34.162  53.262  0.00  0.00     0.004 A 
ENDBRANCH  16  17
ENDBRANCH   2  16
TORSDOF 3
ENDMDL
MODEL 2
REMARK VINA RESULT:     -10.9      2.594      3.792
REMARK  3 active torsions:
REMARK  status: ('A' for Active; 'I' for Inactive)
REMARK    1  A    between atoms: C_6  and  C_1 
REMARK       I    between atoms: N_10  and  C_6 
REMARK    2  A    between atoms: C_23  and  N_10 
REMARK    3  A    between atoms: C_22  and  C_23 
ROOT
ATOM      1  C   UNL d   1      52.557  33.397  53.062  0.00  0.00     0.266 C 
ATOM      2  N   UNL d   1      51.898  33.860  53.215  0.00  0.00    -0.210 NA
ATOM      3  O   UNL d   1      52.494  33.085  52.311  0.00  0.00    -0.269 OA
ENDROOT
BRANCH   1   4
ATOM      4  C   UNL d   1      53.108  33.350  53.661  0.00  0.00     0.150 A 
ATOM      5  C   UNL d   1      54.088  33.525  54.702  0.00  0.00     0.028 A 
ATOM      6  C   UNL d   1      53.638  33.209  54.248  0.00  0.00     0.078 A 
ATOM      7  C   UNL d   1      54.512  34.117  55.099  0.00  0.00     0.002 C 
ATOM      8  C   UNL d   1      54.431  32.912  55.137  0.00  0.00     0.002 C 
ATOM      9  C   UNL d   1      53.985  32.601  54.687  0.00  0.00     0.012 C 
ATOM     10  C   UNL d   1      53.336  33.810  53.860  0.00  0.00    -0.023 A 
ATOM     11  C   UNL d   1      53.569  32.399  54.259  0.00  0.00     0.211 A 
ATOM     12  C   UNL d   1      52.877  33.974  53.347  0.00  0.00    -0.015 A 
ATOM     13  C   UNL d   1      53.048  32.570  53.678  0.00  0.00     0.219 A 
ATOM     14  O   UNL d   1      53.913  31.782  54.695  0.00  0.00    -0.288 OA
ATOM     15  O   UNL d   1      52.972  31.758  53.681  0.00  0.00    -0.287 OA
ENDBRANCH   1   4
BRANCH   2  16
ATOM     16  C   UNL d   1      51.309  33.943  52.641  0.00  0.00     0.102 C 
BRANCH  16  17
ATOM     17  C   UNL d   1      50.562  34.245  52.478  0.00  0.00     0.021 A 
ATOM     18  C   UNL d   1      50.254  34.187  51.711  0.00  0.00     0.028 A 
ATOM     19  C   UNL d   1      49.496  34.494  51.542  0.00  0.00     0.119 A 
ATOM     20  O   UNL d   1      49.053  34.518  50.853  0.00  0.00    -0.300 OA
ATOM     21  C   UNL d   1      49.055  34.856  52.146  0.00  0.00     0.119 A 
ATOM     22  C   UNL d   1      48.340  34.891  51.016  0.00  0.00     0.304 A 
ATOM     23  O   UNL d   1      48.339  35.101  51.817  0.00  0.00    -0.300 OA
ATOM     24  C   UNL d   1      49.371  34.909  52.909  0.00  0.00     0.026 A 
ATOM     25  C   UNL d   1      50.121  34.606  53.076  0.00  0.00     0.004 A 
ENDBRANCH  16  17
ENDBRANCH   2  16
TORSDOF 3
ENDMDL
MODEL 3
REMARK VINA RESULT:     -10.4      0.894      4.879
REMARK  3 active torsions:
REMARK  status: ('A' for Active; 'I' for Inactive)
REMARK    1  A    between atoms: C_6  and  C_1 
REMARK       I    between atoms: N_10  and  C_6 
REMARK    2  A    between atoms: C_23  and  N_10 
REMARK    3  A    between atoms: C_22  and  C_23 
ROOT
ATOM      1  C   UNL d   1      53.791  32.945  53.765  0.00  0.00     0.266 C 
ATOM      2  N   UNL d   1      53.290  32.297  53.760  0.00  0.00    -0.210 NA
ATOM      3  O   UNL d   1      54.561  32.686  53.688  0.00  0.00    -0.269 OA
ENDROOT
BRANCH   1   4
ATOM      4  C   UNL d   1      53.434  33.674  53.842  0.00  0.00     0.150 A 
ATOM      5  C   UNL d   1      52.686  34.902  53.751  0.00  0.00     0.028 A 
ATOM      6  C   UNL d   1      53.129  34.401  53.998  0.00  0.00     0.078 A 
ATOM      7  C   UNL d   1      52.144  35.296  53.263  0.00  0.00     0.002 C 
ATOM      8  C   UNL d   1      52.710  35.512  54.308  0.00  0.00     0.002 C 
ATOM      9  C   UNL d   1      53.148  35.015  54.551  0.00  0.00     0.012 C 
ATOM     10  C   UNL d   1      53.082  33.847  53.455  0.00  0.00    -0.023 A 
ATOM     11  C   UNL d   1      53.519  34.528  54.700  0.00  0.00     0.211 A 
ATOM     12  C   UNL d   1      53.328  33.207  53.283  0.00  0.00    -0.015 A 
ATOM     13  C   UNL d   1      53.805  33.804  54.518  0.00  0.00     0.219 A 
ATOM     14  O   UNL d   1      53.544  35.140  55.260  0.00  0.00    -0.288 OA
ATOM     15  O   UNL d   1      54.200  33.923  55.220  0.00  0.00    -0.287 OA
ENDBRANCH   1   4
BRANCH   2  16
ATOM     16  C   UNL d   1      53.600  31.534  53.685  0.00  0.00     0.102 C 
BRANCH  16  17
ATOM     17  C   UNL d   1      53.439  30.731  53.748  0.00  0.00     0.021 A 
ATOM     18  C   UNL d   1      53.607  30.333  54.455  0.00  0.00     0.028 A 
ATOM     19  C   UNL d   1      53.445  29.516  54.522  0.00  0.00     0.119 A 
ATOM     20  O   UNL d   1      53.547  28.984  55.136  0.00  0.00    -0.300 OA
ATOM     21  C   UNL d   1      53.116  29.108  53.877  0.00  0.00     0.119 A 
ATOM     22  C   UNL d   1      53.288  28.246  54.885  0.00  0.00     0.304 A 
ATOM     23  O   UNL d   1      53.020  28.321  54.106  0.00  0.00    -0.300 OA
ATOM     24  C   UNL d   1      52.953  29.514  53.176  0.00  0.00     0.026 A 
ATOM     25  C   UNL d   1      53.112  30.322  53.109  0.00  0.00     0.004 A 
ENDBRANCH  16  17
ENDBRANCH   2  16
TORSDOF 3
ENDMDL
