MODEL 1
REMARK VINA RESULT:      19.9      0.000      0.000
REMARK  4 active torsions:
REMARK  status: ('A' for Active; 'I' for Inactive)
REMARK    1  A    between atoms: S_2  and  N_1 
REMARK    2  A    between atoms: C_7  and  S_2 
REMARK    3  A    between atoms: S_8  and  C_5 
REMARK    4  A    between atoms: C_16  and  S_8 
ROOT
ATOM      1  N   UNL d   1      45.402 -15.988  44.407  0.00  0.00    -0.151 N 
ATOM      2  C   UNL d   1      45.810 -15.287  44.539  0.00  0.00     0.102 A 
ATOM      3  N   UNL d   1      44.605 -15.836  44.547  0.00  0.00    -0.155 NA
ATOM      4  C   UNL d   1      45.275 -14.704  44.757  0.00  0.00     0.067 A 
ATOM      5  C   UNL d   1      44.524 -15.050  44.761  0.00  0.00     0.110 A 
ATOM      6  C   UNL d   1      46.639 -15.172  44.464  0.00  0.00     0.022 C 
ATOM      7  C   UNL d   1      43.818 -14.668  44.949  0.00  0.00     0.023 C 
ENDROOT
BRANCH   1   8
ATOM      8  S   UNL d   1      45.719 -16.708  44.180  0.00  0.00     0.292 S 
ATOM      9  O   UNL d   1      45.356 -16.631  43.442  0.00  0.00    -0.198 OA
ATOM     10  O   UNL d   1      46.078 -16.787  44.909  0.00  0.00    -0.198 OA
BRANCH   8  11
ATOM     11  C   UNL d   1      46.035 -17.436  43.943  0.00  0.00     0.135 A 
ATOM     12  S   UNL d   1      46.213 -18.068  44.430  0.00  0.00    -0.073 SA
ATOM     13  C   UNL d   1      46.515 -18.676  43.962  0.00  0.00     0.036 A 
ATOM     14  C   UNL d   1      46.524 -18.417  43.178  0.00  0.00     0.008 A 
ATOM     15  C   UNL d   1      46.225 -17.644  43.165  0.00  0.00     0.020 A 
ENDBRANCH   8  11
ENDBRANCH   1   8
BRANCH   4  16
ATOM     16  S   UNL d   1      45.364 -13.904  44.954  0.00  0.00    -0.084 SA
BRANCH  16  17
ATOM     17  C   UNL d   1      45.343 -13.332  44.358  0.00  0.00     0.029 A 
ATOM     18  C   UNL d   1      44.861 -13.436  43.695  0.00  0.00     0.006 A 
ATOM     19  C   UNL d   1      44.852 -12.859  43.112  0.00  0.00     0.001 A 
ATOM     20  C   UNL d   1      45.313 -12.181  43.177  0.00  0.00     0.000 A 
ATOM     21  C   UNL d   1      45.792 -12.080  43.838  0.00  0.00     0.001 A 
ATOM     22  C   UNL d   1      45.808 -12.653  44.426  0.00  0.00     0.006 A 
ENDBRANCH  16  17
ENDBRANCH   4  16
TORSDOF 4
ENDMDL
MODEL 2
REMARK VINA RESULT:      22.4      0.621      1.201
REMARK  4 active torsions:
REMARK  status: ('A' for Active; 'I' for Inactive)
REMARK    1  A    between atoms: S_2  and  N_1 
REMARK    2  A    between atoms: C_7  and  S_2 
REMARK    3  A    between atoms: S_8  and  C_5 
REMARK    4  A    between atoms: C_16  and  S_8 
ROOT
ATOM      1  N   UNL d   1      45.930 -15.970  44.401  0.00  0.00    -0.151 N 
ATOM      2  C   UNL d   1      45.230 -15.542  44.443  0.00  0.00     0.102 A 
ATOM      3  N   UNL d   1      46.545 -15.454  44.586  0.00  0.00    -0.155 NA
ATOM      4  C   UNL d   1      45.404 -14.768  44.653  0.00  0.00     0.067 A 
ATOM      5  C   UNL d   1      46.225 -14.717  44.741  0.00  0.00     0.110 A 
ATOM      6  C   UNL d   1      44.457 -15.837  44.299  0.00  0.00     0.022 C 
ATOM      7  C   UNL d   1      46.646 -14.038  44.949  0.00  0.00     0.023 C 
ENDROOT
BRANCH   1   8
ATOM      8  S   UNL d   1      46.014 -16.763  44.210  0.00  0.00     0.292 S 
ATOM      9  O   UNL d   1      46.318 -16.550  43.472  0.00  0.00    -0.198 OA
ATOM     10  O   UNL d   1      45.714 -16.976  44.939  0.00  0.00    -0.198 OA
BRANCH   8  11
ATOM     11  C   UNL d   1      46.101 -17.562  44.010  0.00  0.00     0.135 A 
ATOM     12  S   UNL d   1      46.056 -18.197  44.523  0.00  0.00    -0.073 SA
ATOM     13  C   UNL d   1      46.176 -18.887  44.088  0.00  0.00     0.036 A 
ATOM     14  C   UNL d   1      46.296 -18.676  43.299  0.00  0.00     0.008 A 
ATOM     15  C   UNL d   1      46.250 -17.850  43.249  0.00  0.00     0.020 A 
ENDBRANCH   8  11
ENDBRANCH   1   8
BRANCH   4  16
ATOM     16  S   UNL d   1      44.932 -14.099  44.777  0.00  0.00    -0.084 SA
BRANCH  16  17
ATOM     17  C   UNL d   1      44.994 -13.455  44.263  0.00  0.00     0.029 A 
ATOM     18  C   UNL d   1      45.468 -12.807  44.459  0.00  0.00     0.006 A 
ATOM     19  C   UNL d   1      45.519 -12.175  43.938  0.00  0.00     0.001 A 
ATOM     20  C   UNL d   1      45.107 -12.176  43.226  0.00  0.00     0.000 A 
ATOM     21  C   UNL d   1      44.636 -12.823  43.033  0.00  0.00     0.001 A 
ATOM     22  C   UNL d   1      44.579 -13.459  43.549  0.00  0.00     0.006 A 
ENDBRANCH  16  17
ENDBRANCH   4  16
TORSDOF 4
ENDMDL
