MODEL 1
REMARK VINA RESULT:      85.8      0.000      0.000
REMARK  5 active torsions:
REMARK  status: ('A' for Active; 'I' for Inactive)
REMARK    1  A    between atoms: S_2  and  C_1 
REMARK    2  A    between atoms: N_8  and  S_2 
REMARK    3  A    between atoms: C_11  and  C_16 
REMARK    4  A    between atoms: O_22  and  C_11 
REMARK    5  A    between atoms: C_23  and  O_22 
ROOT
ATOM      1  S   UNL d   1      61.289  46.717  50.445  0.00  0.00     0.277 S 
ATOM      2  O   UNL d   1      61.711  47.049  49.815  0.00  0.00    -0.199 OA
ATOM      3  O   UNL d   1      60.873  46.376  51.066  0.00  0.00    -0.199 OA
ENDROOT
BRANCH   1   4
ATOM      4  C   UNL d   1      61.055  47.467  50.693  0.00  0.00     0.178 A 
ATOM      5  C   UNL d   1      60.943  47.609  51.499  0.00  0.00     0.282 A 
ATOM      6  N   UNL d   1      60.710  48.356  51.744  0.00  0.00    -0.224 N 
ATOM      7  O   UNL d   1      61.063  47.018  52.038  0.00  0.00    -0.266 OA
ATOM      8  C   UNL d   1      60.601  48.492  52.550  0.00  0.00     0.107 C 
ATOM      9  C   UNL d   1      60.589  48.955  51.197  0.00  0.00     0.342 A 
ATOM     10  N   UNL d   1      60.699  48.811  50.402  0.00  0.00    -0.255 N 
ATOM     11  O   UNL d   1      60.354  49.707  51.441  0.00  0.00    -0.245 OA
ATOM     12  C   UNL d   1      60.933  48.066  50.146  0.00  0.00     0.102 A 
ATOM     13  C   UNL d   1      60.578  49.408  49.857  0.00  0.00     0.104 C 
ENDBRANCH   1   4
BRANCH   1  14
ATOM     14  N   UNL d   1      61.517  45.961  50.205  0.00  0.00    -0.229 N 
ATOM     15  C   UNL d   1      61.268  45.283  50.648  0.00  0.00     0.092 A 
ATOM     16  C   UNL d   1      61.508  44.525  50.391  0.00  0.00     0.025 A 
ATOM     17  C   UNL d   1      61.987  44.433  49.710  0.00  0.00     0.067 A 
ATOM     18  C   UNL d   1      62.232  45.100  49.275  0.00  0.00     0.025 A 
ATOM     19  C   UNL d   1      61.996  45.869  49.524  0.00  0.00     0.092 A 
BRANCH  17  20
ATOM     20  C   UNL d   1      62.213  43.690  49.472  0.00  0.00     0.300 C 
ATOM     21  O   UNL d   1      61.874  43.359  48.832  0.00  0.00    -0.259 OA
BRANCH  20  22
ATOM     22  O   UNL d   1      62.783  43.299  49.891  0.00  0.00    -0.271 OA
BRANCH  22  23
ATOM     23  C   UNL d   1      62.786  42.512  49.936  0.00  0.00     0.126 C 
ATOM     24  C   UNL d   1      63.116  42.145  50.570  0.00  0.00     0.029 C 
ENDBRANCH  22  23
ENDBRANCH  20  22
ENDBRANCH  17  20
ENDBRANCH   1  14
TORSDOF 5
ENDMDL
MODEL 2
REMARK VINA RESULT:      86.6      2.402      3.640
REMARK  5 active torsions:
REMARK  status: ('A' for Active; 'I' for Inactive)
REMARK    1  A    between atoms: S_2  and  C_1 
REMARK    2  A    between atoms: N_8  and  S_2 
REMARK    3  A    between atoms: C_11  and  C_16 
REMARK    4  A    between atoms: O_22  and  C_11 
REMARK    5  A    between atoms: C_23  and  O_22 
ROOT
ATOM      1  S   UNL d   1      59.158  48.694  50.524  0.00  0.00     0.277 S 
ATOM      2  O   UNL d   1      59.239  48.737  51.347  0.00  0.00    -0.199 OA
ATOM      3  O   UNL d   1      59.090  48.646  49.706  0.00  0.00    -0.199 OA
ENDROOT
BRANCH   1   4
ATOM      4  C   UNL d   1      58.376  48.944  50.579  0.00  0.00     0.178 A 
ATOM      5  C   UNL d   1      58.080  49.184  51.312  0.00  0.00     0.282 A 
ATOM      6  N   UNL d   1      57.300  49.433  51.366  0.00  0.00    -0.224 N 
ATOM      7  O   UNL d   1      58.554  49.174  51.967  0.00  0.00    -0.266 OA
ATOM      8  C   UNL d   1      57.010  49.672  52.100  0.00  0.00     0.107 C 
ATOM      9  C   UNL d   1      56.819  49.443  50.701  0.00  0.00     0.342 A 
ATOM     10  N   UNL d   1      57.114  49.205  49.979  0.00  0.00    -0.255 N 
ATOM     11  O   UNL d   1      56.035  49.693  50.753  0.00  0.00    -0.245 OA
ATOM     12  C   UNL d   1      57.894  48.954  49.914  0.00  0.00     0.102 A 
ATOM     13  C   UNL d   1      56.635  49.216  49.318  0.00  0.00     0.104 C 
ENDBRANCH   1   4
BRANCH   1  14
ATOM     14  N   UNL d   1      59.942  48.442  50.456  0.00  0.00    -0.229 N 
ATOM     15  C   UNL d   1      60.153  47.652  50.676  0.00  0.00     0.092 A 
ATOM     16  C   UNL d   1      60.951  47.414  50.601  0.00  0.00     0.025 A 
ATOM     17  C   UNL d   1      61.533  47.945  50.314  0.00  0.00     0.067 A 
ATOM     18  C   UNL d   1      61.324  48.721  50.098  0.00  0.00     0.025 A 
ATOM     19  C   UNL d   1      60.523  48.973  50.168  0.00  0.00     0.092 A 
BRANCH  17  20
ATOM     20  C   UNL d   1      62.305  47.700  50.246  0.00  0.00     0.300 C 
ATOM     21  O   UNL d   1      62.896  48.198  50.435  0.00  0.00    -0.259 OA
BRANCH  20  22
ATOM     22  O   UNL d   1      62.459  46.949  49.987  0.00  0.00    -0.271 OA
BRANCH  22  23
ATOM     23  C   UNL d   1      62.141  46.677  49.319  0.00  0.00     0.126 C 
ATOM     24  C   UNL d   1      62.298  45.929  49.073  0.00  0.00     0.029 C 
ENDBRANCH  22  23
ENDBRANCH  20  22
ENDBRANCH  17  20
ENDBRANCH   1  14
TORSDOF 5
ENDMDL
