MODEL 1
REMARK VINA RESULT:      70.6      0.000      0.000
REMARK  9 active torsions:
REMARK  status: ('A' for Active; 'I' for Inactive)
REMARK    1  A    between atoms: C_12  and  N_1 
REMARK    2  A    between atoms: S_7  and  C_2 
REMARK    3  A    between atoms: C_15  and  S_7 
REMARK    4  A    between atoms: C_9  and  C_15 
REMARK    5  A    between atoms: O_14  and  C_9 
REMARK       I    between atoms: C_10  and  N_16 
REMARK    6  A    between atoms: C_19  and  C_12 
REMARK    7  A    between atoms: C_18  and  O_14 
REMARK    8  A    between atoms: N_16  and  C_19 
REMARK    9  A    between atoms: C_20  and  C_18 
ROOT
ATOM      1  N   UNL d   1     -50.684  25.772  33.311  0.00  0.00    -0.251 N 
ATOM      2  C   UNL d   1     -51.001  26.534  33.308  0.00  0.00     0.182 A 
ATOM      3  C   UNL d   1     -51.186  25.108  33.312  0.00  0.00     0.268 A 
ATOM      4  N   UNL d   1     -51.824  26.643  33.307  0.00  0.00    -0.222 NA
ATOM      5  C   UNL d   1     -52.009  25.220  33.311  0.00  0.00     0.074 A 
ATOM      6  C   UNL d   1     -52.326  25.982  33.308  0.00  0.00     0.088 A 
ATOM      7  O   UNL d   1     -50.865  24.338  33.315  0.00  0.00    -0.267 OA
ATOM      8  C   UNL d   1     -52.512  24.556  33.312  0.00  0.00     0.006 A 
ATOM      9  C   UNL d   1     -53.151  26.090  33.306  0.00  0.00     0.019 A 
ATOM     10  C   UNL d   1     -53.337  24.668  33.310  0.00  0.00     0.000 A 
ATOM     11  C   UNL d   1     -53.654  25.430  33.307  0.00  0.00     0.002 A 
ENDROOT
BRANCH   2  12
ATOM     12  S   UNL d   1     -50.496  27.206  33.307  0.00  0.00    -0.044 SA
BRANCH  12  13
ATOM     13  C   UNL d   1     -50.571  27.797  33.900  0.00  0.00     0.107 C 
BRANCH  13  14
ATOM     14  C   UNL d   1     -49.993  28.381  33.975  0.00  0.00     0.307 C 
ATOM     15  O   UNL d   1     -50.129  29.138  33.679  0.00  0.00    -0.258 OA
BRANCH  14  16
ATOM     16  O   UNL d   1     -49.274  28.200  34.352  0.00  0.00    -0.271 OA
BRANCH  16  17
ATOM     17  C   UNL d   1     -49.113  28.524  35.093  0.00  0.00     0.126 C 
BRANCH  17  18
ATOM     18  C   UNL d   1     -48.407  28.926  35.216  0.00  0.00     0.025 A 
ATOM     19  C   UNL d   1     -47.712  28.507  35.361  0.00  0.00     0.002 A 
ATOM     20  C   UNL d   1     -47.007  28.907  35.484  0.00  0.00     0.000 A 
ATOM     21  C   UNL d   1     -46.989  29.731  35.463  0.00  0.00     0.000 A 
ATOM     22  C   UNL d   1     -47.690  30.155  35.317  0.00  0.00     0.000 A 
ATOM     23  C   UNL d   1     -48.397  29.747  35.194  0.00  0.00     0.002 A 
ENDBRANCH  17  18
ENDBRANCH  16  17
ENDBRANCH  14  16
ENDBRANCH  13  14
ENDBRANCH  12  13
ENDBRANCH   2  12
BRANCH   1  24
ATOM     24  C   UNL d   1     -49.853  25.663  33.313  0.00  0.00     0.106 C 
BRANCH  24  25
ATOM     25  C   UNL d   1     -49.520  24.945  33.544  0.00  0.00     0.121 C 
BRANCH  25  26
ATOM     26  N   UNL d   1     -48.754  24.727  33.306  0.00  0.00    -0.205 NA
ATOM     27  C   UNL d   1     -48.248  24.328  33.829  0.00  0.00     0.280 C 
ATOM     28  O   UNL d   1     -48.504  24.147  34.592  0.00  0.00    -0.265 OA
ATOM     29  C   UNL d   1     -47.490  24.115  33.588  0.00  0.00     0.068 C 
ENDBRANCH  25  26
ENDBRANCH  24  25
ENDBRANCH   1  24
TORSDOF 9
ENDMDL
