MODEL 1
REMARK VINA RESULT:       2.5      0.000      0.000
REMARK  3 active torsions:
REMARK  status: ('A' for Active; 'I' for Inactive)
REMARK    1  A    between atoms: N_11  and  C_1 
REMARK    2  A    between atoms: N_5  and  C_4 
REMARK    3  A    between atoms: C_7  and  C_10 
REMARK       I    between atoms: C_10  and  N_12 
ROOT
ATOM      1  C   UNL d   1      55.735  -1.048  33.149  0.00  0.00     0.288 C 
ATOM      2  N   UNL d   1      57.399  -0.483  31.398  0.00  0.00    -0.281 N 
ATOM      3  N   UNL d   1      56.294  -0.855  32.562  0.00  0.00    -0.267 N 
ATOM      4  C   UNL d   1      57.109   0.101  31.891  0.00  0.00     0.101 A 
ATOM      5  C   UNL d   1      57.134  -1.262  31.486  0.00  0.00     0.101 A 
ATOM      6  C   UNL d   1      56.558  -0.077  32.474  0.00  0.00     0.102 A 
ATOM      7  C   UNL d   1      56.581  -1.457  32.067  0.00  0.00     0.102 A 
ATOM      8  O   UNL d   1      55.474  -1.819  33.236  0.00  0.00    -0.264 OA
ENDROOT
BRANCH   2   9
ATOM      9  C   UNL d   1      57.949  -0.305  30.816  0.00  0.00     0.179 A 
ATOM     10  N   UNL d   1      58.765  -0.432  30.868  0.00  0.00    -0.222 NA
ATOM     11  C   UNL d   1      59.114  -0.178  30.169  0.00  0.00     0.089 A 
ATOM     12  C   UNL d   1      59.887  -0.169  29.916  0.00  0.00     0.018 A 
ATOM     13  C   UNL d   1      58.513   0.107  29.680  0.00  0.00     0.050 A 
ATOM     14  C   UNL d   1      60.077   0.123  29.174  0.00  0.00     0.002 A 
ATOM     15  C   UNL d   1      60.486  -0.454  30.406  0.00  0.00     0.002 C 
ATOM     16  C   UNL d   1      59.477   0.408  28.685  0.00  0.00     0.001 A 
ATOM     17  C   UNL d   1      58.693   0.397  28.944  0.00  0.00     0.007 A 
ATOM     18  C   UNL d   1      58.098   0.681  28.455  0.00  0.00     0.001 C 
ATOM     19  S   UNL d   1      57.799   0.032  30.069  0.00  0.00    -0.048 SA
ENDBRANCH   2   9
BRANCH   1  20
ATOM     20  C   UNL d   1      55.451  -0.448  33.641  0.00  0.00     0.158 A 
ATOM     21  O   UNL d   1      55.507  -0.424  34.469  0.00  0.00    -0.281 OA
ATOM     22  C   UNL d   1      55.145   0.281  34.719  0.00  0.00     0.228 A 
ATOM     23  C   UNL d   1      54.878   0.674  34.048  0.00  0.00     0.051 A 
ATOM     24  C   UNL d   1      55.068   0.221  33.385  0.00  0.00     0.034 A 
BRANCH  22  25
ATOM     25  N   UNL d   1      55.066   0.547  35.501  0.00  0.00    -0.089 N 
ATOM     26  O   UNL d   1      55.755   0.681  35.965  0.00  0.00    -0.530 OA
ATOM     27  O   UNL d   1      54.326   0.680  35.827  0.00  0.00    -0.530 OA
ENDBRANCH  22  25
ENDBRANCH   1  20
TORSDOF 3
ENDMDL
MODEL 2
REMARK VINA RESULT:       3.4      1.287      1.663
REMARK  3 active torsions:
REMARK  status: ('A' for Active; 'I' for Inactive)
REMARK    1  A    between atoms: N_11  and  C_1 
REMARK    2  A    between atoms: N_5  and  C_4 
REMARK    3  A    between atoms: C_7  and  C_10 
REMARK       I    between atoms: C_10  and  N_12 
ROOT
ATOM      1  C   UNL d   1      56.488   0.303  33.371  0.00  0.00     0.288 C 
ATOM      2  N   UNL d   1      57.771  -0.321  31.342  0.00  0.00    -0.281 N 
ATOM      3  N   UNL d   1      56.916   0.092  32.688  0.00  0.00    -0.267 N 
ATOM      4  C   UNL d   1      56.974  -0.492  31.390  0.00  0.00     0.101 A 
ATOM      5  C   UNL d   1      58.148   0.061  31.972  0.00  0.00     0.101 A 
ATOM      6  C   UNL d   1      56.540  -0.289  32.058  0.00  0.00     0.102 A 
ATOM      7  C   UNL d   1      57.726   0.271  32.650  0.00  0.00     0.102 A 
ATOM      8  O   UNL d   1      56.861   0.681  33.994  0.00  0.00    -0.264 OA
ENDROOT
BRANCH   2   9
ATOM      9  C   UNL d   1      58.204  -0.524  30.674  0.00  0.00     0.179 A 
ATOM     10  N   UNL d   1      58.167  -1.249  30.277  0.00  0.00    -0.222 NA
ATOM     11  C   UNL d   1      58.686  -1.224  29.641  0.00  0.00     0.089 A 
ATOM     12  C   UNL d   1      58.875  -1.770  29.068  0.00  0.00     0.018 A 
ATOM     13  C   UNL d   1      59.047  -0.482  29.642  0.00  0.00     0.050 A 
ATOM     14  C   UNL d   1      59.425  -1.590  28.489  0.00  0.00     0.002 A 
ATOM     15  C   UNL d   1      58.513  -2.512  29.069  0.00  0.00     0.002 C 
ATOM     16  C   UNL d   1      59.786  -0.848  28.489  0.00  0.00     0.001 A 
ATOM     17  C   UNL d   1      59.592  -0.295  29.071  0.00  0.00     0.007 A 
ATOM     18  C   UNL d   1      59.953   0.442  29.070  0.00  0.00     0.001 C 
ATOM     19  S   UNL d   1      58.757  -0.049  30.271  0.00  0.00    -0.048 SA
ENDBRANCH   2   9
BRANCH   1  20
ATOM     20  C   UNL d   1      55.682   0.124  33.406  0.00  0.00     0.158 A 
ATOM     21  O   UNL d   1      55.135   0.431  33.950  0.00  0.00    -0.281 OA
ATOM     22  C   UNL d   1      54.397   0.093  33.772  0.00  0.00     0.228 A 
ATOM     23  C   UNL d   1      54.503  -0.409  33.129  0.00  0.00     0.051 A 
ATOM     24  C   UNL d   1      55.296  -0.387  32.907  0.00  0.00     0.034 A 
BRANCH  22  25
ATOM     25  N   UNL d   1      53.680   0.232  34.166  0.00  0.00    -0.089 N 
ATOM     26  O   UNL d   1      52.968  -0.093  33.858  0.00  0.00    -0.530 OA
ATOM     27  O   UNL d   1      53.657   0.682  34.850  0.00  0.00    -0.530 OA
ENDBRANCH  22  25
ENDBRANCH   1  20
TORSDOF 3
ENDMDL
