MODEL 1
REMARK VINA RESULT:      81.5      0.000      0.000
REMARK  2 active torsions:
REMARK  status: ('A' for Active; 'I' for Inactive)
REMARK    1  A    between atoms: C_4  and  C_1 
REMARK       I    between atoms: N_7  and  C_4 
REMARK    2  A    between atoms: C_17  and  N_8 
ROOT
ATOM      1  C   UNL d   1      59.042  49.265  49.992  0.00  0.00     0.248 C 
ATOM      2  N   UNL d   1      59.626  49.292  50.624  0.00  0.00    -0.272 N 
ATOM      3  N   UNL d   1      60.792  49.345  51.882  0.00  0.00    -0.301 N 
ATOM      4  O   UNL d   1      59.280  49.158  49.222  0.00  0.00    -0.271 OA
ATOM      5  C   UNL d   1      60.464  49.206  50.441  0.00  0.00     0.102 A 
ATOM      6  C   UNL d   1      59.356  49.404  51.427  0.00  0.00     0.102 A 
ATOM      7  C   UNL d   1      61.041  49.232  51.060  0.00  0.00     0.100 A 
ATOM      8  C   UNL d   1      59.954  49.431  52.064  0.00  0.00     0.100 A 
ENDROOT
BRANCH   1   9
ATOM      9  C   UNL d   1      58.254  49.344  50.160  0.00  0.00     0.112 A 
ATOM     10  C   UNL d   1      56.757  49.312  49.901  0.00  0.00     0.025 A 
ATOM     11  C   UNL d   1      57.459  49.422  50.320  0.00  0.00     0.074 A 
ATOM     12  C   UNL d   1      56.043  49.451  50.261  0.00  0.00     0.002 C 
ATOM     13  C   UNL d   1      56.569  49.079  49.149  0.00  0.00     0.002 C 
ATOM     14  C   UNL d   1      56.736  49.559  50.674  0.00  0.00     0.012 C 
ATOM     15  C   UNL d   1      57.648  49.657  51.076  0.00  0.00    -0.023 A 
ATOM     16  C   UNL d   1      57.690  49.180  49.583  0.00  0.00     0.172 A 
ATOM     17  C   UNL d   1      58.438  49.578  50.913  0.00  0.00    -0.018 A 
ATOM     18  C   UNL d   1      58.484  49.101  49.419  0.00  0.00     0.024 A 
ATOM     19  O   UNL d   1      57.310  48.974  48.898  0.00  0.00    -0.291 OA
ENDBRANCH   1   9
BRANCH   3  20
ATOM     20  C   UNL d   1      61.377  49.373  52.517  0.00  0.00     0.064 A 
ATOM     21  C   UNL d   1      61.142  49.619  53.303  0.00  0.00     0.018 A 
ATOM     22  C   UNL d   1      61.721  49.647  53.935  0.00  0.00     0.002 A 
ATOM     23  C   UNL d   1      62.544  49.426  53.780  0.00  0.00     0.000 A 
ATOM     24  C   UNL d   1      62.777  49.177  52.986  0.00  0.00     0.002 A 
ATOM     25  C   UNL d   1      62.194  49.151  52.355  0.00  0.00     0.018 A 
ENDBRANCH   3  20
TORSDOF 2
ENDMDL
