MODEL 1
REMARK VINA RESULT:      29.7      0.000      0.000
REMARK  6 active torsions:
REMARK  status: ('A' for Active; 'I' for Inactive)
REMARK    1  A    between atoms: C_2  and  S_1 
REMARK    2  A    between atoms: N_5  and  S_1 
REMARK    3  A    between atoms: C_14  and  N_5 
REMARK    4  A    between atoms: C_7  and  C_6 
REMARK    5  A    between atoms: C_19  and  C_14 
REMARK    6  A    between atoms: O_18  and  C_19 
ROOT
ATOM      1  C   UNL d   1      13.996  12.374  -1.572  0.00  0.00     0.105 A 
ATOM      2  C   UNL d   1      13.592  12.757  -3.138  0.00  0.00     0.000 A 
ATOM      3  C   UNL d   1      14.052  13.154  -1.834  0.00  0.00     0.013 A 
ATOM      4  C   UNL d   1      13.739  11.784  -2.089  0.00  0.00     0.013 A 
ATOM      5  C   UNL d   1      13.536  11.977  -2.877  0.00  0.00     0.001 A 
ATOM      6  C   UNL d   1      13.848  13.347  -2.622  0.00  0.00     0.001 A 
ENDROOT
BRANCH   1   7
ATOM      7  S   UNL d   1      14.196  12.179  -0.795  0.00  0.00     0.285 S 
ATOM      8  O   UNL d   1      14.390  11.984  -0.023  0.00  0.00    -0.198 OA
ATOM      9  O   UNL d   1      13.463  11.819  -0.692  0.00  0.00    -0.198 OA
BRANCH   7  10
ATOM     10  N   UNL d   1      14.926  12.536  -0.892  0.00  0.00    -0.155 NA
BRANCH  10  11
ATOM     11  C   UNL d   1      15.204  13.078  -0.326  0.00  0.00     0.138 C 
BRANCH  11  12
ATOM     12  C   UNL d   1      15.679  13.703  -0.561  0.00  0.00     0.138 C 
BRANCH  12  13
ATOM     13  O   UNL d   1      15.590  14.452  -0.211  0.00  0.00    -0.325 OA
ATOM     14  C   UNL d   1      16.246  14.918  -0.047  0.00  0.00     0.182 C 
ENDBRANCH  12  13
ENDBRANCH  11  12
ENDBRANCH  10  11
ENDBRANCH   7  10
ENDBRANCH   1   7
BRANCH   2  15
ATOM     15  C   UNL d   1      13.392  12.942  -3.910  0.00  0.00     0.000 A 
ATOM     16  C   UNL d   1      13.042  13.670  -4.080  0.00  0.00     0.000 A 
ATOM     17  C   UNL d   1      12.837  13.864  -4.856  0.00  0.00     0.000 A 
ATOM     18  C   UNL d   1      12.988  13.316  -5.469  0.00  0.00     0.000 A 
ATOM     19  C   UNL d   1      13.338  12.588  -5.299  0.00  0.00     0.000 A 
ATOM     20  C   UNL d   1      12.785  13.506  -6.247  0.00  0.00     0.000 C 
ATOM     21  C   UNL d   1      13.541  12.397  -4.522  0.00  0.00     0.000 A 
ENDBRANCH   2  15
TORSDOF 6
ENDMDL
