MODEL 1
REMARK VINA RESULT:      51.6      0.000      0.000
REMARK  7 active torsions:
REMARK  status: ('A' for Active; 'I' for Inactive)
REMARK    1  A    between atoms: C_6  and  C_1 
REMARK    2  A    between atoms: O_18  and  C_6 
REMARK    3  A    between atoms: C_7  and  C_11 
REMARK    4  A    between atoms: O_19  and  C_7 
REMARK    5  A    between atoms: O_10  and  C_12 
REMARK    6  A    between atoms: C_11  and  O_10 
REMARK    7  A    between atoms: C_21  and  O_18 
ROOT
ATOM      1  C   UNL d   1     -51.379  25.379  33.429  0.00  0.00     0.081 A 
ATOM      2  C   UNL d   1     -51.434  24.556  33.370  0.00  0.00     0.069 A 
ATOM      3  N   UNL d   1     -50.671  24.255  33.364  0.00  0.00    -0.304 N 
ATOM      4  C   UNL d   1     -50.588  25.581  33.458  0.00  0.00     0.025 A 
ATOM      5  C   UNL d   1     -50.150  24.885  33.418  0.00  0.00     0.064 A 
ATOM      6  C   UNL d   1     -49.329  24.914  33.437  0.00  0.00     0.020 A 
ATOM      7  C   UNL d   1     -50.205  26.305  33.516  0.00  0.00     0.026 A 
ATOM      8  C   UNL d   1     -49.374  26.332  33.535  0.00  0.00     0.100 A 
ATOM      9  C   UNL d   1     -48.940  25.643  33.495  0.00  0.00     0.026 A 
ATOM     10  C   UNL d   1     -52.129  24.117  33.326  0.00  0.00     0.019 C 
ATOM     11  C   UNL d   1     -50.468  23.451  33.312  0.00  0.00     0.099 C 
ENDROOT
BRANCH   8  12
ATOM     12  O   UNL d   1     -48.992  27.065  33.593  0.00  0.00    -0.302 OA
BRANCH  12  13
ATOM     13  C   UNL d   1     -48.580  27.249  34.284  0.00  0.00     0.163 C 
ATOM     14  C   UNL d   1     -47.946  26.777  34.530  0.00  0.00     0.032 C 
BRANCH  13  15
ATOM     15  C   UNL d   1     -48.802  27.906  34.733  0.00  0.00     0.319 C 
ATOM     16  O   UNL d   1     -49.394  27.841  35.306  0.00  0.00    -0.257 OA
BRANCH  15  17
ATOM     17  O   UNL d   1     -48.435  28.632  34.616  0.00  0.00    -0.294 OA
ATOM     18  C   UNL d   1     -48.374  29.168  35.240  0.00  0.00     0.185 C 
ENDBRANCH  15  17
ENDBRANCH  13  15
ENDBRANCH  12  13
ENDBRANCH   8  12
BRANCH   1  19
ATOM     19  C   UNL d   1     -52.015  25.907  33.453  0.00  0.00     0.302 C 
ATOM     20  O   UNL d   1     -51.884  26.710  33.307  0.00  0.00    -0.259 OA
BRANCH  19  21
ATOM     21  O   UNL d   1     -52.772  25.638  33.621  0.00  0.00    -0.271 OA
BRANCH  21  22
ATOM     22  C   UNL d   1     -53.427  26.082  33.389  0.00  0.00     0.126 C 
ATOM     23  C   UNL d   1     -54.162  25.717  33.307  0.00  0.00     0.029 C 
ENDBRANCH  21  22
ENDBRANCH  19  21
ENDBRANCH   1  19
TORSDOF 7
ENDMDL
