MODEL 1
REMARK VINA RESULT:      40.6      0.000      0.000
REMARK  2 active torsions:
REMARK  status: ('A' for Active; 'I' for Inactive)
REMARK    1  A    between atoms: N_9  and  C_3 
REMARK    2  A    between atoms: C_11  and  C_5 
ROOT
ATOM      1  N   UNL d   1      14.513  13.876  -1.675  0.00  0.00    -0.196 N 
ATOM      2  C   UNL d   1      14.236  13.173  -2.002  0.00  0.00     0.167 A 
ATOM      3  C   UNL d   1      14.800  13.887  -0.904  0.00  0.00     0.152 A 
ATOM      4  N   UNL d   1      14.434  14.463  -2.239  0.00  0.00    -0.163 NA
ATOM      5  C   UNL d   1      13.986  13.325  -2.769  0.00  0.00     0.055 A 
ATOM      6  C   UNL d   1      14.108  14.122  -2.918  0.00  0.00     0.104 A 
ATOM      7  N   UNL d   1      14.246  12.479  -1.560  0.00  0.00    -0.227 NA
ATOM      8  C   UNL d   1      14.812  13.190  -0.454  0.00  0.00     0.057 A 
ATOM      9  C   UNL d   1      14.535  12.487  -0.782  0.00  0.00     0.086 A 
ATOM     10  C   UNL d   1      13.934  14.514  -3.623  0.00  0.00     0.023 C 
ATOM     11  C   UNL d   1      14.541  11.781  -0.340  0.00  0.00     0.021 C 
ENDROOT
BRANCH   5  12
ATOM     12  C   UNL d   1      13.662  12.844  -3.357  0.00  0.00     0.004 A 
ATOM     13  C   UNL d   1      13.093  12.275  -3.157  0.00  0.00     0.000 A 
ATOM     14  C   UNL d   1      12.769  11.793  -3.745  0.00  0.00     0.000 A 
ATOM     15  C   UNL d   1      13.010  11.877  -4.529  0.00  0.00     0.000 A 
ATOM     16  C   UNL d   1      13.581  12.448  -4.727  0.00  0.00     0.000 A 
ATOM     17  C   UNL d   1      13.903  12.927  -4.142  0.00  0.00     0.000 A 
ENDBRANCH   5  12
BRANCH   3  18
ATOM     18  N   UNL d   1      15.077  14.591  -0.576  0.00  0.00    -0.289 N 
ATOM     19  C   UNL d   1      15.857  14.723  -0.347  0.00  0.00     0.082 A 
ATOM     20  C   UNL d   1      15.915  15.493  -0.045  0.00  0.00     0.021 A 
ATOM     21  C   UNL d   1      15.163  15.829  -0.091  0.00  0.00     0.021 A 
ATOM     22  C   UNL d   1      14.647  15.289  -0.412  0.00  0.00     0.082 A 
ENDBRANCH   3  18
TORSDOF 2
ENDMDL
MODEL 2
REMARK VINA RESULT:      41.7      1.144      4.271
REMARK  2 active torsions:
REMARK  status: ('A' for Active; 'I' for Inactive)
REMARK    1  A    between atoms: N_9  and  C_3 
REMARK    2  A    between atoms: C_11  and  C_5 
ROOT
ATOM      1  N   UNL d   1      13.806  13.133  -3.455  0.00  0.00    -0.196 N 
ATOM      2  C   UNL d   1      14.016  13.691  -2.886  0.00  0.00     0.167 A 
ATOM      3  C   UNL d   1      13.528  13.378  -4.190  0.00  0.00     0.152 A 
ATOM      4  N   UNL d   1      13.933  12.391  -3.136  0.00  0.00    -0.163 NA
ATOM      5  C   UNL d   1      14.272  13.293  -2.215  0.00  0.00     0.055 A 
ATOM      6  C   UNL d   1      14.221  12.489  -2.368  0.00  0.00     0.104 A 
ATOM      7  N   UNL d   1      13.947  14.495  -3.050  0.00  0.00    -0.227 NA
ATOM      8  C   UNL d   1      13.457  14.187  -4.360  0.00  0.00     0.057 A 
ATOM      9  C   UNL d   1      13.666  14.745  -3.790  0.00  0.00     0.086 A 
ATOM     10  C   UNL d   1      14.424  11.885  -1.844  0.00  0.00     0.023 C 
ATOM     11  C   UNL d   1      13.599  15.560  -3.949  0.00  0.00     0.021 C 
ENDROOT
BRANCH   5  12
ATOM     12  C   UNL d   1      14.546  13.555  -1.481  0.00  0.00     0.004 A 
ATOM     13  C   UNL d   1      15.058  14.205  -1.441  0.00  0.00     0.000 A 
ATOM     14  C   UNL d   1      15.332  14.467  -0.706  0.00  0.00     0.000 A 
ATOM     15  C   UNL d   1      15.097  14.083  -0.015  0.00  0.00     0.000 A 
ATOM     16  C   UNL d   1      14.583  13.431  -0.059  0.00  0.00     0.000 A 
ATOM     17  C   UNL d   1      14.311  13.171  -0.790  0.00  0.00     0.000 A 
ENDBRANCH   5  12
BRANCH   3  18
ATOM     18  N   UNL d   1      13.318  12.820  -4.760  0.00  0.00    -0.289 N 
ATOM     19  C   UNL d   1      13.607  12.810  -5.531  0.00  0.00     0.082 A 
ATOM     20  C   UNL d   1      13.268  12.168  -5.929  0.00  0.00     0.021 A 
ATOM     21  C   UNL d   1      12.769  11.786  -5.394  0.00  0.00     0.021 A 
ATOM     22  C   UNL d   1      12.792  12.175  -4.681  0.00  0.00     0.082 A 
ENDBRANCH   3  18
TORSDOF 2
ENDMDL
