MODEL 1
REMARK VINA RESULT:      -1.2      0.000      0.000
REMARK  4 active torsions:
REMARK  status: ('A' for Active; 'I' for Inactive)
REMARK    1  A    between atoms: C_2  and  S_1 
REMARK    2  A    between atoms: N_7  and  S_1 
REMARK    3  A    between atoms: C_3  and  C_12 
REMARK    4  A    between atoms: C_15  and  N_7 
ROOT
ATOM      1  C   UNL d   1      31.178  17.552 -24.090  0.00  0.00     0.024 A 
ATOM      2  C   UNL d   1      32.560  18.395 -23.726  0.00  0.00     0.094 A 
ATOM      3  C   UNL d   1      31.716  17.266 -23.536  0.00  0.00     0.004 A 
ATOM      4  C   UNL d   1      31.331  18.271 -24.470  0.00  0.00     0.004 A 
ATOM      5  C   UNL d   1      32.397  17.681 -23.357  0.00  0.00     0.020 A 
ATOM      6  C   UNL d   1      32.014  18.691 -24.292  0.00  0.00     0.020 A 
ENDROOT
BRANCH   2   7
ATOM      7  N   UNL d   1      33.239  18.812 -23.549  0.00  0.00    -0.158 NA
BRANCH   7   8
ATOM      8  S   UNL d   1      33.208  19.442 -23.009  0.00  0.00     0.287 S 
ATOM      9  O   UNL d   1      33.181  19.979 -23.633  0.00  0.00    -0.198 OA
ATOM     10  O   UNL d   1      33.235  18.905 -22.386  0.00  0.00    -0.198 OA
BRANCH   8  11
ATOM     11  C   UNL d   1      33.177  20.070 -22.479  0.00  0.00     0.135 A 
ATOM     12  C   UNL d   1      33.135  19.940 -21.671  0.00  0.00     0.045 A 
ATOM     13  C   UNL d   1      33.105  20.566 -21.145  0.00  0.00     0.141 A 
ATOM     14  F   UNL d   1      33.063  20.428 -20.334  0.00  0.00    -0.204 F 
ATOM     15  C   UNL d   1      33.115  21.340 -21.432  0.00  0.00     0.032 A 
ATOM     16  C   UNL d   1      33.157  21.486 -22.245  0.00  0.00     0.033 A 
ATOM     17  C   UNL d   1      33.188  20.843 -22.766  0.00  0.00     0.152 A 
ATOM     18  F   UNL d   1      33.229  20.988 -23.584  0.00  0.00    -0.203 F 
ENDBRANCH   8  11
ENDBRANCH   7   8
ENDBRANCH   2   7
BRANCH   1  19
ATOM     19  C   UNL d   1      30.491  17.133 -24.272  0.00  0.00     0.112 A 
ATOM     20  S   UNL d   1      30.461  16.419 -24.673  0.00  0.00    -0.047 SA
ATOM     21  C   UNL d   1      29.657  16.189 -24.738  0.00  0.00     0.130 A 
ATOM     22  N   UNL d   1      29.294  15.533 -25.079  0.00  0.00    -0.236 NA
ATOM     23  C   UNL d   1      29.200  16.779 -24.367  0.00  0.00     0.106 A 
ATOM     24  C   UNL d   1      28.469  15.466 -25.051  0.00  0.00     0.100 A 
ATOM     25  C   UNL d   1      28.011  16.050 -24.683  0.00  0.00     0.022 A 
ATOM     26  C   UNL d   1      28.377  16.703 -24.343  0.00  0.00     0.023 A 
ATOM     27  N   UNL d   1      29.720  17.364 -24.078  0.00  0.00    -0.237 NA
ENDBRANCH   1  19
TORSDOF 4
ENDMDL
