MODEL 1
REMARK VINA RESULT:      -1.3      0.000      0.000
REMARK  3 active torsions:
REMARK  status: ('A' for Active; 'I' for Inactive)
REMARK    1  A    between atoms: N_3  and  C_2 
REMARK       I    between atoms: C_4  and  N_3 
REMARK    2  A    between atoms: C_10  and  N_3 
REMARK    3  A    between atoms: C_12  and  C_4 
ROOT
ATOM      1  N   UNL d   1      31.127  16.940 -24.198  0.00  0.00    -0.274 N 
ATOM      2  C   UNL d   1      31.384  18.135 -24.476  0.00  0.00     0.265 C 
ATOM      3  O   UNL d   1      30.730  18.540 -24.700  0.00  0.00    -0.267 OA
ENDROOT
BRANCH   1   4
ATOM      4  C   UNL d   1      31.741  16.501 -23.972  0.00  0.00     0.079 A 
ATOM      5  C   UNL d   1      32.003  16.418 -23.235  0.00  0.00     0.116 A 
ATOM      6  S   UNL d   1      32.622  15.935 -23.253  0.00  0.00     0.213 S 
ATOM      7  C   UNL d   1      32.738  15.724 -24.001  0.00  0.00     0.100 A 
ATOM      8  O   UNL d   1      33.241  15.453 -23.271  0.00  0.00    -0.217 OA
ATOM      9  O   UNL d   1      32.535  16.125 -22.501  0.00  0.00    -0.217 OA
ATOM     10  C   UNL d   1      32.197  16.071 -24.442  0.00  0.00     0.030 A 
ENDBRANCH   1   4
BRANCH   1  11
ATOM     11  C   UNL d   1      30.361  16.635 -24.249  0.00  0.00     0.067 A 
ATOM     12  C   UNL d   1      29.876  16.659 -23.589  0.00  0.00     0.020 A 
ATOM     13  C   UNL d   1      29.092  16.348 -23.637  0.00  0.00     0.031 A 
ATOM     14  C   UNL d   1      28.822  16.024 -24.349  0.00  0.00     0.140 A 
ATOM     15  C   UNL d   1      29.314  16.003 -25.010  0.00  0.00     0.031 A 
ATOM     16  F   UNL d   1      28.059  15.720 -24.400  0.00  0.00    -0.204 F 
ATOM     17  C   UNL d   1      30.081  16.302 -24.979  0.00  0.00     0.020 A 
ENDBRANCH   1  11
BRANCH   2  18
ATOM     18  C   UNL d   1      32.143  18.463 -24.432  0.00  0.00     0.057 C 
ATOM     19  C   UNL d   1      32.394  18.869 -23.742  0.00  0.00     0.005 C 
ATOM     20  C   UNL d   1      32.670  18.388 -25.088  0.00  0.00     0.005 C 
ENDBRANCH   2  18
TORSDOF 3
ENDMDL
MODEL 2
REMARK VINA RESULT:      -0.1      2.084      3.650
REMARK  3 active torsions:
REMARK  status: ('A' for Active; 'I' for Inactive)
REMARK    1  A    between atoms: N_3  and  C_2 
REMARK       I    between atoms: C_4  and  N_3 
REMARK    2  A    between atoms: C_10  and  N_3 
REMARK    3  A    between atoms: C_12  and  C_4 
ROOT
ATOM      1  N   UNL d   1      31.924  17.728 -24.048  0.00  0.00    -0.274 N 
ATOM      2  C   UNL d   1      32.526  16.849 -23.389  0.00  0.00     0.265 C 
ATOM      3  O   UNL d   1      33.238  17.105 -23.125  0.00  0.00    -0.267 OA
ENDROOT
BRANCH   1   4
ATOM      4  C   UNL d   1      31.217  17.521 -24.329  0.00  0.00     0.079 A 
ATOM      5  C   UNL d   1      30.533  17.575 -23.945  0.00  0.00     0.116 A 
ATOM      6  S   UNL d   1      29.967  17.313 -24.421  0.00  0.00     0.213 S 
ATOM      7  C   UNL d   1      30.306  17.098 -25.097  0.00  0.00     0.100 A 
ATOM      8  O   UNL d   1      29.402  17.050 -24.898  0.00  0.00    -0.217 OA
ATOM      9  O   UNL d   1      29.599  17.516 -23.764  0.00  0.00    -0.217 OA
ATOM     10  C   UNL d   1      31.073  17.226 -25.040  0.00  0.00     0.030 A 
ENDBRANCH   1   4
BRANCH   1  11
ATOM     11  C   UNL d   1      32.250  18.476 -24.178  0.00  0.00     0.067 A 
ATOM     12  C   UNL d   1      32.339  18.988 -23.546  0.00  0.00     0.020 A 
ATOM     13  C   UNL d   1      32.672  19.754 -23.673  0.00  0.00     0.031 A 
ATOM     14  C   UNL d   1      32.903  19.979 -24.436  0.00  0.00     0.140 A 
ATOM     15  C   UNL d   1      32.811  19.459 -25.069  0.00  0.00     0.031 A 
ATOM     16  F   UNL d   1      33.228  20.723 -24.565  0.00  0.00    -0.204 F 
ATOM     17  C   UNL d   1      32.488  18.708 -24.959  0.00  0.00     0.020 A 
ENDBRANCH   1  11
BRANCH   2  18
ATOM     18  C   UNL d   1      32.220  16.092 -23.245  0.00  0.00     0.057 C 
ATOM     19  C   UNL d   1      31.704  15.956 -22.598  0.00  0.00     0.005 C 
ATOM     20  C   UNL d   1      32.430  15.453 -23.755  0.00  0.00     0.005 C 
ENDBRANCH   2  18
TORSDOF 3
ENDMDL
MODEL 3
REMARK VINA RESULT:      -0.1      1.751      3.205
REMARK  3 active torsions:
REMARK  status: ('A' for Active; 'I' for Inactive)
REMARK    1  A    between atoms: N_3  and  C_2 
REMARK       I    between atoms: C_4  and  N_3 
REMARK    2  A    between atoms: C_10  and  N_3 
REMARK    3  A    between atoms: C_12  and  C_4 
ROOT
ATOM      1  N   UNL d   1      31.964  17.621 -24.037  0.00  0.00    -0.274 N 
ATOM      2  C   UNL d   1      30.828  17.390 -24.513  0.00  0.00     0.265 C 
ATOM      3  O   UNL d   1      30.473  18.055 -24.784  0.00  0.00    -0.267 OA
ENDROOT
BRANCH   1   4
ATOM      4  C   UNL d   1      32.352  16.995 -23.758  0.00  0.00     0.079 A 
ATOM      5  C   UNL d   1      32.258  16.672 -23.046  0.00  0.00     0.116 A 
ATOM      6  S   UNL d   1      32.749  16.062 -22.992  0.00  0.00     0.213 S 
ATOM      7  C   UNL d   1      33.143  16.013 -23.670  0.00  0.00     0.100 A 
ATOM      8  O   UNL d   1      33.240  15.453 -22.937  0.00  0.00    -0.217 OA
ATOM      9  O   UNL d   1      32.376  16.083 -22.306  0.00  0.00    -0.217 OA
ATOM     10  C   UNL d   1      32.899  16.585 -24.139  0.00  0.00     0.030 A 
ENDBRANCH   1   4
BRANCH   1  11
ATOM     11  C   UNL d   1      32.282  18.383 -24.019  0.00  0.00     0.067 A 
ATOM     12  C   UNL d   1      32.705  18.655 -24.666  0.00  0.00     0.020 A 
ATOM     13  C   UNL d   1      33.033  19.434 -24.652  0.00  0.00     0.031 A 
ATOM     14  C   UNL d   1      32.924  19.913 -23.985  0.00  0.00     0.140 A 
ATOM     15  C   UNL d   1      32.498  19.633 -23.337  0.00  0.00     0.031 A 
ATOM     16  F   UNL d   1      33.241  20.671 -23.967  0.00  0.00    -0.204 F 
ATOM     17  C   UNL d   1      32.172  18.876 -23.336  0.00  0.00     0.020 A 
ENDBRANCH   1  11
BRANCH   2  18
ATOM     18  C   UNL d   1      30.488  16.635 -24.543  0.00  0.00     0.057 C 
ATOM     19  C   UNL d   1      30.781  16.055 -25.073  0.00  0.00     0.005 C 
ATOM     20  C   UNL d   1      29.839  16.448 -24.035  0.00  0.00     0.005 C 
ENDBRANCH   2  18
TORSDOF 3
ENDMDL
