MODEL 1
REMARK VINA RESULT:      71.8      0.000      0.000
REMARK  4 active torsions:
REMARK  status: ('A' for Active; 'I' for Inactive)
REMARK    1  A    between atoms: N_2  and  C_1 
REMARK    2  A    between atoms: N_11  and  C_6 
REMARK    3  A    between atoms: C_13  and  N_11 
REMARK    4  A    between atoms: O_20  and  C_14 
ROOT
ATOM      1  C   UNL d   1     -57.368 -99.680 -43.946  0.00  0.00     0.752 A 
ATOM      2  N   UNL d   1     -57.959 -99.383 -44.441  0.00  0.00    -0.040 NA
ATOM      3  C   UNL d   1     -58.648 -99.069 -44.121  0.00  0.00     0.182 A 
ATOM      4  N   UNL d   1     -57.474 -99.660 -43.126  0.00  0.00    -0.059 NA
ATOM      5  C   UNL d   1     -58.753 -99.049 -43.301  0.00  0.00     0.059 A 
ATOM      6  C   UNL d   1     -58.164 -99.346 -42.802  0.00  0.00     0.103 A 
ATOM      7  C   UNL d   1     -58.270 -99.326 -41.983  0.00  0.00     0.021 C 
ENDROOT
BRANCH   3   8
ATOM      8  N   UNL d   1     -59.236 -98.773 -44.613  0.00  0.00    -0.226 NA
BRANCH   8   9
ATOM      9  C   UNL d   1     -59.273 -99.000 -45.410  0.00  0.00     0.083 A 
ATOM     10  C   UNL d   1     -59.909 -99.467 -45.665  0.00  0.00     0.021 A 
ATOM     11  C   UNL d   1     -59.943 -99.692 -46.464  0.00  0.00     0.026 A 
ATOM     12  C   UNL d   1     -59.357 -99.457 -46.990  0.00  0.00     0.094 A 
ATOM     13  C   UNL d   1     -58.728 -98.992 -46.723  0.00  0.00     0.026 A 
ATOM     14  C   UNL d   1     -58.684 -98.762 -45.932  0.00  0.00     0.021 A 
BRANCH  12  15
ATOM     15  O   UNL d   1     -59.397 -99.682 -47.775  0.00  0.00    -0.328 OA
ATOM     16  C   UNL d   1     -59.745-100.395 -47.981  0.00  0.00     0.181 C 
ENDBRANCH  12  15
ENDBRANCH   8   9
ENDBRANCH   3   8
BRANCH   1  17
ATOM     17  N   UNL d   1     -56.743 -99.965 -44.225  0.00  0.00    -0.058 N 
ATOM     18  N   UNL d   1     -56.020-101.001 -44.532  0.00  0.00    -0.151 NA
ATOM     19  C   UNL d   1     -55.476-100.538 -44.792  0.00  0.00     0.103 A 
ATOM     20  C   UNL d   1     -54.846-100.824 -45.074  0.00  0.00     0.022 C 
ATOM     21  C   UNL d   1     -55.578 -99.796 -44.763  0.00  0.00     0.041 A 
ATOM     22  C   UNL d   1     -56.205 -99.507 -44.483  0.00  0.00     0.102 A 
ATOM     23  C   UNL d   1     -56.307 -98.760 -44.454  0.00  0.00     0.021 C 
ENDBRANCH   1  17
TORSDOF 4
ENDMDL
