MODEL 1
REMARK VINA RESULT:      28.1      0.000      0.000
REMARK  2 active torsions:
REMARK  status: ('A' for Active; 'I' for Inactive)
REMARK    1  A    between atoms: C_3  and  C_1 
REMARK       I    between atoms: N_2  and  C_3 
REMARK    2  A    between atoms: O_16  and  C_15 
ROOT
ATOM      1  C   UNL d   1      13.524  12.320  -2.887  0.00  0.00     0.121 A 
ATOM      2  C   UNL d   1      14.347  12.382  -2.822  0.00  0.00     0.305 A 
ATOM      3  O   UNL d   1      14.714  12.276  -2.080  0.00  0.00    -0.271 OA
ATOM      4  C   UNL d   1      13.059  12.153  -2.214  0.00  0.00     0.012 A 
ATOM      5  C   UNL d   1      14.261  12.111  -1.417  0.00  0.00     0.125 A 
ATOM      6  C   UNL d   1      13.430  12.049  -1.483  0.00  0.00     0.025 A 
ATOM      7  O   UNL d   1      14.804  12.547  -3.484  0.00  0.00    -0.259 OA
ATOM      8  C   UNL d   1      14.616  12.004  -0.675  0.00  0.00     0.117 A 
ATOM      9  C   UNL d   1      12.973  11.883  -0.813  0.00  0.00     0.002 A 
ATOM     10  C   UNL d   1      13.342  11.779  -0.083  0.00  0.00     0.002 A 
ATOM     11  C   UNL d   1      14.159  11.839  -0.014  0.00  0.00     0.026 A 
ENDROOT
BRANCH   1  12
ATOM     12  C   UNL d   1      13.165  12.425  -3.618  0.00  0.00     0.285 C 
ATOM     13  N   UNL d   1      13.118  13.170  -3.956  0.00  0.00    -0.193 N 
ATOM     14  N   UNL d   1      13.409  13.865  -3.625  0.00  0.00    -0.163 NA
ATOM     15  C   UNL d   1      12.776  13.355  -4.679  0.00  0.00     0.105 A 
ATOM     16  C   UNL d   1      13.245  14.479  -4.147  0.00  0.00     0.103 A 
ATOM     17  C   UNL d   1      13.442  15.275  -4.033  0.00  0.00     0.022 C 
ATOM     18  C   UNL d   1      12.857  14.164  -4.793  0.00  0.00     0.042 A 
ATOM     19  O   UNL d   1      12.847  11.779  -4.017  0.00  0.00    -0.265 OA
ENDBRANCH   1  12
BRANCH   8  20
ATOM     20  O   UNL d   1      15.434  12.066  -0.615  0.00  0.00    -0.326 OA
ATOM     21  C   UNL d   1      15.778  12.508  -0.016  0.00  0.00     0.181 C 
ENDBRANCH   8  20
TORSDOF 2
ENDMDL
MODEL 2
REMARK VINA RESULT:      30.9      1.794      3.656
REMARK  2 active torsions:
REMARK  status: ('A' for Active; 'I' for Inactive)
REMARK    1  A    between atoms: C_3  and  C_1 
REMARK       I    between atoms: N_2  and  C_3 
REMARK    2  A    between atoms: O_16  and  C_15 
ROOT
ATOM      1  C   UNL d   1      14.513  13.183  -1.638  0.00  0.00     0.121 A 
ATOM      2  C   UNL d   1      14.437  12.404  -1.905  0.00  0.00     0.305 A 
ATOM      3  O   UNL d   1      14.066  12.250  -2.636  0.00  0.00    -0.271 OA
ATOM      4  C   UNL d   1      14.220  13.817  -2.095  0.00  0.00     0.012 A 
ATOM      5  C   UNL d   1      13.776  12.869  -3.088  0.00  0.00     0.125 A 
ATOM      6  C   UNL d   1      13.853  13.656  -2.818  0.00  0.00     0.025 A 
ATOM      7  O   UNL d   1      14.726  11.781  -1.454  0.00  0.00    -0.259 OA
ATOM      8  C   UNL d   1      13.405  12.727  -3.816  0.00  0.00     0.117 A 
ATOM      9  C   UNL d   1      13.561  14.281  -3.276  0.00  0.00     0.002 A 
ATOM     10  C   UNL d   1      13.194  14.122  -3.997  0.00  0.00     0.002 A 
ATOM     11  C   UNL d   1      13.117  13.349  -4.266  0.00  0.00     0.026 A 
ENDROOT
BRANCH   1  12
ATOM     12  C   UNL d   1      14.880  13.333  -0.918  0.00  0.00     0.285 C 
ATOM     13  N   UNL d   1      15.094  14.097  -0.711  0.00  0.00    -0.193 N 
ATOM     14  N   UNL d   1      14.976  14.768  -1.172  0.00  0.00    -0.163 NA
ATOM     15  C   UNL d   1      15.461  14.326  -0.014  0.00  0.00     0.105 A 
ATOM     16  C   UNL d   1      15.273  15.413  -0.756  0.00  0.00     0.103 A 
ATOM     17  C   UNL d   1      15.268  16.199  -1.016  0.00  0.00     0.022 C 
ATOM     18  C   UNL d   1      15.570  15.139  -0.046  0.00  0.00     0.042 A 
ATOM     19  O   UNL d   1      15.034  12.715  -0.397  0.00  0.00    -0.265 OA
ENDBRANCH   1  12
BRANCH   8  20
ATOM     20  O   UNL d   1      13.332  11.950  -4.078  0.00  0.00    -0.326 OA
ATOM     21  C   UNL d   1      12.936  11.779  -4.776  0.00  0.00     0.181 C 
ENDBRANCH   8  20
TORSDOF 2
ENDMDL
