MODEL 1
REMARK VINA RESULT:      18.7      0.000      0.000
REMARK  3 active torsions:
REMARK  status: ('A' for Active; 'I' for Inactive)
REMARK    1  A    between atoms: C_4  and  N_1 
REMARK    2  A    between atoms: C_6  and  C_4 
REMARK       I    between atoms: N_8  and  C_6 
REMARK    3  A    between atoms: C_10  and  N_8 
ROOT
ATOM      1  C   UNL d   1      45.342 -15.023  44.371  0.00  0.00     0.165 C 
ENDROOT
BRANCH   1   2
ATOM      2  N   UNL d   1      45.683 -14.270  44.436  0.00  0.00    -0.204 N 
ATOM      3  N   UNL d   1      46.297 -14.058  44.955  0.00  0.00    -0.059 NA
ATOM      4  N   UNL d   1      46.466 -13.258  44.837  0.00  0.00    -0.129 NA
ATOM      5  C   UNL d   1      45.961 -12.970  44.249  0.00  0.00     0.122 A 
ATOM      6  C   UNL d   1      45.475 -13.599  43.999  0.00  0.00     0.104 A 
ATOM      7  C   UNL d   1      45.879 -12.226  43.909  0.00  0.00     0.022 A 
ATOM      8  C   UNL d   1      44.912 -13.477  43.412  0.00  0.00     0.021 A 
ATOM      9  C   UNL d   1      44.829 -12.731  43.072  0.00  0.00     0.002 A 
ATOM     10  C   UNL d   1      45.310 -12.110  43.318  0.00  0.00     0.002 A 
ENDBRANCH   1   2
BRANCH   1  11
ATOM     11  C   UNL d   1      44.655 -15.340  44.698  0.00  0.00     0.299 C 
ATOM     12  N   UNL d   1      44.767 -16.153  44.679  0.00  0.00    -0.207 NA
ATOM     13  O   UNL d   1      44.051 -14.839  44.954  0.00  0.00    -0.263 OA
BRANCH  12  14
ATOM     14  C   UNL d   1      45.372 -16.651  44.422  0.00  0.00     0.085 A 
ATOM     15  C   UNL d   1      45.388 -16.907  43.636  0.00  0.00     0.019 A 
ATOM     16  C   UNL d   1      45.994 -17.405  43.379  0.00  0.00     0.002 A 
ATOM     17  C   UNL d   1      46.013 -17.661  42.598  0.00  0.00     0.000 C 
ATOM     18  C   UNL d   1      46.582 -17.645  43.908  0.00  0.00     0.000 A 
ATOM     19  C   UNL d   1      46.564 -17.386  44.698  0.00  0.00     0.002 A 
ATOM     20  C   UNL d   1      45.961 -16.891  44.954  0.00  0.00     0.019 A 
ENDBRANCH  12  14
ENDBRANCH   1  11
TORSDOF 3
ENDMDL
