MODEL 1
REMARK VINA RESULT:      67.6      0.000      0.000
REMARK  4 active torsions:
REMARK  status: ('A' for Active; 'I' for Inactive)
REMARK    1  A    between atoms: N_3  and  C_1 
REMARK    2  A    between atoms: C_6  and  C_2 
REMARK    3  A    between atoms: C_13  and  N_8 
REMARK    4  A    between atoms: C_16  and  C_13 
ROOT
ATOM      1  N   UNL d   1     -57.225 -99.062 -45.748  0.00  0.00    -0.286 N 
ATOM      2  N   UNL d   1     -55.734 -99.541 -45.187  0.00  0.00    -0.300 N 
ATOM      3  C   UNL d   1     -57.171 -99.538 -45.077  0.00  0.00     0.101 A 
ATOM      4  C   UNL d   1     -56.537 -98.818 -46.149  0.00  0.00     0.101 A 
ATOM      5  C   UNL d   1     -55.800 -99.056 -45.870  0.00  0.00     0.100 A 
ATOM      6  C   UNL d   1     -56.426 -99.777 -44.797  0.00  0.00     0.100 A 
ENDROOT
BRANCH   1   7
ATOM      7  C   UNL d   1     -58.045 -98.961 -45.827  0.00  0.00     0.149 A 
ATOM      8  C   UNL d   1     -58.518 -98.912 -45.140  0.00  0.00     0.056 A 
ATOM      9  C   UNL d   1     -59.330 -98.811 -45.218  0.00  0.00     0.006 A 
ATOM     10  C   UNL d   1     -59.817 -98.761 -44.545  0.00  0.00     0.000 C 
ATOM     11  C   UNL d   1     -59.670 -98.759 -45.979  0.00  0.00     0.019 A 
ATOM     12  C   UNL d   1     -59.190 -98.809 -46.657  0.00  0.00     0.083 A 
ATOM     13  N   UNL d   1     -58.379 -98.910 -46.575  0.00  0.00    -0.228 NA
ATOM     14  C   UNL d   1     -59.531 -98.757 -47.411  0.00  0.00     0.021 C 
BRANCH   8  15
ATOM     15  C   UNL d   1     -58.176 -98.964 -44.394  0.00  0.00     0.125 C 
ATOM     16  N   UNL d   1     -58.618 -99.239 -43.756  0.00  0.00    -0.146 N 
ENDBRANCH   8  15
ENDBRANCH   1   7
BRANCH   2  17
ATOM     17  C   UNL d   1     -54.992 -99.775 -44.915  0.00  0.00     0.080 C 
BRANCH  17  18
ATOM     18  C   UNL d   1     -54.904-100.076 -44.151  0.00  0.00     0.018 A 
ATOM     19  C   UNL d   1     -54.898 -99.564 -43.509  0.00  0.00     0.002 A 
ATOM     20  C   UNL d   1     -54.811 -99.866 -42.747  0.00  0.00     0.000 A 
ATOM     21  C   UNL d   1     -54.730-100.674 -42.637  0.00  0.00     0.000 A 
ATOM     22  C   UNL d   1     -54.736-101.191 -43.281  0.00  0.00     0.000 A 
ATOM     23  C   UNL d   1     -54.824-100.884 -44.043  0.00  0.00     0.002 A 
ENDBRANCH  17  18
ENDBRANCH   2  17
TORSDOF 4
ENDMDL
