MODEL 1
REMARK VINA RESULT:      -2.4      0.000      0.000
REMARK  2 active torsions:
REMARK  status: ('A' for Active; 'I' for Inactive)
REMARK    1  A    between atoms: C_5  and  N_1 
REMARK    2  A    between atoms: O_14  and  C_11 
ROOT
ATOM      1  C   UNL d   1      30.377  16.215 -24.069  0.00  0.00     0.069 A 
ATOM      2  C   UNL d   1      30.961  16.619 -23.645  0.00  0.00     0.020 A 
ATOM      3  C   UNL d   1      30.618  15.622 -24.614  0.00  0.00     0.020 A 
ATOM      4  C   UNL d   1      31.991  15.879 -24.273  0.00  0.00     0.094 A 
ATOM      5  C   UNL d   1      31.760  16.447 -23.751  0.00  0.00     0.026 A 
ATOM      6  C   UNL d   1      31.422  15.453 -24.717  0.00  0.00     0.026 A 
ENDROOT
BRANCH   1   7
ATOM      7  N   UNL d   1      29.580  16.406 -23.945  0.00  0.00    -0.249 N 
ATOM      8  C   UNL d   1      29.152  16.969 -24.367  0.00  0.00     0.208 A 
ATOM      9  N   UNL d   1      28.369  16.960 -24.038  0.00  0.00    -0.212 NA
ATOM     10  S   UNL d   1      29.440  17.449 -24.992  0.00  0.00    -0.038 SA
ATOM     11  C   UNL d   1      28.370  16.394 -23.439  0.00  0.00     0.162 A 
ATOM     12  C   UNL d   1      29.120  16.057 -23.388  0.00  0.00     0.286 A 
ATOM     13  O   UNL d   1      29.370  15.453 -22.850  0.00  0.00    -0.265 OA
ENDBRANCH   1   7
BRANCH   4  14
ATOM     14  O   UNL d   1      32.796  15.728 -24.359  0.00  0.00    -0.328 OA
ATOM     15  C   UNL d   1      33.225  16.106 -24.952  0.00  0.00     0.181 C 
ENDBRANCH   4  14
TORSDOF 2
ENDMDL
MODEL 2
REMARK VINA RESULT:      -2.2      1.805      2.176
REMARK  2 active torsions:
REMARK  status: ('A' for Active; 'I' for Inactive)
REMARK    1  A    between atoms: C_5  and  N_1 
REMARK    2  A    between atoms: O_14  and  C_11 
ROOT
ATOM      1  C   UNL d   1      30.991  17.157 -24.492  0.00  0.00     0.069 A 
ATOM      2  C   UNL d   1      31.269  17.691 -25.057  0.00  0.00     0.020 A 
ATOM      3  C   UNL d   1      31.385  17.120 -23.750  0.00  0.00     0.020 A 
ATOM      4  C   UNL d   1      32.292  18.144 -24.191  0.00  0.00     0.094 A 
ATOM      5  C   UNL d   1      31.916  18.179 -24.901  0.00  0.00     0.026 A 
ATOM      6  C   UNL d   1      32.033  17.611 -23.597  0.00  0.00     0.026 A 
ENDROOT
BRANCH   1   7
ATOM      7  N   UNL d   1      30.340  16.677 -24.672  0.00  0.00    -0.249 N 
ATOM      8  C   UNL d   1      30.378  15.898 -24.940  0.00  0.00     0.208 A 
ATOM      9  N   UNL d   1      29.573  15.649 -25.044  0.00  0.00    -0.212 NA
ATOM     10  S   UNL d   1      31.075  15.453 -25.077  0.00  0.00    -0.038 SA
ATOM     11  C   UNL d   1      29.097  16.288 -24.835  0.00  0.00     0.162 A 
ATOM     12  C   UNL d   1      29.577  16.918 -24.607  0.00  0.00     0.286 A 
ATOM     13  O   UNL d   1      29.323  17.683 -24.350  0.00  0.00    -0.265 OA
ENDBRANCH   1   7
BRANCH   4  14
ATOM     14  O   UNL d   1      32.935  18.642 -24.061  0.00  0.00    -0.328 OA
ATOM     15  C   UNL d   1      33.025  19.019 -23.334  0.00  0.00     0.181 C 
ENDBRANCH   4  14
TORSDOF 2
ENDMDL
MODEL 3
REMARK VINA RESULT:      -2.1      1.567      2.194
REMARK  2 active torsions:
REMARK  status: ('A' for Active; 'I' for Inactive)
REMARK    1  A    between atoms: C_5  and  N_1 
REMARK    2  A    between atoms: O_14  and  C_11 
ROOT
ATOM      1  C   UNL d   1      31.298  17.054 -24.362  0.00  0.00     0.069 A 
ATOM      2  C   UNL d   1      31.618  16.969 -23.605  0.00  0.00     0.020 A 
ATOM      3  C   UNL d   1      31.588  17.675 -24.851  0.00  0.00     0.020 A 
ATOM      4  C   UNL d   1      32.482  18.072 -23.798  0.00  0.00     0.094 A 
ATOM      5  C   UNL d   1      32.206  17.479 -23.332  0.00  0.00     0.026 A 
ATOM      6  C   UNL d   1      32.178  18.183 -24.572  0.00  0.00     0.026 A 
ENDROOT
BRANCH   1   7
ATOM      7  N   UNL d   1      30.708  16.529 -24.616  0.00  0.00    -0.249 N 
ATOM      8  C   UNL d   1      29.897  16.680 -24.604  0.00  0.00     0.208 A 
ATOM      9  N   UNL d   1      29.528  15.982 -24.916  0.00  0.00    -0.212 NA
ATOM     10  S   UNL d   1      29.525  17.382 -24.337  0.00  0.00    -0.038 SA
ATOM     11  C   UNL d   1      30.133  15.453 -25.096  0.00  0.00     0.162 A 
ATOM     12  C   UNL d   1      30.857  15.798 -24.909  0.00  0.00     0.286 A 
ATOM     13  O   UNL d   1      31.624  15.453 -25.004  0.00  0.00    -0.265 OA
ENDBRANCH   1   7
BRANCH   4  14
ATOM     14  O   UNL d   1      33.070  18.566 -23.500  0.00  0.00    -0.328 OA
ATOM     15  C   UNL d   1      32.888  19.114 -22.912  0.00  0.00     0.181 C 
ENDBRANCH   4  14
TORSDOF 2
ENDMDL
MODEL 4
REMARK VINA RESULT:      -1.8      2.953      3.827
REMARK  2 active torsions:
REMARK  status: ('A' for Active; 'I' for Inactive)
REMARK    1  A    between atoms: C_5  and  N_1 
REMARK    2  A    between atoms: O_14  and  C_11 
ROOT
ATOM      1  C   UNL d   1      32.626  18.226 -23.662  0.00  0.00     0.069 A 
ATOM      2  C   UNL d   1      31.878  18.041 -23.959  0.00  0.00     0.020 A 
ATOM      3  C   UNL d   1      33.117  17.596 -23.396  0.00  0.00     0.020 A 
ATOM      4  C   UNL d   1      32.084  16.658 -23.741  0.00  0.00     0.094 A 
ATOM      5  C   UNL d   1      31.615  17.260 -23.996  0.00  0.00     0.026 A 
ATOM      6  C   UNL d   1      32.849  16.814 -23.435  0.00  0.00     0.026 A 
ENDROOT
BRANCH   1   7
ATOM      7  N   UNL d   1      32.869  19.018 -23.635  0.00  0.00    -0.249 N 
ATOM      8  C   UNL d   1      33.005  19.499 -24.290  0.00  0.00     0.208 A 
ATOM      9  N   UNL d   1      33.241  20.253 -23.979  0.00  0.00    -0.212 NA
ATOM     10  S   UNL d   1      32.925  19.279 -25.095  0.00  0.00    -0.038 SA
ATOM     11  C   UNL d   1      33.233  20.185 -23.158  0.00  0.00     0.162 A 
ATOM     12  C   UNL d   1      33.003  19.420 -22.954  0.00  0.00     0.286 A 
ATOM     13  O   UNL d   1      32.920  19.106 -22.172  0.00  0.00    -0.265 OA
ENDBRANCH   1   7
BRANCH   4  14
ATOM     14  O   UNL d   1      31.797  15.888 -23.789  0.00  0.00    -0.328 OA
ATOM     15  C   UNL d   1      31.127  15.671 -23.362  0.00  0.00     0.181 C 
ENDBRANCH   4  14
TORSDOF 2
ENDMDL
MODEL 5
REMARK VINA RESULT:      -1.7      7.702      8.283
REMARK  2 active torsions:
REMARK  status: ('A' for Active; 'I' for Inactive)
REMARK    1  A    between atoms: C_5  and  N_1 
REMARK    2  A    between atoms: O_14  and  C_11 
ROOT
ATOM      1  C   UNL d   1      32.697  22.664 -20.086  0.00  0.00     0.069 A 
ATOM      2  C   UNL d   1      32.331  23.377 -19.887  0.00  0.00     0.020 A 
ATOM      3  C   UNL d   1      33.159  22.275 -19.501  0.00  0.00     0.020 A 
ATOM      4  C   UNL d   1      32.857  23.331 -18.574  0.00  0.00     0.094 A 
ATOM      5  C   UNL d   1      32.415  23.702 -19.133  0.00  0.00     0.026 A 
ATOM      6  C   UNL d   1      33.241  22.605 -18.747  0.00  0.00     0.026 A 
ENDROOT
BRANCH   1   7
ATOM      7  N   UNL d   1      32.598  22.356 -20.849  0.00  0.00    -0.249 N 
ATOM      8  C   UNL d   1      32.847  22.717 -21.547  0.00  0.00     0.208 A 
ATOM      9  N   UNL d   1      32.622  22.191 -22.174  0.00  0.00    -0.212 NA
ATOM     10  S   UNL d   1      33.241  23.455 -21.613  0.00  0.00    -0.038 SA
ATOM     11  C   UNL d   1      32.252  21.545 -21.821  0.00  0.00     0.162 A 
ATOM     12  C   UNL d   1      32.241  21.654 -21.005  0.00  0.00     0.286 A 
ATOM     13  O   UNL d   1      31.916  21.129 -20.426  0.00  0.00    -0.265 OA
ENDBRANCH   1   7
BRANCH   4  14
ATOM     14  O   UNL d   1      32.924  23.678 -17.830  0.00  0.00    -0.328 OA
ATOM     15  C   UNL d   1      32.502  23.372 -17.193  0.00  0.00     0.181 C 
ENDBRANCH   4  14
TORSDOF 2
ENDMDL
MODEL 6
REMARK VINA RESULT:      -0.5      1.718      3.301
REMARK  2 active torsions:
REMARK  status: ('A' for Active; 'I' for Inactive)
REMARK    1  A    between atoms: C_5  and  N_1 
REMARK    2  A    between atoms: O_14  and  C_11 
ROOT
ATOM      1  C   UNL d   1      31.180  16.428 -23.993  0.00  0.00     0.069 A 
ATOM      2  C   UNL d   1      30.943  15.885 -23.418  0.00  0.00     0.020 A 
ATOM      3  C   UNL d   1      30.585  16.838 -24.425  0.00  0.00     0.020 A 
ATOM      4  C   UNL d   1      29.575  16.137 -23.680  0.00  0.00     0.094 A 
ATOM      5  C   UNL d   1      30.144  15.745 -23.267  0.00  0.00     0.026 A 
ATOM      6  C   UNL d   1      29.785  16.694 -24.270  0.00  0.00     0.026 A 
ENDROOT
BRANCH   1   7
ATOM      7  N   UNL d   1      31.988  16.552 -24.127  0.00  0.00    -0.249 N 
ATOM      8  C   UNL d   1      32.464  16.106 -24.632  0.00  0.00     0.208 A 
ATOM      9  N   UNL d   1      33.240  16.446 -24.579  0.00  0.00    -0.212 NA
ATOM     10  S   UNL d   1      32.220  15.452 -25.097  0.00  0.00    -0.038 SA
ATOM     11  C   UNL d   1      33.189  17.074 -24.048  0.00  0.00     0.162 A 
ATOM     12  C   UNL d   1      32.415  17.133 -23.775  0.00  0.00     0.286 A 
ATOM     13  O   UNL d   1      32.113  17.699 -23.222  0.00  0.00    -0.265 OA
ENDBRANCH   1   7
BRANCH   4  14
ATOM     14  O   UNL d   1      28.786  15.978 -23.509  0.00  0.00    -0.328 OA
ATOM     15  C   UNL d   1      28.223  16.577 -23.564  0.00  0.00     0.181 C 
ENDBRANCH   4  14
TORSDOF 2
ENDMDL
