MODEL 1
REMARK VINA RESULT:      38.0      0.000      0.000
REMARK  5 active torsions:
REMARK  status: ('A' for Active; 'I' for Inactive)
REMARK    1  A    between atoms: C_2  and  S_1 
REMARK    2  A    between atoms: N_3  and  S_1 
REMARK    3  A    between atoms: C_5  and  C_6 
REMARK       I    between atoms: N_10  and  C_5 
REMARK    4  A    between atoms: C_25  and  N_10 
REMARK    5  A    between atoms: C_24  and  C_25 
ROOT
ATOM      1  C   UNL d   1      14.059  12.334  -1.597  0.00  0.00     0.104 A 
ATOM      2  C   UNL d   1      14.812  12.580  -1.379  0.00  0.00     0.018 A 
ATOM      3  C   UNL d   1      15.052  12.524  -0.591  0.00  0.00     0.059 A 
ATOM      4  C   UNL d   1      13.538  12.029  -1.030  0.00  0.00     0.012 A 
ATOM      5  C   UNL d   1      14.538  12.221  -0.019  0.00  0.00     0.005 A 
ATOM      6  C   UNL d   1      13.779  11.973  -0.242  0.00  0.00     0.001 A 
ATOM      7  C   UNL d   1      12.770  11.779  -1.254  0.00  0.00     0.001 C 
ENDROOT
BRANCH   3   8
ATOM      8  C   UNL d   1      15.803  12.768  -0.370  0.00  0.00     0.279 C 
ATOM      9  N   UNL d   1      15.922  13.543  -0.106  0.00  0.00    -0.206 NA
ATOM     10  O   UNL d   1      16.432  12.244  -0.410  0.00  0.00    -0.265 OA
BRANCH   9  11
ATOM     11  C   UNL d   1      15.294  14.067  -0.065  0.00  0.00     0.102 C 
BRANCH  11  12
ATOM     12  C   UNL d   1      15.401  14.866  -0.293  0.00  0.00     0.021 A 
ATOM     13  C   UNL d   1      14.859  15.242  -0.791  0.00  0.00     0.028 A 
ATOM     14  C   UNL d   1      14.978  16.025  -1.004  0.00  0.00     0.119 A 
ATOM     15  O   UNL d   1      14.542  16.543  -1.486  0.00  0.00    -0.300 OA
ATOM     16  C   UNL d   1      15.638  16.443  -0.723  0.00  0.00     0.119 A 
ATOM     17  C   UNL d   1      14.927  17.263  -1.499  0.00  0.00     0.304 A 
ATOM     18  O   UNL d   1      15.607  17.201  -1.026  0.00  0.00    -0.300 OA
ATOM     19  C   UNL d   1      16.172  16.060  -0.227  0.00  0.00     0.026 A 
ATOM     20  C   UNL d   1      16.053  15.278  -0.014  0.00  0.00     0.004 A 
ENDBRANCH  11  12
ENDBRANCH   9  11
ENDBRANCH   3   8
BRANCH   1  21
ATOM     21  S   UNL d   1      13.825  12.393  -2.388  0.00  0.00     0.272 S 
ATOM     22  O   UNL d   1      14.341  11.779  -2.583  0.00  0.00    -0.200 OA
ATOM     23  O   UNL d   1      13.312  13.006  -2.188  0.00  0.00    -0.200 OA
BRANCH  21  24
ATOM     24  N   UNL d   1      13.594  12.452  -3.175  0.00  0.00    -0.225 N 
ATOM     25  C   UNL d   1      13.556  11.779  -3.640  0.00  0.00     0.118 A 
ATOM     26  C   UNL d   1      13.324  11.828  -4.431  0.00  0.00     0.142 A 
ATOM     27  O   UNL d   1      13.129  12.567  -4.752  0.00  0.00    -0.300 OA
ATOM     28  C   UNL d   1      13.167  13.239  -4.287  0.00  0.00     0.142 A 
ATOM     29  C   UNL d   1      13.399  13.191  -3.496  0.00  0.00     0.118 A 
ENDBRANCH  21  24
ENDBRANCH   1  21
TORSDOF 5
ENDMDL
