MODEL 1
REMARK VINA RESULT:      34.8      0.000      0.000
REMARK  9 active torsions:
REMARK  status: ('A' for Active; 'I' for Inactive)
REMARK       I    between atoms: C_2  and  N_1 
REMARK    1  A    between atoms: C_3  and  C_2 
REMARK    2  A    between atoms: C_15  and  C_4 
REMARK       I    between atoms: C_5  and  N_9 
REMARK    3  A    between atoms: C_6  and  C_5 
REMARK       I    between atoms: N_21  and  C_6 
REMARK    4  A    between atoms: N_9  and  C_15 
REMARK    5  A    between atoms: C_25  and  N_21 
REMARK    6  A    between atoms: N_23  and  C_26 
REMARK    7  A    between atoms: C_27  and  N_23 
REMARK    8  A    between atoms: C_28  and  N_23 
REMARK    9  A    between atoms: C_26  and  C_25 
ROOT
ATOM      1  N   UNL d   1      46.514 -18.863  41.262  0.00  0.00    -0.250 N 
ATOM      2  C   UNL d   1      46.430 -18.298  41.861  0.00  0.00     0.266 C 
ATOM      3  C   UNL d   1      46.569 -18.724  40.448  0.00  0.00     0.190 A 
ATOM      4  O   UNL d   1      46.392 -17.495  41.662  0.00  0.00    -0.267 OA
ATOM      5  O   UNL d   1      46.647 -19.442  40.058  0.00  0.00    -0.285 OA
ATOM      6  C   UNL d   1      46.560 -19.683  41.364  0.00  0.00     0.112 A 
ATOM      7  C   UNL d   1      46.641 -20.037  40.626  0.00  0.00     0.144 A 
ENDROOT
BRANCH   3   8
ATOM      8  C   UNL d   1      46.548 -17.972  40.092  0.00  0.00     0.146 C 
BRANCH   8   9
ATOM      9  N   UNL d   1      45.865 -17.724  39.703  0.00  0.00    -0.199 NA
ATOM     10  C   UNL d   1      45.915 -17.163  39.107  0.00  0.00     0.337 C 
ATOM     11  O   UNL d   1      46.647 -16.841  38.891  0.00  0.00    -0.260 OA
BRANCH  10  12
ATOM     12  C   UNL d   1      45.232 -16.915  38.718  0.00  0.00     0.337 C 
ATOM     13  O   UNL d   1      44.578 -16.669  39.151  0.00  0.00    -0.260 OA
ATOM     14  N   UNL d   1      45.207 -16.915  37.899  0.00  0.00    -0.201 NA
BRANCH  14  15
ATOM     15  C   UNL d   1      44.641 -16.713  37.321  0.00  0.00     0.121 C 
BRANCH  15  16
ATOM     16  C   UNL d   1      44.154 -16.054  37.392  0.00  0.00     0.101 C 
BRANCH  16  17
ATOM     17  N   UNL d   1      43.989 -15.593  36.734  0.00  0.00    -0.301 N 
BRANCH  17  18
ATOM     18  C   UNL d   1      44.518 -15.037  36.459  0.00  0.00     0.080 C 
ATOM     19  C   UNL d   1      45.321 -15.052  36.684  0.00  0.00     0.021 C 
ENDBRANCH  17  18
BRANCH  17  20
ATOM     20  C   UNL d   1      43.255 -15.697  36.333  0.00  0.00     0.080 C 
ATOM     21  C   UNL d   1      42.757 -16.334  36.544  0.00  0.00     0.021 C 
ENDBRANCH  17  20
ENDBRANCH  16  17
ENDBRANCH  15  16
ENDBRANCH  14  15
ENDBRANCH  10  12
ENDBRANCH   8   9
ENDBRANCH   3   8
BRANCH   2  22
ATOM     22  C   UNL d   1      46.384 -18.547  42.645  0.00  0.00     0.059 A 
ATOM     23  C   UNL d   1      46.397 -19.338  42.843  0.00  0.00     0.031 A 
ATOM     24  C   UNL d   1      46.352 -19.587  43.628  0.00  0.00     0.119 A 
ATOM     25  O   UNL d   1      46.352 -20.329  43.984  0.00  0.00    -0.300 OA
ATOM     26  C   UNL d   1      46.291 -19.009  44.230  0.00  0.00     0.119 A 
ATOM     27  C   UNL d   1      46.292 -20.210  44.806  0.00  0.00     0.304 A 
ATOM     28  O   UNL d   1      46.254 -19.408  44.954  0.00  0.00    -0.300 OA
ATOM     29  C   UNL d   1      46.276 -18.207  44.041  0.00  0.00     0.026 A 
ATOM     30  C   UNL d   1      46.323 -17.973  43.251  0.00  0.00     0.007 A 
ENDBRANCH   2  22
TORSDOF 9
ENDMDL
MODEL 2
REMARK VINA RESULT:      36.5      3.643      4.786
REMARK  9 active torsions:
REMARK  status: ('A' for Active; 'I' for Inactive)
REMARK       I    between atoms: C_2  and  N_1 
REMARK    1  A    between atoms: C_3  and  C_2 
REMARK    2  A    between atoms: C_15  and  C_4 
REMARK       I    between atoms: C_5  and  N_9 
REMARK    3  A    between atoms: C_6  and  C_5 
REMARK       I    between atoms: N_21  and  C_6 
REMARK    4  A    between atoms: N_9  and  C_15 
REMARK    5  A    between atoms: C_25  and  N_21 
REMARK    6  A    between atoms: N_23  and  C_26 
REMARK    7  A    between atoms: C_27  and  N_23 
REMARK    8  A    between atoms: C_28  and  N_23 
REMARK    9  A    between atoms: C_26  and  C_25 
ROOT
ATOM      1  N   UNL d   1      45.821 -17.065  43.699  0.00  0.00    -0.250 N 
ATOM      2  C   UNL d   1      45.523 -17.150  42.932  0.00  0.00     0.266 C 
ATOM      3  C   UNL d   1      45.615 -16.486  44.253  0.00  0.00     0.190 A 
ATOM      4  O   UNL d   1      44.955 -16.615  42.653  0.00  0.00    -0.267 OA
ATOM      5  O   UNL d   1      46.045 -16.609  44.941  0.00  0.00    -0.285 OA
ATOM      6  C   UNL d   1      46.386 -17.547  44.062  0.00  0.00     0.112 A 
ATOM      7  C   UNL d   1      46.523 -17.267  44.823  0.00  0.00     0.144 A 
ENDROOT
BRANCH   3   8
ATOM      8  C   UNL d   1      45.060 -15.879  44.124  0.00  0.00     0.146 C 
BRANCH   8   9
ATOM      9  N   UNL d   1      45.322 -15.118  43.946  0.00  0.00    -0.199 NA
ATOM     10  C   UNL d   1      45.019 -14.476  44.358  0.00  0.00     0.337 C 
ATOM     11  O   UNL d   1      44.452 -14.584  44.951  0.00  0.00    -0.260 OA
BRANCH  10  12
ATOM     12  C   UNL d   1      45.281 -13.715  44.181  0.00  0.00     0.337 C 
ATOM     13  O   UNL d   1      45.625 -13.251  44.766  0.00  0.00    -0.260 OA
ATOM     14  N   UNL d   1      45.197 -13.423  43.420  0.00  0.00    -0.201 NA
BRANCH  14  15
ATOM     15  C   UNL d   1      45.385 -12.708  43.034  0.00  0.00     0.121 C 
BRANCH  15  16
ATOM     16  C   UNL d   1      45.444 -12.649  42.216  0.00  0.00     0.101 C 
BRANCH  16  17
ATOM     17  N   UNL d   1      44.766 -12.572  41.761  0.00  0.00    -0.301 N 
BRANCH  17  18
ATOM     18  C   UNL d   1      44.804 -12.440  40.957  0.00  0.00     0.080 C 
ATOM     19  C   UNL d   1      44.151 -12.140  40.534  0.00  0.00     0.021 C 
ENDBRANCH  17  18
BRANCH  17  20
ATOM     20  C   UNL d   1      44.011 -12.631  42.134  0.00  0.00     0.080 C 
ATOM     21  C   UNL d   1      43.812 -12.098  42.745  0.00  0.00     0.021 C 
ENDBRANCH  17  20
ENDBRANCH  16  17
ENDBRANCH  15  16
ENDBRANCH  14  15
ENDBRANCH  10  12
ENDBRANCH   8   9
ENDBRANCH   3   8
BRANCH   2  22
ATOM     22  C   UNL d   1      45.798 -17.767  42.459  0.00  0.00     0.059 A 
ATOM     23  C   UNL d   1      45.790 -18.540  42.719  0.00  0.00     0.031 A 
ATOM     24  C   UNL d   1      46.066 -19.157  42.247  0.00  0.00     0.119 A 
ATOM     25  O   UNL d   1      46.124 -19.969  42.360  0.00  0.00    -0.300 OA
ATOM     26  C   UNL d   1      46.359 -18.978  41.483  0.00  0.00     0.119 A 
ATOM     27  C   UNL d   1      46.453 -20.294  41.667  0.00  0.00     0.304 A 
ATOM     28  O   UNL d   1      46.595 -19.690  41.136  0.00  0.00    -0.300 OA
ATOM     29  C   UNL d   1      46.372 -18.200  41.211  0.00  0.00     0.026 A 
ATOM     30  C   UNL d   1      46.093 -17.593  41.695  0.00  0.00     0.007 A 
ENDBRANCH   2  22
TORSDOF 9
ENDMDL
