MODEL 1
REMARK VINA RESULT:      19.1      0.000      0.000
REMARK  4 active torsions:
REMARK  status: ('A' for Active; 'I' for Inactive)
REMARK    1  A    between atoms: C_11  and  C_3 
REMARK    2  A    between atoms: N_10  and  C_4 
REMARK    3  A    between atoms: C_12  and  N_10 
REMARK    4  A    between atoms: C_13  and  C_12 
ROOT
ATOM      1  C   UNL d   1      46.488 -18.355  43.152  0.00  0.00     0.167 A 
ATOM      2  N   UNL d   1      46.443 -17.606  43.494  0.00  0.00    -0.195 N 
ATOM      3  C   UNL d   1      46.496 -18.259  42.339  0.00  0.00     0.057 A 
ATOM      4  C   UNL d   1      46.426 -17.528  44.313  0.00  0.00     0.167 A 
ATOM      5  N   UNL d   1      46.424 -17.056  42.890  0.00  0.00    -0.161 NA
ATOM      6  N   UNL d   1      46.515 -19.025  43.628  0.00  0.00    -0.227 NA
ATOM      7  C   UNL d   1      46.454 -18.205  44.791  0.00  0.00     0.058 A 
ATOM      8  C   UNL d   1      46.456 -17.449  42.183  0.00  0.00     0.124 A 
ATOM      9  C   UNL d   1      46.498 -18.945  44.452  0.00  0.00     0.086 A 
ATOM     10  C   UNL d   1      46.525 -19.604  44.949  0.00  0.00     0.021 C 
ENDROOT
BRANCH   4  11
ATOM     11  N   UNL d   1      46.381 -16.780  44.655  0.00  0.00    -0.225 NA
BRANCH  11  12
ATOM     12  C   UNL d   1      45.651 -16.471  44.872  0.00  0.00     0.101 C 
BRANCH  12  13
ATOM     13  C   UNL d   1      45.515 -15.650  44.823  0.00  0.00     0.019 A 
ATOM     14  C   UNL d   1      46.135 -15.116  44.953  0.00  0.00     0.002 A 
ATOM     15  C   UNL d   1      46.001 -14.310  44.904  0.00  0.00     0.000 A 
ATOM     16  C   UNL d   1      45.245 -14.023  44.724  0.00  0.00     0.000 A 
ATOM     17  C   UNL d   1      44.629 -14.556  44.594  0.00  0.00     0.000 A 
ATOM     18  C   UNL d   1      44.764 -15.371  44.644  0.00  0.00     0.002 A 
ENDBRANCH  12  13
ENDBRANCH  11  12
ENDBRANCH   4  11
BRANCH   3  19
ATOM     19  C   UNL d   1      46.538 -18.914  41.837  0.00  0.00     0.004 A 
ATOM     20  C   UNL d   1      46.552 -19.674  42.164  0.00  0.00     0.000 A 
ATOM     21  C   UNL d   1      46.594 -20.329  41.671  0.00  0.00     0.000 A 
ATOM     22  C   UNL d   1      46.623 -20.231  40.846  0.00  0.00     0.000 A 
ATOM     23  C   UNL d   1      46.609 -19.470  40.529  0.00  0.00     0.000 A 
ATOM     24  C   UNL d   1      46.567 -18.812  41.027  0.00  0.00     0.000 A 
ENDBRANCH   3  19
TORSDOF 4
ENDMDL
