MODEL 1
REMARK VINA RESULT:      -2.0      0.000      0.000
REMARK  5 active torsions:
REMARK  status: ('A' for Active; 'I' for Inactive)
REMARK    1  A    between atoms: C_4  and  C_1 
REMARK    2  A    between atoms: C_8  and  C_4 
REMARK    3  A    between atoms: C_9  and  C_4 
REMARK    4  A    between atoms: N_5  and  C_9 
REMARK    5  A    between atoms: O_18  and  C_11 
ROOT
ATOM      1  C   UNL d   1      31.242  16.224 -24.092  0.00  0.00     0.025 C 
ENDROOT
BRANCH   1   2
ATOM      2  C   UNL d   1      30.551  16.108 -23.648  0.00  0.00     0.021 A 
ATOM      3  C   UNL d   1      30.505  15.834 -22.846  0.00  0.00     0.082 A 
ATOM      4  N   UNL d   1      29.722  15.803 -22.633  0.00  0.00    -0.246 NA
ATOM      5  C   UNL d   1      31.153  15.637 -22.376  0.00  0.00     0.021 C 
ATOM      6  C   UNL d   1      29.257  16.048 -23.270  0.00  0.00     0.081 A 
ATOM      7  C   UNL d   1      29.770  16.237 -23.898  0.00  0.00     0.019 A 
ATOM      8  C   UNL d   1      28.450  16.127 -23.371  0.00  0.00     0.019 A 
ATOM      9  C   UNL d   1      29.468  16.501 -24.618  0.00  0.00     0.002 A 
ATOM     10  C   UNL d   1      28.656  16.582 -24.722  0.00  0.00     0.000 A 
ATOM     11  C   UNL d   1      28.135  16.390 -24.084  0.00  0.00     0.002 A 
ENDBRANCH   1   2
BRANCH   1  12
ATOM     12  C   UNL d   1      31.541  16.977 -24.196  0.00  0.00     0.004 A 
ATOM     13  C   UNL d   1      31.835  17.421 -23.563  0.00  0.00     0.028 A 
ATOM     14  C   UNL d   1      32.134  18.173 -23.671  0.00  0.00     0.133 A 
ATOM     15  C   UNL d   1      32.148  18.506 -24.419  0.00  0.00     0.218 A 
ATOM     16  C   UNL d   1      31.859  18.079 -25.072  0.00  0.00     0.044 A 
ATOM     17  O   UNL d   1      32.445  19.260 -24.540  0.00  0.00    -0.284 OA
ATOM     18  C   UNL d   1      31.560  17.326 -24.963  0.00  0.00     0.004 A 
BRANCH  14  19
ATOM     19  O   UNL d   1      32.421  18.596 -23.019  0.00  0.00    -0.325 OA
ATOM     20  C   UNL d   1      33.050  18.286 -22.595  0.00  0.00     0.181 C 
ENDBRANCH  14  19
ENDBRANCH   1  12
BRANCH   1  21
ATOM     21  C   UNL d   1      31.624  15.564 -24.429  0.00  0.00     0.148 C 
BRANCH  21  22
ATOM     22  N   UNL d   1      32.446  15.513 -24.389  0.00  0.00    -0.112 N 
ATOM     23  O   UNL d   1      32.825  15.523 -23.666  0.00  0.00    -0.532 OA
ATOM     24  O   UNL d   1      32.883  15.453 -25.096  0.00  0.00    -0.532 OA
ENDBRANCH  21  22
ENDBRANCH   1  21
TORSDOF 5
ENDMDL
MODEL 2
REMARK VINA RESULT:      -1.5      1.650      3.750
REMARK  5 active torsions:
REMARK  status: ('A' for Active; 'I' for Inactive)
REMARK    1  A    between atoms: C_4  and  C_1 
REMARK    2  A    between atoms: C_8  and  C_4 
REMARK    3  A    between atoms: C_9  and  C_4 
REMARK    4  A    between atoms: N_5  and  C_9 
REMARK    5  A    between atoms: O_18  and  C_11 
ROOT
ATOM      1  C   UNL d   1      32.620  17.773 -23.872  0.00  0.00     0.025 C 
ENDROOT
BRANCH   1   2
ATOM      2  C   UNL d   1      32.793  18.568 -23.712  0.00  0.00     0.021 A 
ATOM      3  C   UNL d   1      32.871  19.193 -24.281  0.00  0.00     0.082 A 
ATOM      4  N   UNL d   1      33.041  19.879 -23.881  0.00  0.00    -0.246 NA
ATOM      5  C   UNL d   1      32.786  19.104 -25.096  0.00  0.00     0.021 C 
ATOM      6  C   UNL d   1      33.076  19.721 -23.072  0.00  0.00     0.081 A 
ATOM      7  C   UNL d   1      32.922  18.910 -22.967  0.00  0.00     0.019 A 
ATOM      8  C   UNL d   1      33.224  20.191 -22.419  0.00  0.00     0.019 A 
ATOM      9  C   UNL d   1      32.919  18.580 -22.212  0.00  0.00     0.002 A 
ATOM     10  C   UNL d   1      33.067  19.051 -21.553  0.00  0.00     0.000 A 
ATOM     11  C   UNL d   1      33.223  19.875 -21.660  0.00  0.00     0.002 A 
ENDBRANCH   1   2
BRANCH   1  12
ATOM     12  C   UNL d   1      31.859  17.549 -24.065  0.00  0.00     0.004 A 
ATOM     13  C   UNL d   1      31.374  17.147 -23.529  0.00  0.00     0.028 A 
ATOM     14  C   UNL d   1      30.612  16.924 -23.725  0.00  0.00     0.133 A 
ATOM     15  C   UNL d   1      30.312  17.099 -24.467  0.00  0.00     0.218 A 
ATOM     16  C   UNL d   1      30.780  17.502 -25.023  0.00  0.00     0.044 A 
ATOM     17  O   UNL d   1      29.550  16.881 -24.675  0.00  0.00    -0.284 OA
ATOM     18  C   UNL d   1      31.541  17.724 -24.826  0.00  0.00     0.004 A 
BRANCH  14  19
ATOM     19  O   UNL d   1      30.148  16.522 -23.169  0.00  0.00    -0.325 OA
ATOM     20  C   UNL d   1      29.914  15.754 -23.334  0.00  0.00     0.181 C 
ENDBRANCH  14  19
ENDBRANCH   1  12
BRANCH   1  21
ATOM     21  C   UNL d   1      33.233  17.208 -23.834  0.00  0.00     0.148 C 
BRANCH  21  22
ATOM     22  N   UNL d   1      33.171  16.519 -24.284  0.00  0.00    -0.112 N 
ATOM     23  O   UNL d   1      33.240  16.549 -25.097  0.00  0.00    -0.532 OA
ATOM     24  O   UNL d   1      33.037  15.794 -23.896  0.00  0.00    -0.532 OA
ENDBRANCH  21  22
ENDBRANCH   1  21
TORSDOF 5
ENDMDL
MODEL 3
REMARK VINA RESULT:       0.7      1.777      3.610
REMARK  5 active torsions:
REMARK  status: ('A' for Active; 'I' for Inactive)
REMARK    1  A    between atoms: C_4  and  C_1 
REMARK    2  A    between atoms: C_8  and  C_4 
REMARK    3  A    between atoms: C_9  and  C_4 
REMARK    4  A    between atoms: N_5  and  C_9 
REMARK    5  A    between atoms: O_18  and  C_11 
ROOT
ATOM      1  C   UNL d   1      30.766  17.012 -24.584  0.00  0.00     0.025 C 
ENDROOT
BRANCH   1   2
ATOM      2  C   UNL d   1      31.493  16.725 -24.306  0.00  0.00     0.021 A 
ATOM      3  C   UNL d   1      31.877  16.006 -24.543  0.00  0.00     0.082 A 
ATOM      4  N   UNL d   1      32.574  15.944 -24.132  0.00  0.00    -0.246 NA
ATOM      5  C   UNL d   1      31.581  15.472 -25.097  0.00  0.00     0.021 C 
ATOM      6  C   UNL d   1      32.656  16.599 -23.636  0.00  0.00     0.081 A 
ATOM      7  C   UNL d   1      31.987  17.082 -23.743  0.00  0.00     0.019 A 
ATOM      8  C   UNL d   1      33.237  16.825 -23.106  0.00  0.00     0.019 A 
ATOM      9  C   UNL d   1      31.908  17.784 -23.320  0.00  0.00     0.002 A 
ATOM     10  C   UNL d   1      32.490  18.014 -22.786  0.00  0.00     0.000 A 
ATOM     11  C   UNL d   1      33.170  17.524 -22.676  0.00  0.00     0.002 A 
ENDBRANCH   1   2
BRANCH   1  12
ATOM     12  C   UNL d   1      30.070  16.645 -24.366  0.00  0.00     0.004 A 
ATOM     13  C   UNL d   1      29.889  16.487 -23.575  0.00  0.00     0.028 A 
ATOM     14  C   UNL d   1      29.191  16.120 -23.361  0.00  0.00     0.133 A 
ATOM     15  C   UNL d   1      28.651  15.898 -23.935  0.00  0.00     0.218 A 
ATOM     16  C   UNL d   1      28.810  16.045 -24.738  0.00  0.00     0.044 A 
ATOM     17  O   UNL d   1      27.948  15.528 -23.733  0.00  0.00    -0.284 OA
ATOM     18  C   UNL d   1      29.508  16.413 -24.951  0.00  0.00     0.004 A 
BRANCH  14  19
ATOM     19  O   UNL d   1      29.035  15.974 -22.560  0.00  0.00    -0.325 OA
ATOM     20  C   UNL d   1      29.529  15.464 -22.149  0.00  0.00     0.181 C 
ENDBRANCH  14  19
ENDBRANCH   1  12
BRANCH   1  21
ATOM     21  C   UNL d   1      30.757  17.677 -25.087  0.00  0.00     0.148 C 
BRANCH  21  22
ATOM     22  N   UNL d   1      30.279  18.320 -24.891  0.00  0.00    -0.112 N 
ATOM     23  O   UNL d   1      30.607  18.999 -24.577  0.00  0.00    -0.532 OA
ATOM     24  O   UNL d   1      29.456  18.267 -25.018  0.00  0.00    -0.532 OA
ENDBRANCH  21  22
ENDBRANCH   1  21
TORSDOF 5
ENDMDL
