MODEL 1
REMARK VINA RESULT:      -8.8      0.000      0.000
REMARK  7 active torsions:
REMARK  status: ('A' for Active; 'I' for Inactive)
REMARK    1  A    between atoms: C_6  and  C_1 
REMARK    2  A    between atoms: C_14  and  C_5 
REMARK    3  A    between atoms: O_19  and  C_7 
REMARK    4  A    between atoms: O_20  and  C_8 
REMARK    5  A    between atoms: O_21  and  C_9 
REMARK    6  A    between atoms: O_17  and  C_14 
REMARK    7  A    between atoms: C_18  and  O_17 
ROOT
ATOM      1  C   UNL d   1      51.326  33.988  52.785  0.00  0.00     0.205 A 
ATOM      2  N   UNL d   1      51.250  34.167  51.979  0.00  0.00    -0.121 NA
ATOM      3  O   UNL d   1      50.617  34.183  53.165  0.00  0.00    -0.267 OA
ATOM      4  N   UNL d   1      50.490  34.474  51.856  0.00  0.00    -0.119 NA
ATOM      5  C   UNL d   1      50.100  34.483  52.590  0.00  0.00     0.230 A 
ENDROOT
BRANCH   1   6
ATOM      6  C   UNL d   1      52.005  33.668  53.140  0.00  0.00     0.047 A 
ATOM      7  C   UNL d   1      52.448  34.113  53.675  0.00  0.00     0.030 A 
ATOM      8  C   UNL d   1      53.113  33.791  54.021  0.00  0.00     0.118 A 
ATOM      9  C   UNL d   1      53.351  33.018  53.840  0.00  0.00     0.138 A 
ATOM     10  C   UNL d   1      52.907  32.577  53.306  0.00  0.00     0.118 A 
ATOM     11  C   UNL d   1      52.228  32.898  52.950  0.00  0.00     0.030 A 
BRANCH   8  12
ATOM     12  O   UNL d   1      53.553  34.245  54.557  0.00  0.00    -0.326 OA
ATOM     13  C   UNL d   1      53.230  34.928  54.895  0.00  0.00     0.181 C 
ENDBRANCH   8  12
BRANCH   9  14
ATOM     14  O   UNL d   1      54.027  32.703  54.196  0.00  0.00    -0.324 OA
ATOM     15  C   UNL d   1      54.768  32.787  53.836  0.00  0.00     0.182 C 
ENDBRANCH   9  14
BRANCH  10  16
ATOM     16  O   UNL d   1      53.144  31.803  53.125  0.00  0.00    -0.326 OA
ATOM     17  C   UNL d   1      52.585  31.240  52.920  0.00  0.00     0.181 C 
ENDBRANCH  10  16
ENDBRANCH   1   6
BRANCH   5  18
ATOM     18  C   UNL d   1      49.327  34.746  52.732  0.00  0.00     0.169 C 
BRANCH  18  19
ATOM     19  O   UNL d   1      49.183  35.539  52.904  0.00  0.00    -0.301 OA
BRANCH  19  20
ATOM     20  C   UNL d   1      48.409  35.795  53.039  0.00  0.00     0.100 A 
ATOM     21  C   UNL d   1      48.151  35.943  53.809  0.00  0.00     0.025 A 
ATOM     22  C   UNL d   1      47.384  36.197  53.943  0.00  0.00     0.002 A 
ATOM     23  C   UNL d   1      47.118  36.348  54.714  0.00  0.00     0.000 A 
ATOM     24  C   UNL d   1      46.867  36.305  53.312  0.00  0.00     0.000 A 
ATOM     25  C   UNL d   1      46.344  36.603  54.842  0.00  0.00     0.000 A 
ATOM     26  C   UNL d   1      45.832  36.709  54.205  0.00  0.00     0.000 A 
ATOM     27  C   UNL d   1      46.094  36.560  53.434  0.00  0.00     0.000 A 
ATOM     28  C   UNL d   1      47.121  36.158  52.541  0.00  0.00     0.002 A 
ATOM     29  C   UNL d   1      47.904  35.899  52.402  0.00  0.00     0.025 A 
ENDBRANCH  19  20
ENDBRANCH  18  19
ENDBRANCH   5  18
TORSDOF 7
ENDMDL
MODEL 2
REMARK VINA RESULT:      -8.7      0.148      1.453
REMARK  7 active torsions:
REMARK  status: ('A' for Active; 'I' for Inactive)
REMARK    1  A    between atoms: C_6  and  C_1 
REMARK    2  A    between atoms: C_14  and  C_5 
REMARK    3  A    between atoms: O_19  and  C_7 
REMARK    4  A    between atoms: O_20  and  C_8 
REMARK    5  A    between atoms: O_21  and  C_9 
REMARK    6  A    between atoms: O_17  and  C_14 
REMARK    7  A    between atoms: C_18  and  O_17 
ROOT
ATOM      1  C   UNL d   1      51.368  33.986  52.772  0.00  0.00     0.205 A 
ATOM      2  N   UNL d   1      51.304  34.143  51.961  0.00  0.00    -0.121 NA
ATOM      3  O   UNL d   1      50.650  34.180  53.135  0.00  0.00    -0.267 OA
ATOM      4  N   UNL d   1      50.541  34.437  51.818  0.00  0.00    -0.119 NA
ATOM      5  C   UNL d   1      50.139  34.459  52.545  0.00  0.00     0.230 A 
ENDROOT
BRANCH   1   6
ATOM      6  C   UNL d   1      52.045  33.684  53.147  0.00  0.00     0.047 A 
ATOM      7  C   UNL d   1      52.286  32.907  53.014  0.00  0.00     0.030 A 
ATOM      8  C   UNL d   1      52.952  32.618  53.386  0.00  0.00     0.118 A 
ATOM      9  C   UNL d   1      53.392  33.098  53.899  0.00  0.00     0.138 A 
ATOM     10  C   UNL d   1      53.149  33.873  54.029  0.00  0.00     0.118 A 
ATOM     11  C   UNL d   1      52.471  34.175  53.653  0.00  0.00     0.030 A 
BRANCH   8  12
ATOM     12  O   UNL d   1      53.189  31.835  53.248  0.00  0.00    -0.326 OA
ATOM     13  C   UNL d   1      52.660  31.287  52.925  0.00  0.00     0.181 C 
ENDBRANCH   8  12
BRANCH   9  14
ATOM     14  O   UNL d   1      54.064  32.794  54.270  0.00  0.00    -0.324 OA
ATOM     15  C   UNL d   1      54.811  32.882  53.922  0.00  0.00     0.182 C 
ENDBRANCH   9  14
BRANCH  10  16
ATOM     16  O   UNL d   1      53.587  34.354  54.542  0.00  0.00    -0.326 OA
ATOM     17  C   UNL d   1      53.311  35.100  54.743  0.00  0.00     0.181 C 
ENDBRANCH  10  16
ENDBRANCH   1   6
BRANCH   5  18
ATOM     18  C   UNL d   1      49.360  34.714  52.667  0.00  0.00     0.169 C 
BRANCH  18  19
ATOM     19  O   UNL d   1      49.202  35.509  52.819  0.00  0.00    -0.301 OA
BRANCH  19  20
ATOM     20  C   UNL d   1      48.421  35.761  52.914  0.00  0.00     0.100 A 
ATOM     21  C   UNL d   1      48.139  35.956  53.665  0.00  0.00     0.025 A 
ATOM     22  C   UNL d   1      47.365  36.206  53.760  0.00  0.00     0.002 A 
ATOM     23  C   UNL d   1      47.075  36.405  54.511  0.00  0.00     0.000 A 
ATOM     24  C   UNL d   1      46.864  36.263  53.109  0.00  0.00     0.000 A 
ATOM     25  C   UNL d   1      46.294  36.655  54.600  0.00  0.00     0.000 A 
ATOM     26  C   UNL d   1      45.798  36.709  53.943  0.00  0.00     0.000 A 
ATOM     27  C   UNL d   1      46.085  36.512  53.192  0.00  0.00     0.000 A 
ATOM     28  C   UNL d   1      47.143  36.068  52.357  0.00  0.00     0.002 A 
ATOM     29  C   UNL d   1      47.933  35.813  52.259  0.00  0.00     0.025 A 
ENDBRANCH  19  20
ENDBRANCH  18  19
ENDBRANCH   5  18
TORSDOF 7
ENDMDL
MODEL 3
REMARK VINA RESULT:      -7.9      1.276      6.347
REMARK  7 active torsions:
REMARK  status: ('A' for Active; 'I' for Inactive)
REMARK    1  A    between atoms: C_6  and  C_1 
REMARK    2  A    between atoms: C_14  and  C_5 
REMARK    3  A    between atoms: O_19  and  C_7 
REMARK    4  A    between atoms: O_20  and  C_8 
REMARK    5  A    between atoms: O_21  and  C_9 
REMARK    6  A    between atoms: O_17  and  C_14 
REMARK    7  A    between atoms: C_18  and  O_17 
ROOT
ATOM      1  C   UNL d   1      48.856  35.060  52.307  0.00  0.00     0.205 A 
ATOM      2  N   UNL d   1      49.146  34.756  51.593  0.00  0.00    -0.121 NA
ATOM      3  O   UNL d   1      49.399  34.885  52.906  0.00  0.00    -0.267 OA
ATOM      4  N   UNL d   1      49.873  34.388  51.748  0.00  0.00    -0.119 NA
ATOM      5  C   UNL d   1      50.028  34.469  52.560  0.00  0.00     0.230 A 
ENDROOT
BRANCH   1   6
ATOM      6  C   UNL d   1      48.140  35.471  52.394  0.00  0.00     0.047 A 
ATOM      7  C   UNL d   1      47.602  35.515  51.770  0.00  0.00     0.030 A 
ATOM      8  C   UNL d   1      46.901  35.920  51.864  0.00  0.00     0.118 A 
ATOM      9  C   UNL d   1      46.721  36.292  52.583  0.00  0.00     0.138 A 
ATOM     10  C   UNL d   1      47.259  36.247  53.203  0.00  0.00     0.118 A 
ATOM     11  C   UNL d   1      47.976  35.835  53.115  0.00  0.00     0.030 A 
BRANCH   8  12
ATOM     12  O   UNL d   1      46.365  35.960  51.233  0.00  0.00    -0.326 OA
ATOM     13  C   UNL d   1      46.135  35.273  50.834  0.00  0.00     0.181 C 
ENDBRANCH   8  12
BRANCH   9  14
ATOM     14  O   UNL d   1      46.007  36.700  52.666  0.00  0.00    -0.324 OA
ATOM     15  C   UNL d   1      45.361  36.342  53.042  0.00  0.00     0.182 C 
ENDBRANCH   9  14
BRANCH  10  16
ATOM     16  O   UNL d   1      47.080  36.617  53.923  0.00  0.00    -0.326 OA
ATOM     17  C   UNL d   1      47.643  36.652  54.518  0.00  0.00     0.181 C 
ENDBRANCH  10  16
ENDBRANCH   1   6
BRANCH   5  18
ATOM     18  C   UNL d   1      50.694  34.185  52.964  0.00  0.00     0.169 C 
BRANCH  18  19
ATOM     19  O   UNL d   1      51.451  34.391  52.710  0.00  0.00    -0.301 OA
BRANCH  19  20
ATOM     20  C   UNL d   1      52.099  34.259  53.207  0.00  0.00     0.100 A 
ATOM     21  C   UNL d   1      52.511  33.545  53.165  0.00  0.00     0.025 A 
ATOM     22  C   UNL d   1      53.153  33.413  53.657  0.00  0.00     0.002 A 
ATOM     23  C   UNL d   1      53.572  32.698  53.621  0.00  0.00     0.000 A 
ATOM     24  C   UNL d   1      53.390  33.990  54.193  0.00  0.00     0.000 A 
ATOM     25  C   UNL d   1      54.218  32.571  54.118  0.00  0.00     0.000 A 
ATOM     26  C   UNL d   1      54.449  33.154  54.653  0.00  0.00     0.000 A 
ATOM     27  C   UNL d   1      54.033  33.869  54.692  0.00  0.00     0.000 A 
ATOM     28  C   UNL d   1      52.980  34.705  54.237  0.00  0.00     0.002 A 
ATOM     29  C   UNL d   1      52.325  34.841  53.737  0.00  0.00     0.025 A 
ENDBRANCH  19  20
ENDBRANCH  18  19
ENDBRANCH   5  18
TORSDOF 7
ENDMDL
MODEL 4
REMARK VINA RESULT:      -7.8      1.302      6.318
REMARK  7 active torsions:
REMARK  status: ('A' for Active; 'I' for Inactive)
REMARK    1  A    between atoms: C_6  and  C_1 
REMARK    2  A    between atoms: C_14  and  C_5 
REMARK    3  A    between atoms: O_19  and  C_7 
REMARK    4  A    between atoms: O_20  and  C_8 
REMARK    5  A    between atoms: O_21  and  C_9 
REMARK    6  A    between atoms: O_17  and  C_14 
REMARK    7  A    between atoms: C_18  and  O_17 
ROOT
ATOM      1  C   UNL d   1      48.731  35.122  52.306  0.00  0.00     0.205 A 
ATOM      2  N   UNL d   1      49.012  34.818  51.588  0.00  0.00    -0.121 NA
ATOM      3  O   UNL d   1      49.288  34.960  52.896  0.00  0.00    -0.267 OA
ATOM      4  N   UNL d   1      49.748  34.464  51.731  0.00  0.00    -0.119 NA
ATOM      5  C   UNL d   1      49.918  34.553  52.540  0.00  0.00     0.230 A 
ENDROOT
BRANCH   1   6
ATOM      6  C   UNL d   1      48.010  35.521  52.405  0.00  0.00     0.047 A 
ATOM      7  C   UNL d   1      47.841  35.914  53.111  0.00  0.00     0.030 A 
ATOM      8  C   UNL d   1      47.131  36.304  53.201  0.00  0.00     0.118 A 
ATOM      9  C   UNL d   1      46.571  36.309  52.589  0.00  0.00     0.138 A 
ATOM     10  C   UNL d   1      46.742  35.916  51.887  0.00  0.00     0.118 A 
ATOM     11  C   UNL d   1      47.464  35.517  51.788  0.00  0.00     0.030 A 
BRANCH   8  12
ATOM     12  O   UNL d   1      46.969  36.697  53.912  0.00  0.00    -0.326 OA
ATOM     13  C   UNL d   1      47.480  36.623  54.559  0.00  0.00     0.181 C 
ENDBRANCH   8  12
BRANCH   9  14
ATOM     14  O   UNL d   1      45.855  36.707  52.692  0.00  0.00    -0.324 OA
ATOM     15  C   UNL d   1      45.192  36.308  52.987  0.00  0.00     0.182 C 
ENDBRANCH   9  14
BRANCH  10  16
ATOM     16  O   UNL d   1      46.183  35.921  51.274  0.00  0.00    -0.326 OA
ATOM     17  C   UNL d   1      46.006  35.227  50.875  0.00  0.00     0.181 C 
ENDBRANCH  10  16
ENDBRANCH   1   6
BRANCH   5  18
ATOM     18  C   UNL d   1      50.597  34.284  52.931  0.00  0.00     0.169 C 
BRANCH  18  19
ATOM     19  O   UNL d   1      51.294  34.153  52.511  0.00  0.00    -0.301 OA
BRANCH  19  20
ATOM     20  C   UNL d   1      51.980  33.932  52.915  0.00  0.00     0.100 A 
ATOM     21  C   UNL d   1      52.228  33.144  52.905  0.00  0.00     0.025 A 
ATOM     22  C   UNL d   1      52.909  32.925  53.306  0.00  0.00     0.002 A 
ATOM     23  C   UNL d   1      53.165  32.136  53.301  0.00  0.00     0.000 A 
ATOM     24  C   UNL d   1      53.347  33.486  53.719  0.00  0.00     0.000 A 
ATOM     25  C   UNL d   1      53.851  31.921  53.706  0.00  0.00     0.000 A 
ATOM     26  C   UNL d   1      54.284  32.489  54.117  0.00  0.00     0.000 A 
ATOM     27  C   UNL d   1      54.031  33.277  54.125  0.00  0.00     0.000 A 
ATOM     28  C   UNL d   1      53.101  34.273  53.730  0.00  0.00     0.002 A 
ATOM     29  C   UNL d   1      52.407  34.499  53.323  0.00  0.00     0.025 A 
ENDBRANCH  19  20
ENDBRANCH  18  19
ENDBRANCH   5  18
TORSDOF 7
ENDMDL
