MODEL 1
REMARK VINA RESULT:      -8.8      0.000      0.000
REMARK  5 active torsions:
REMARK  status: ('A' for Active; 'I' for Inactive)
REMARK    1  A    between atoms: C_7  and  C_1 
REMARK    2  A    between atoms: O_13  and  C_7 
REMARK    3  A    between atoms: C_15  and  C_9 
REMARK    4  A    between atoms: C_11  and  C_15 
REMARK    5  A    between atoms: C_18  and  O_13 
ROOT
ATOM      1  C   UNL d   1      53.355  31.189  53.570  0.00  0.00     0.127 A 
ATOM      2  C   UNL d   1      52.811  31.370  53.005  0.00  0.00     0.305 A 
ATOM      3  O   UNL d   1      52.541  32.163  52.899  0.00  0.00    -0.273 OA
ATOM      4  C   UNL d   1      53.672  31.787  54.076  0.00  0.00     0.013 A 
ATOM      5  C   UNL d   1      52.840  32.768  53.386  0.00  0.00     0.103 A 
ATOM      6  C   UNL d   1      53.417  32.576  53.986  0.00  0.00     0.023 A 
ATOM      7  O   UNL d   1      52.508  30.751  52.510  0.00  0.00    -0.259 OA
ATOM      8  C   UNL d   1      52.588  33.546  53.296  0.00  0.00     0.023 A 
ATOM      9  C   UNL d   1      53.719  33.169  54.473  0.00  0.00     0.002 A 
ATOM     10  C   UNL d   1      53.449  33.963  54.368  0.00  0.00     0.000 A 
ATOM     11  C   UNL d   1      52.905  34.144  53.802  0.00  0.00     0.002 A 
ENDROOT
BRANCH   1  12
ATOM     12  C   UNL d   1      53.570  30.402  53.617  0.00  0.00     0.305 C 
ATOM     13  O   UNL d   1      54.137  30.089  53.082  0.00  0.00    -0.259 OA
BRANCH  12  14
ATOM     14  O   UNL d   1      53.250  29.876  54.182  0.00  0.00    -0.271 OA
BRANCH  14  15
ATOM     15  C   UNL d   1      53.614  29.128  54.319  0.00  0.00     0.126 C 
ATOM     16  C   UNL d   1      53.350  28.668  54.948  0.00  0.00     0.029 C 
ENDBRANCH  14  15
ENDBRANCH  12  14
ENDBRANCH   1  12
BRANCH   8  17
ATOM     17  C   UNL d   1      52.034  33.730  52.719  0.00  0.00     0.002 C 
BRANCH  17  18
ATOM     18  C   UNL d   1      51.519  34.382  52.826  0.00  0.00     0.000 C 
ATOM     19  C   UNL d   1      50.849  34.458  52.357  0.00  0.00     0.000 C 
ENDBRANCH  17  18
ENDBRANCH   8  17
TORSDOF 5
ENDMDL
MODEL 2
REMARK VINA RESULT:      -8.6      1.996      4.047
REMARK  5 active torsions:
REMARK  status: ('A' for Active; 'I' for Inactive)
REMARK    1  A    between atoms: C_7  and  C_1 
REMARK    2  A    between atoms: O_13  and  C_7 
REMARK    3  A    between atoms: C_15  and  C_9 
REMARK    4  A    between atoms: C_11  and  C_15 
REMARK    5  A    between atoms: C_18  and  O_13 
ROOT
ATOM      1  C   UNL d   1      51.860  33.842  52.798  0.00  0.00     0.127 A 
ATOM      2  C   UNL d   1      52.346  34.355  53.183  0.00  0.00     0.305 A 
ATOM      3  O   UNL d   1      53.026  34.080  53.601  0.00  0.00    -0.273 OA
ATOM      4  C   UNL d   1      52.015  33.011  52.800  0.00  0.00     0.013 A 
ATOM      5  C   UNL d   1      53.198  33.266  53.616  0.00  0.00     0.103 A 
ATOM      6  C   UNL d   1      52.683  32.721  53.207  0.00  0.00     0.023 A 
ATOM      7  O   UNL d   1      52.168  35.184  53.165  0.00  0.00    -0.259 OA
ATOM      8  C   UNL d   1      53.857  32.981  54.018  0.00  0.00     0.023 A 
ATOM      9  C   UNL d   1      52.845  31.913  53.217  0.00  0.00     0.002 A 
ATOM     10  C   UNL d   1      53.526  31.636  53.635  0.00  0.00     0.000 A 
ATOM     11  C   UNL d   1      54.012  32.150  54.020  0.00  0.00     0.002 A 
ENDROOT
BRANCH   1  12
ATOM     12  C   UNL d   1      51.221  34.177  52.415  0.00  0.00     0.305 C 
ATOM     13  O   UNL d   1      51.271  34.368  51.599  0.00  0.00    -0.259 OA
BRANCH  12  14
ATOM     14  O   UNL d   1      50.498  34.347  52.800  0.00  0.00    -0.271 OA
BRANCH  14  15
ATOM     15  C   UNL d   1      49.801  34.493  52.348  0.00  0.00     0.126 C 
ATOM     16  C   UNL d   1      49.157  34.845  52.718  0.00  0.00     0.029 C 
ENDBRANCH  14  15
ENDBRANCH  12  14
ENDBRANCH   1  12
BRANCH   8  17
ATOM     17  C   UNL d   1      54.352  33.504  54.410  0.00  0.00     0.002 C 
BRANCH  17  18
ATOM     18  C   UNL d   1      54.785  33.249  55.080  0.00  0.00     0.000 C 
ATOM     19  C   UNL d   1      55.276  33.775  55.476  0.00  0.00     0.000 C 
ENDBRANCH  17  18
ENDBRANCH   8  17
TORSDOF 5
ENDMDL
MODEL 3
REMARK VINA RESULT:      -8.6      1.493      4.069
REMARK  5 active torsions:
REMARK  status: ('A' for Active; 'I' for Inactive)
REMARK    1  A    between atoms: C_7  and  C_1 
REMARK    2  A    between atoms: O_13  and  C_7 
REMARK    3  A    between atoms: C_15  and  C_9 
REMARK    4  A    between atoms: C_11  and  C_15 
REMARK    5  A    between atoms: C_18  and  O_13 
ROOT
ATOM      1  C   UNL d   1      53.658  32.861  54.171  0.00  0.00     0.127 A 
ATOM      2  C   UNL d   1      53.851  32.346  54.758  0.00  0.00     0.305 A 
ATOM      3  O   UNL d   1      53.731  31.515  54.664  0.00  0.00    -0.273 OA
ATOM      4  C   UNL d   1      53.329  32.588  53.443  0.00  0.00     0.013 A 
ATOM      5  C   UNL d   1      53.408  31.224  53.955  0.00  0.00     0.103 A 
ATOM      6  C   UNL d   1      53.203  31.771  53.332  0.00  0.00     0.023 A 
ATOM      7  O   UNL d   1      54.181  32.646  55.480  0.00  0.00    -0.259 OA
ATOM      8  C   UNL d   1      53.284  30.418  53.847  0.00  0.00     0.023 A 
ATOM      9  C   UNL d   1      52.882  31.491  52.626  0.00  0.00     0.002 A 
ATOM     10  C   UNL d   1      52.761  30.660  52.532  0.00  0.00     0.000 A 
ATOM     11  C   UNL d   1      52.954  30.144  53.119  0.00  0.00     0.002 A 
ENDROOT
BRANCH   1  12
ATOM     12  C   UNL d   1      53.802  33.650  54.330  0.00  0.00     0.305 C 
ATOM     13  O   UNL d   1      54.590  33.928  54.403  0.00  0.00    -0.259 OA
BRANCH  12  14
ATOM     14  O   UNL d   1      53.190  34.212  54.426  0.00  0.00    -0.271 OA
BRANCH  14  15
ATOM     15  C   UNL d   1      53.360  35.036  54.367  0.00  0.00     0.126 C 
ATOM     16  C   UNL d   1      52.741  35.574  54.443  0.00  0.00     0.029 C 
ENDBRANCH  14  15
ENDBRANCH  12  14
ENDBRANCH   1  12
BRANCH   8  17
ATOM     17  C   UNL d   1      53.481  29.892  54.446  0.00  0.00     0.002 C 
BRANCH  17  18
ATOM     18  C   UNL d   1      53.332  29.073  54.350  0.00  0.00     0.000 C 
ATOM     19  C   UNL d   1      53.457  28.557  54.977  0.00  0.00     0.000 C 
ENDBRANCH  17  18
ENDBRANCH   8  17
TORSDOF 5
ENDMDL
MODEL 4
REMARK VINA RESULT:      -8.3      0.974      1.780
REMARK  5 active torsions:
REMARK  status: ('A' for Active; 'I' for Inactive)
REMARK    1  A    between atoms: C_7  and  C_1 
REMARK    2  A    between atoms: O_13  and  C_7 
REMARK    3  A    between atoms: C_15  and  C_9 
REMARK    4  A    between atoms: C_11  and  C_15 
REMARK    5  A    between atoms: C_18  and  O_13 
ROOT
ATOM      1  C   UNL d   1      52.907  31.782  53.169  0.00  0.00     0.127 A 
ATOM      2  C   UNL d   1      53.486  32.290  53.403  0.00  0.00     0.305 A 
ATOM      3  O   UNL d   1      53.330  33.115  53.495  0.00  0.00    -0.273 OA
ATOM      4  C   UNL d   1      52.125  32.058  53.008  0.00  0.00     0.013 A 
ATOM      5  C   UNL d   1      52.566  33.409  53.342  0.00  0.00     0.103 A 
ATOM      6  C   UNL d   1      51.952  32.870  53.094  0.00  0.00     0.023 A 
ATOM      7  O   UNL d   1      54.263  31.987  53.558  0.00  0.00    -0.259 OA
ATOM      8  C   UNL d   1      52.397  34.209  53.427  0.00  0.00     0.023 A 
ATOM      9  C   UNL d   1      51.193  33.152  52.940  0.00  0.00     0.002 A 
ATOM     10  C   UNL d   1      51.036  33.978  53.032  0.00  0.00     0.000 A 
ATOM     11  C   UNL d   1      51.615  34.486  53.266  0.00  0.00     0.002 A 
ENDROOT
BRANCH   1  12
ATOM     12  C   UNL d   1      53.128  30.999  53.101  0.00  0.00     0.305 C 
ATOM     13  O   UNL d   1      53.323  30.680  52.349  0.00  0.00    -0.259 OA
BRANCH  12  14
ATOM     14  O   UNL d   1      53.173  30.481  53.755  0.00  0.00    -0.271 OA
BRANCH  14  15
ATOM     15  C   UNL d   1      53.141  29.646  53.638  0.00  0.00     0.126 C 
ATOM     16  C   UNL d   1      53.238  29.151  54.288  0.00  0.00     0.029 C 
ENDBRANCH  14  15
ENDBRANCH  12  14
ENDBRANCH   1  12
BRANCH   8  17
ATOM     17  C   UNL d   1      52.988  34.727  53.666  0.00  0.00     0.002 C 
BRANCH  17  18
ATOM     18  C   UNL d   1      52.790  35.421  54.090  0.00  0.00     0.000 C 
ATOM     19  C   UNL d   1      53.381  35.870  54.442  0.00  0.00     0.000 C 
ENDBRANCH  17  18
ENDBRANCH   8  17
TORSDOF 5
ENDMDL
MODEL 5
REMARK VINA RESULT:      -7.4      1.195      3.843
REMARK  5 active torsions:
REMARK  status: ('A' for Active; 'I' for Inactive)
REMARK    1  A    between atoms: C_7  and  C_1 
REMARK    2  A    between atoms: O_13  and  C_7 
REMARK    3  A    between atoms: C_15  and  C_9 
REMARK    4  A    between atoms: C_11  and  C_15 
REMARK    5  A    between atoms: C_18  and  O_13 
ROOT
ATOM      1  C   UNL d   1      51.912  33.708  53.040  0.00  0.00     0.127 A 
ATOM      2  C   UNL d   1      51.968  32.981  52.697  0.00  0.00     0.305 A 
ATOM      3  O   UNL d   1      52.526  32.411  52.974  0.00  0.00    -0.273 OA
ATOM      4  C   UNL d   1      52.410  33.922  53.688  0.00  0.00     0.013 A 
ATOM      5  C   UNL d   1      53.026  32.601  53.611  0.00  0.00     0.103 A 
ATOM      6  C   UNL d   1      52.968  33.371  53.975  0.00  0.00     0.023 A 
ATOM      7  O   UNL d   1      51.456  32.791  52.048  0.00  0.00    -0.259 OA
ATOM      8  C   UNL d   1      53.575  32.057  53.893  0.00  0.00     0.023 A 
ATOM      9  C   UNL d   1      53.460  33.568  54.606  0.00  0.00     0.002 A 
ATOM     10  C   UNL d   1      54.019  32.997  54.884  0.00  0.00     0.000 A 
ATOM     11  C   UNL d   1      54.074  32.271  54.541  0.00  0.00     0.002 A 
ENDROOT
BRANCH   1  12
ATOM     12  C   UNL d   1      51.351  34.209  52.722  0.00  0.00     0.305 C 
ATOM     13  O   UNL d   1      51.500  34.599  51.994  0.00  0.00    -0.259 OA
BRANCH  12  14
ATOM     14  O   UNL d   1      50.616  34.360  53.090  0.00  0.00    -0.271 OA
BRANCH  14  15
ATOM     15  C   UNL d   1      50.041  34.842  52.706  0.00  0.00     0.126 C 
ATOM     16  C   UNL d   1      49.366  35.061  53.122  0.00  0.00     0.029 C 
ENDBRANCH  14  15
ENDBRANCH  12  14
ENDBRANCH   1  12
BRANCH   8  17
ATOM     17  C   UNL d   1      53.632  31.316  53.543  0.00  0.00     0.002 C 
BRANCH  17  18
ATOM     18  C   UNL d   1      53.742  30.636  54.018  0.00  0.00     0.000 C 
ATOM     19  C   UNL d   1      53.644  29.888  53.694  0.00  0.00     0.000 C 
ENDBRANCH  17  18
ENDBRANCH   8  17
TORSDOF 5
ENDMDL
MODEL 6
REMARK VINA RESULT:      -6.3      2.572      3.468
REMARK  5 active torsions:
REMARK  status: ('A' for Active; 'I' for Inactive)
REMARK    1  A    between atoms: C_7  and  C_1 
REMARK    2  A    between atoms: O_13  and  C_7 
REMARK    3  A    between atoms: C_15  and  C_9 
REMARK    4  A    between atoms: C_11  and  C_15 
REMARK    5  A    between atoms: C_18  and  O_13 
ROOT
ATOM      1  C   UNL d   1      53.075  34.292  54.378  0.00  0.00     0.127 A 
ATOM      2  C   UNL d   1      52.610  34.917  54.174  0.00  0.00     0.305 A 
ATOM      3  O   UNL d   1      51.925  34.810  53.692  0.00  0.00    -0.273 OA
ATOM      4  C   UNL d   1      52.892  33.510  54.116  0.00  0.00     0.013 A 
ATOM      5  C   UNL d   1      51.726  34.049  53.423  0.00  0.00     0.103 A 
ATOM      6  C   UNL d   1      52.219  33.386  53.639  0.00  0.00     0.023 A 
ATOM      7  O   UNL d   1      52.815  35.692  54.451  0.00  0.00    -0.259 OA
ATOM      8  C   UNL d   1      51.062  33.927  52.953  0.00  0.00     0.023 A 
ATOM      9  C   UNL d   1      52.030  32.627  53.377  0.00  0.00     0.002 A 
ATOM     10  C   UNL d   1      51.344  32.520  52.894  0.00  0.00     0.000 A 
ATOM     11  C   UNL d   1      50.879  33.144  52.690  0.00  0.00     0.002 A 
ENDROOT
BRANCH   1  12
ATOM     12  C   UNL d   1      53.721  34.468  54.846  0.00  0.00     0.305 C 
ATOM     13  O   UNL d   1      53.611  34.822  55.600  0.00  0.00    -0.259 OA
BRANCH  12  14
ATOM     14  O   UNL d   1      54.508  34.312  54.612  0.00  0.00    -0.271 OA
BRANCH  14  15
ATOM     15  C   UNL d   1      55.074  34.046  55.177  0.00  0.00     0.126 C 
ATOM     16  C   UNL d   1      55.835  33.866  54.921  0.00  0.00     0.029 C 
ENDBRANCH  14  15
ENDBRANCH  12  14
ENDBRANCH   1  12
BRANCH   8  17
ATOM     17  C   UNL d   1      50.588  34.564  52.745  0.00  0.00     0.002 C 
BRANCH  17  18
ATOM     18  C   UNL d   1      49.863  34.435  52.347  0.00  0.00     0.000 C 
ATOM     19  C   UNL d   1      49.298  35.030  52.317  0.00  0.00     0.000 C 
ENDBRANCH  17  18
ENDBRANCH   8  17
TORSDOF 5
ENDMDL
MODEL 7
REMARK VINA RESULT:      -5.9      9.189      9.788
REMARK  5 active torsions:
REMARK  status: ('A' for Active; 'I' for Inactive)
REMARK    1  A    between atoms: C_7  and  C_1 
REMARK    2  A    between atoms: O_13  and  C_7 
REMARK    3  A    between atoms: C_15  and  C_9 
REMARK    4  A    between atoms: C_11  and  C_15 
REMARK    5  A    between atoms: C_18  and  O_13 
ROOT
ATOM      1  C   UNL d   1      45.276  27.807  57.270  0.00  0.00     0.127 A 
ATOM      2  C   UNL d   1      45.387  27.859  58.066  0.00  0.00     0.305 A 
ATOM      3  O   UNL d   1      45.278  28.591  58.473  0.00  0.00    -0.273 OA
ATOM      4  C   UNL d   1      45.047  28.483  56.818  0.00  0.00     0.013 A 
ATOM      5  C   UNL d   1      45.052  29.269  58.047  0.00  0.00     0.103 A 
ATOM      6  C   UNL d   1      44.934  29.214  57.203  0.00  0.00     0.023 A 
ATOM      7  O   UNL d   1      45.617  27.166  58.497  0.00  0.00    -0.259 OA
ATOM      8  C   UNL d   1      44.941  29.989  58.428  0.00  0.00     0.023 A 
ATOM      9  C   UNL d   1      44.710  29.881  56.773  0.00  0.00     0.002 A 
ATOM     10  C   UNL d   1      44.600  30.614  57.180  0.00  0.00     0.000 A 
ATOM     11  C   UNL d   1      44.711  30.666  57.976  0.00  0.00     0.002 A 
ENDROOT
BRANCH   1  12
ATOM     12  C   UNL d   1      45.400  27.069  56.942  0.00  0.00     0.305 C 
ATOM     13  O   UNL d   1      46.180  26.773  56.852  0.00  0.00    -0.259 OA
BRANCH  12  14
ATOM     14  O   UNL d   1      44.775  26.577  56.683  0.00  0.00    -0.271 OA
BRANCH  14  15
ATOM     15  C   UNL d   1      44.941  25.888  56.227  0.00  0.00     0.126 C 
ATOM     16  C   UNL d   1      44.316  25.492  55.867  0.00  0.00     0.029 C 
ENDBRANCH  14  15
ENDBRANCH  12  14
ENDBRANCH   1  12
BRANCH   8  17
ATOM     17  C   UNL d   1      45.054  30.042  59.240  0.00  0.00     0.002 C 
BRANCH  17  18
ATOM     18  C   UNL d   1      44.797  30.723  59.655  0.00  0.00     0.000 C 
ATOM     19  C   UNL d   1      44.836  30.743  60.475  0.00  0.00     0.000 C 
ENDBRANCH  17  18
ENDBRANCH   8  17
TORSDOF 5
ENDMDL
