MODEL 1
REMARK VINA RESULT:      86.4      0.000      0.000
REMARK  5 active torsions:
REMARK  status: ('A' for Active; 'I' for Inactive)
REMARK    1  A    between atoms: C_9  and  N_1 
REMARK    2  A    between atoms: C_8  and  C_3 
REMARK       I    between atoms: N_12  and  C_8 
REMARK    3  A    between atoms: C_21  and  C_9 
REMARK    4  A    between atoms: C_20  and  N_12 
REMARK    5  A    between atoms: C_13  and  C_20 
ROOT
ATOM      1  N   UNL d   1     -50.127  27.036  33.546  0.00  0.00    -0.273 N 
ATOM      2  C   UNL d   1     -50.939  27.115  33.593  0.00  0.00     0.177 A 
ATOM      3  C   UNL d   1     -51.267  26.349  33.575  0.00  0.00     0.115 A 
ATOM      4  C   UNL d   1     -49.940  26.239  33.499  0.00  0.00     0.167 A 
ATOM      5  C   UNL d   1     -50.648  25.812  33.517  0.00  0.00     0.123 A 
ATOM      6  N   UNL d   1     -49.215  25.833  33.442  0.00  0.00    -0.225 NA
ATOM      7  N   UNL d   1     -50.631  24.980  33.478  0.00  0.00    -0.241 NA
ATOM      8  C   UNL d   1     -49.202  25.010  33.403  0.00  0.00     0.101 A 
ATOM      9  C   UNL d   1     -49.911  24.584  33.421  0.00  0.00     0.099 A 
ATOM     10  N   UNL d   1     -51.364  27.822  33.649  0.00  0.00    -0.128 N 
ATOM     11  C   UNL d   1     -49.898  23.759  33.382  0.00  0.00     0.021 A 
ATOM     12  C   UNL d   1     -48.482  24.612  33.346  0.00  0.00     0.021 A 
ATOM     13  C   UNL d   1     -49.177  23.361  33.325  0.00  0.00     0.002 A 
ATOM     14  C   UNL d   1     -48.468  23.788  33.307  0.00  0.00     0.002 A 
ENDROOT
BRANCH   3  15
ATOM     15  C   UNL d   1     -52.076  26.162  33.610  0.00  0.00     0.284 C 
ATOM     16  N   UNL d   1     -52.321  25.446  33.934  0.00  0.00    -0.204 NA
ATOM     17  O   UNL d   1     -52.633  26.702  33.315  0.00  0.00    -0.265 OA
BRANCH  16  18
ATOM     18  C   UNL d   1     -53.133  25.266  33.965  0.00  0.00     0.127 C 
BRANCH  18  19
ATOM     19  C   UNL d   1     -53.381  24.476  33.932  0.00  0.00     0.119 A 
ATOM     20  O   UNL d   1     -53.274  23.911  34.527  0.00  0.00    -0.304 OA
ATOM     21  C   UNL d   1     -53.603  23.210  34.259  0.00  0.00     0.123 A 
ATOM     22  C   UNL d   1     -53.914  23.343  33.498  0.00  0.00     0.029 A 
ATOM     23  C   UNL d   1     -53.774  24.121  33.305  0.00  0.00     0.028 A 
ENDBRANCH  18  19
ENDBRANCH  16  18
ENDBRANCH   3  15
BRANCH   1  24
ATOM     24  C   UNL d   1     -49.576  27.668  33.546  0.00  0.00     0.083 C 
BRANCH  24  25
ATOM     25  C   UNL d   1     -49.264  27.946  34.257  0.00  0.00     0.018 A 
ATOM     26  C   UNL d   1     -48.453  27.938  34.382  0.00  0.00     0.002 A 
ATOM     27  C   UNL d   1     -48.140  28.217  35.097  0.00  0.00     0.000 A 
ATOM     28  C   UNL d   1     -48.638  28.503  35.683  0.00  0.00     0.000 A 
ATOM     29  C   UNL d   1     -49.459  28.511  35.556  0.00  0.00     0.000 A 
ATOM     30  C   UNL d   1     -49.771  28.232  34.842  0.00  0.00     0.002 A 
ENDBRANCH  24  25
ENDBRANCH   1  24
TORSDOF 5
ENDMDL
