MODEL 1
REMARK VINA RESULT:       2.7      0.000      0.000
REMARK  3 active torsions:
REMARK  status: ('A' for Active; 'I' for Inactive)
REMARK    1  A    between atoms: C_8  and  C_1 
REMARK    2  A    between atoms: N_7  and  C_8 
REMARK    3  A    between atoms: C_13  and  C_8 
ROOT
ATOM      1  C   UNL d   1     -41.699-122.282 -51.521  0.00  0.00     0.075 C 
ENDROOT
BRANCH   1   2
ATOM      2  N   UNL d   1     -41.886-122.734 -50.861  0.00  0.00    -0.303 N 
ATOM      3  C   UNL d   1     -42.611-122.649 -50.490  0.00  0.00     0.080 A 
ATOM      4  C   UNL d   1     -42.792-123.107 -49.826  0.00  0.00     0.018 A 
ATOM      5  C   UNL d   1     -43.516-123.022 -49.454  0.00  0.00     0.002 C 
ATOM      6  C   UNL d   1     -42.245-123.651 -49.533  0.00  0.00     0.003 A 
ATOM      7  C   UNL d   1     -41.519-123.727 -49.917  0.00  0.00     0.019 A 
ATOM      8  C   UNL d   1     -41.335-123.272 -50.579  0.00  0.00     0.080 A 
ENDBRANCH   1   2
BRANCH   1   9
ATOM      9  C   UNL d   1     -41.707-122.636 -52.267  0.00  0.00     0.106 A 
ATOM     10  C   UNL d   1     -42.308-122.561 -52.837  0.00  0.00     0.290 A 
ATOM     11  N   UNL d   1     -42.092-123.003 -53.496  0.00  0.00    -0.169 N 
ATOM     12  O   UNL d   1     -43.001-122.119 -52.752  0.00  0.00    -0.265 OA
ATOM     13  N   UNL d   1     -42.321-123.231 -54.248  0.00  0.00    -0.138 NA
ATOM     14  C   UNL d   1     -41.360-123.351 -53.338  0.00  0.00     0.200 A 
ATOM     15  C   UNL d   1     -41.737-123.719 -54.561  0.00  0.00     0.222 A 
ATOM     16  N   UNL d   1     -41.142-123.793 -53.998  0.00  0.00    -0.197 NA
ATOM     17  S   UNL d   1     -41.123-123.126 -52.585  0.00  0.00    -0.042 SA
ENDBRANCH   1   9
BRANCH   1  18
ATOM     18  C   UNL d   1     -41.506-121.491 -51.445  0.00  0.00     0.017 A 
ATOM     19  C   UNL d   1     -41.384-121.171 -50.708  0.00  0.00     0.002 A 
ATOM     20  C   UNL d   1     -41.195-120.391 -50.643  0.00  0.00     0.000 A 
ATOM     21  C   UNL d   1     -41.123-119.907 -51.322  0.00  0.00     0.000 A 
ATOM     22  C   UNL d   1     -41.245-120.230 -52.046  0.00  0.00     0.000 A 
ATOM     23  C   UNL d   1     -41.439-121.029 -52.126  0.00  0.00     0.002 A 
ENDBRANCH   1  18
TORSDOF 3
ENDMDL
MODEL 2
REMARK VINA RESULT:       3.2      1.148      3.035
REMARK  3 active torsions:
REMARK  status: ('A' for Active; 'I' for Inactive)
REMARK    1  A    between atoms: C_8  and  C_1 
REMARK    2  A    between atoms: N_7  and  C_8 
REMARK    3  A    between atoms: C_13  and  C_8 
ROOT
ATOM      1  C   UNL d   1     -41.572-122.205 -51.455  0.00  0.00     0.075 C 
ENDROOT
BRANCH   1   2
ATOM      2  N   UNL d   1     -41.531-122.641 -52.151  0.00  0.00    -0.303 N 
ATOM      3  C   UNL d   1     -41.844-122.345 -52.846  0.00  0.00     0.080 A 
ATOM      4  C   UNL d   1     -41.799-122.789 -53.542  0.00  0.00     0.018 A 
ATOM      5  C   UNL d   1     -42.113-122.494 -54.238  0.00  0.00     0.002 C 
ATOM      6  C   UNL d   1     -41.439-123.531 -53.540  0.00  0.00     0.003 A 
ATOM      7  C   UNL d   1     -41.127-123.817 -52.832  0.00  0.00     0.019 A 
ATOM      8  C   UNL d   1     -41.171-123.377 -52.137  0.00  0.00     0.080 A 
ENDBRANCH   1   2
BRANCH   1   9
ATOM      9  C   UNL d   1     -41.760-122.589 -50.749  0.00  0.00     0.106 A 
ATOM     10  C   UNL d   1     -42.510-122.615 -50.391  0.00  0.00     0.290 A 
ATOM     11  N   UNL d   1     -42.448-123.055 -49.698  0.00  0.00    -0.169 N 
ATOM     12  O   UNL d   1     -43.197-122.259 -50.682  0.00  0.00    -0.265 OA
ATOM     13  N   UNL d   1     -42.862-123.343 -49.054  0.00  0.00    -0.138 NA
ATOM     14  C   UNL d   1     -41.664-123.302 -49.626  0.00  0.00     0.200 A 
ATOM     15  C   UNL d   1     -42.342-123.768 -48.579  0.00  0.00     0.222 A 
ATOM     16  N   UNL d   1     -41.600-123.742 -48.933  0.00  0.00    -0.197 NA
ATOM     17  S   UNL d   1     -41.241-123.017 -50.269  0.00  0.00    -0.042 SA
ENDBRANCH   1   9
BRANCH   1  18
ATOM     18  C   UNL d   1     -41.430-121.399 -51.458  0.00  0.00     0.017 A 
ATOM     19  C   UNL d   1     -41.262-121.014 -50.762  0.00  0.00     0.002 A 
ATOM     20  C   UNL d   1     -41.123-120.221 -50.774  0.00  0.00     0.000 A 
ATOM     21  C   UNL d   1     -41.149-119.789 -51.491  0.00  0.00     0.000 A 
ATOM     22  C   UNL d   1     -41.316-120.178 -52.174  0.00  0.00     0.000 A 
ATOM     23  C   UNL d   1     -41.460-120.991 -52.174  0.00  0.00     0.002 A 
ENDBRANCH   1  18
TORSDOF 3
ENDMDL
