MODEL 1
REMARK VINA RESULT:      -5.0      0.000      0.000
REMARK  4 active torsions:
REMARK  status: ('A' for Active; 'I' for Inactive)
REMARK    1  A    between atoms: C_2  and  C_1 
REMARK    2  A    between atoms: C_15  and  C_8 
REMARK    3  A    between atoms: C_9  and  C_15 
REMARK    4  A    between atoms: C_18  and  C_10 
ROOT
ATOM      1  C   UNL d   1      59.050  -1.058  28.935  0.00  0.00     0.094 A 
ATOM      2  N   UNL d   1      59.196  -0.617  29.617  0.00  0.00    -0.238 NA
ATOM      3  C   UNL d   1      58.740   0.075  29.547  0.00  0.00     0.113 A 
ATOM      4  S   UNL d   1      58.315   0.058  28.822  0.00  0.00    -0.066 SA
ATOM      5  C   UNL d   1      58.518  -0.650  28.455  0.00  0.00     0.056 A 
ENDROOT
BRANCH   3   6
ATOM      6  C   UNL d   1      58.706   0.678  30.091  0.00  0.00     0.051 C 
BRANCH   6   7
ATOM      7  C   UNL d   1      58.344   0.570  30.813  0.00  0.00     0.113 A 
ATOM      8  N   UNL d   1      57.566   0.350  31.014  0.00  0.00    -0.238 NA
ATOM      9  C   UNL d   1      57.512   0.327  31.849  0.00  0.00     0.088 A 
ATOM     10  C   UNL d   1      58.257   0.533  32.135  0.00  0.00     0.056 A 
ATOM     11  S   UNL d   1      58.763   0.681  31.522  0.00  0.00    -0.066 SA
BRANCH   9  12
ATOM     12  C   UNL d   1      56.842   0.135  32.275  0.00  0.00     0.018 A 
ATOM     13  C   UNL d   1      56.268   0.679  32.423  0.00  0.00     0.002 A 
ATOM     14  C   UNL d   1      55.596   0.481  32.852  0.00  0.00     0.000 A 
ATOM     15  C   UNL d   1      55.513  -0.282  33.131  0.00  0.00     0.000 A 
ATOM     16  C   UNL d   1      56.089  -0.835  32.984  0.00  0.00     0.000 A 
ATOM     17  C   UNL d   1      54.825  -0.479  33.568  0.00  0.00     0.000 C 
ATOM     18  C   UNL d   1      56.751  -0.630  32.559  0.00  0.00     0.002 A 
ENDBRANCH   9  12
ENDBRANCH   6   7
ENDBRANCH   3   6
BRANCH   1  19
ATOM     19  C   UNL d   1      59.433  -1.794  28.839  0.00  0.00     0.082 A 
ATOM     20  C   UNL d   1      60.306  -1.848  28.803  0.00  0.00     0.302 A 
ATOM     21  O   UNL d   1      60.666  -2.586  28.709  0.00  0.00    -0.273 OA
ATOM     22  O   UNL d   1      60.814  -1.155  28.863  0.00  0.00    -0.259 OA
ATOM     23  C   UNL d   1      60.201  -3.282  28.647  0.00  0.00     0.103 A 
ATOM     24  C   UNL d   1      59.378  -3.232  28.681  0.00  0.00     0.023 A 
ATOM     25  C   UNL d   1      60.597  -4.001  28.553  0.00  0.00     0.025 A 
ATOM     26  C   UNL d   1      58.993  -2.492  28.777  0.00  0.00     0.009 A 
ATOM     27  C   UNL d   1      58.918  -3.928  28.620  0.00  0.00     0.002 A 
ATOM     28  C   UNL d   1      59.279  -4.666  28.525  0.00  0.00     0.000 A 
ATOM     29  C   UNL d   1      60.135  -4.694  28.492  0.00  0.00     0.002 A 
ENDBRANCH   1  19
TORSDOF 4
ENDMDL
MODEL 2
REMARK VINA RESULT:      -3.1      1.974      5.984
REMARK  4 active torsions:
REMARK  status: ('A' for Active; 'I' for Inactive)
REMARK    1  A    between atoms: C_2  and  C_1 
REMARK    2  A    between atoms: C_15  and  C_8 
REMARK    3  A    between atoms: C_9  and  C_15 
REMARK    4  A    between atoms: C_18  and  C_10 
ROOT
ATOM      1  C   UNL d   1      56.810  -0.018  32.176  0.00  0.00     0.094 A 
ATOM      2  N   UNL d   1      57.203   0.585  31.773  0.00  0.00    -0.238 NA
ATOM      3  C   UNL d   1      57.508   0.241  31.080  0.00  0.00     0.113 A 
ATOM      4  S   UNL d   1      57.303  -0.574  31.059  0.00  0.00    -0.066 SA
ATOM      5  C   UNL d   1      56.870  -0.718  31.744  0.00  0.00     0.056 A 
ENDROOT
BRANCH   3   6
ATOM      6  C   UNL d   1      57.939   0.626  30.510  0.00  0.00     0.051 C 
BRANCH   6   7
ATOM      7  C   UNL d   1      58.354   0.208  29.946  0.00  0.00     0.113 A 
ATOM      8  N   UNL d   1      58.822  -0.479  30.000  0.00  0.00    -0.238 NA
ATOM      9  C   UNL d   1      59.113  -0.654  29.235  0.00  0.00     0.088 A 
ATOM     10  C   UNL d   1      58.816  -0.070  28.735  0.00  0.00     0.056 A 
ATOM     11  S   UNL d   1      58.360   0.452  29.152  0.00  0.00    -0.066 SA
BRANCH   9  12
ATOM     12  C   UNL d   1      59.595  -1.286  29.045  0.00  0.00     0.018 A 
ATOM     13  C   UNL d   1      59.298  -1.956  28.712  0.00  0.00     0.002 A 
ATOM     14  C   UNL d   1      59.787  -2.588  28.523  0.00  0.00     0.000 A 
ATOM     15  C   UNL d   1      60.587  -2.531  28.677  0.00  0.00     0.000 A 
ATOM     16  C   UNL d   1      60.891  -1.858  29.012  0.00  0.00     0.000 A 
ATOM     17  C   UNL d   1      61.082  -3.180  28.481  0.00  0.00     0.000 C 
ATOM     18  C   UNL d   1      60.400  -1.236  29.196  0.00  0.00     0.002 A 
ENDBRANCH   9  12
ENDBRANCH   6   7
ENDBRANCH   3   6
BRANCH   1  19
ATOM     19  C   UNL d   1      56.439   0.156  32.904  0.00  0.00     0.082 A 
ATOM     20  C   UNL d   1      56.909   0.338  33.619  0.00  0.00     0.302 A 
ATOM     21  O   UNL d   1      56.523   0.508  34.329  0.00  0.00    -0.273 OA
ATOM     22  O   UNL d   1      57.770   0.349  33.614  0.00  0.00    -0.259 OA
ATOM     23  C   UNL d   1      55.685   0.506  34.369  0.00  0.00     0.103 A 
ATOM     24  C   UNL d   1      55.241   0.334  33.696  0.00  0.00     0.023 A 
ATOM     25  C   UNL d   1      55.335   0.681  35.098  0.00  0.00     0.025 A 
ATOM     26  C   UNL d   1      55.613   0.159  32.964  0.00  0.00     0.009 A 
ATOM     27  C   UNL d   1      54.405   0.333  33.740  0.00  0.00     0.002 A 
ATOM     28  C   UNL d   1      54.020   0.503  34.452  0.00  0.00     0.000 A 
ATOM     29  C   UNL d   1      54.502   0.679  35.138  0.00  0.00     0.002 A 
ENDBRANCH   1  19
TORSDOF 4
ENDMDL
