MODEL 1
REMARK VINA RESULT:      57.1      0.000      0.000
REMARK  8 active torsions:
REMARK  status: ('A' for Active; 'I' for Inactive)
REMARK    1  A    between atoms: C_9  and  N_1 
REMARK    2  A    between atoms: C_7  and  C_2 
REMARK    3  A    between atoms: C_6  and  C_4 
REMARK    4  A    between atoms: C_8  and  C_12 
REMARK       I    between atoms: N_25  and  C_8 
REMARK    5  A    between atoms: N_11  and  C_26 
REMARK    6  A    between atoms: C_30  and  N_25 
REMARK    7  A    between atoms: C_26  and  C_27 
REMARK    8  A    between atoms: C_27  and  C_30 
ROOT
ATOM      1  C   UNL d   1      13.750  14.250  -4.062  0.00  0.00     0.083 A 
ATOM      2  C   UNL d   1      13.561  15.493  -5.130  0.00  0.00     0.058 A 
ATOM      3  C   UNL d   1      13.443  14.968  -3.800  0.00  0.00     0.019 A 
ATOM      4  C   UNL d   1      13.964  14.148  -4.852  0.00  0.00     0.019 A 
ATOM      5  C   UNL d   1      13.871  14.764  -5.385  0.00  0.00     0.006 A 
ATOM      6  C   UNL d   1      13.349  15.584  -4.328  0.00  0.00     0.006 A 
ENDROOT
BRANCH   1   7
ATOM      7  N   UNL d   1      13.847  13.622  -3.530  0.00  0.00    -0.229 N 
ATOM      8  C   UNL d   1      13.703  12.826  -3.682  0.00  0.00     0.090 A 
ATOM      9  C   UNL d   1      13.873  12.398  -2.997  0.00  0.00     0.044 A 
ATOM     10  C   UNL d   1      14.124  12.941  -2.425  0.00  0.00     0.174 A 
ATOM     11  N   UNL d   1      14.105  13.688  -2.762  0.00  0.00    -0.161 NA
BRANCH   8  12
ATOM     12  C   UNL d   1      13.437  12.428  -4.354  0.00  0.00     0.047 A 
ATOM     13  S   UNL d   1      12.769  12.093  -4.725  0.00  0.00    -0.085 SA
ATOM     14  C   UNL d   1      13.009  11.779  -5.455  0.00  0.00     0.035 A 
ATOM     15  C   UNL d   1      13.814  11.920  -5.530  0.00  0.00     0.007 A 
ATOM     16  C   UNL d   1      14.082  12.313  -4.868  0.00  0.00     0.009 A 
ENDBRANCH   8  12
BRANCH  10  17
ATOM     17  C   UNL d   1      14.354  12.759  -1.651  0.00  0.00     0.437 C 
ATOM     18  F   UNL d   1      14.059  12.139  -1.122  0.00  0.00    -0.164 F 
ATOM     19  F   UNL d   1      14.953  13.137  -1.151  0.00  0.00    -0.164 F 
ATOM     20  F   UNL d   1      14.564  12.593  -0.943  0.00  0.00    -0.164 F 
ENDBRANCH  10  17
ENDBRANCH   1   7
BRANCH   2  21
ATOM     21  C   UNL d   1      13.467  16.117  -5.664  0.00  0.00     0.279 C 
ATOM     22  O   UNL d   1      12.943  16.040  -6.292  0.00  0.00    -0.265 OA
ATOM     23  N   UNL d   1      13.899  16.811  -5.562  0.00  0.00    -0.206 NA
BRANCH  23  24
ATOM     24  C   UNL d   1      13.804  17.430  -6.094  0.00  0.00     0.104 C 
BRANCH  24  25
ATOM     25  C   UNL d   1      14.125  18.176  -5.926  0.00  0.00     0.040 C 
BRANCH  25  26
ATOM     26  C   UNL d   1      13.750  18.858  -6.181  0.00  0.00     0.082 C 
BRANCH  26  27
ATOM     27  N   UNL d   1      14.042  19.604  -5.976  0.00  0.00    -0.299 N 
ATOM     28  C   UNL d   1      14.819  19.809  -6.172  0.00  0.00     0.107 A 
ATOM     29  C   UNL d   1      15.099  20.555  -5.962  0.00  0.00     0.142 A 
ATOM     30  O   UNL d   1      14.616  21.086  -5.565  0.00  0.00    -0.300 OA
ATOM     31  C   UNL d   1      13.844  20.876  -5.373  0.00  0.00     0.142 A 
ATOM     32  C   UNL d   1      13.549  20.127  -5.578  0.00  0.00     0.107 A 
ENDBRANCH  26  27
ENDBRANCH  25  26
ENDBRANCH  24  25
ENDBRANCH  23  24
ENDBRANCH   2  21
TORSDOF 8
ENDMDL
MODEL 2
REMARK VINA RESULT:      58.4      3.264      6.344
REMARK  8 active torsions:
REMARK  status: ('A' for Active; 'I' for Inactive)
REMARK    1  A    between atoms: C_9  and  N_1 
REMARK    2  A    between atoms: C_7  and  C_2 
REMARK    3  A    between atoms: C_6  and  C_4 
REMARK    4  A    between atoms: C_8  and  C_12 
REMARK       I    between atoms: N_25  and  C_8 
REMARK    5  A    between atoms: N_11  and  C_26 
REMARK    6  A    between atoms: C_30  and  N_25 
REMARK    7  A    between atoms: C_26  and  C_27 
REMARK    8  A    between atoms: C_27  and  C_30 
ROOT
ATOM      1  C   UNL d   1      13.932  15.770  -4.412  0.00  0.00     0.083 A 
ATOM      2  C   UNL d   1      13.400  14.211  -4.315  0.00  0.00     0.058 A 
ATOM      3  C   UNL d   1      13.126  15.612  -4.467  0.00  0.00     0.019 A 
ATOM      4  C   UNL d   1      14.475  15.157  -4.309  0.00  0.00     0.019 A 
ATOM      5  C   UNL d   1      14.214  14.381  -4.261  0.00  0.00     0.006 A 
ATOM      6  C   UNL d   1      12.862  14.840  -4.419  0.00  0.00     0.006 A 
ENDROOT
BRANCH   1   7
ATOM      7  N   UNL d   1      14.205  16.551  -4.459  0.00  0.00    -0.229 N 
ATOM      8  C   UNL d   1      14.596  16.970  -3.868  0.00  0.00     0.090 A 
ATOM      9  C   UNL d   1      14.764  17.724  -4.156  0.00  0.00     0.044 A 
ATOM     10  C   UNL d   1      14.473  17.763  -4.929  0.00  0.00     0.174 A 
ATOM     11  N   UNL d   1      14.133  17.039  -5.105  0.00  0.00    -0.161 NA
BRANCH   8  12
ATOM     12  C   UNL d   1      14.822  16.766  -3.102  0.00  0.00     0.047 A 
ATOM     13  S   UNL d   1      14.842  16.150  -2.540  0.00  0.00    -0.085 SA
ATOM     14  C   UNL d   1      15.195  16.441  -1.848  0.00  0.00     0.035 A 
ATOM     15  C   UNL d   1      15.391  17.227  -1.983  0.00  0.00     0.007 A 
ATOM     16  C   UNL d   1      15.168  17.432  -2.740  0.00  0.00     0.009 A 
ENDBRANCH   8  12
BRANCH  10  17
ATOM     17  C   UNL d   1      14.519  18.419  -5.433  0.00  0.00     0.437 C 
ATOM     18  F   UNL d   1      14.347  18.472  -6.280  0.00  0.00    -0.164 F 
ATOM     19  F   UNL d   1      14.752  19.235  -5.256  0.00  0.00    -0.164 F 
ATOM     20  F   UNL d   1      14.561  19.017  -5.894  0.00  0.00    -0.164 F 
ENDBRANCH  10  17
ENDBRANCH   1   7
BRANCH   2  21
ATOM     21  C   UNL d   1      13.134  13.431  -4.267  0.00  0.00     0.279 C 
ATOM     22  O   UNL d   1      12.770  13.083  -4.916  0.00  0.00    -0.265 OA
ATOM     23  N   UNL d   1      13.235  13.008  -3.567  0.00  0.00    -0.206 NA
BRANCH  23  24
ATOM     24  C   UNL d   1      12.969  12.231  -3.520  0.00  0.00     0.104 C 
BRANCH  24  25
ATOM     25  C   UNL d   1      13.111  11.783  -2.837  0.00  0.00     0.040 C 
BRANCH  25  26
ATOM     26  C   UNL d   1      13.849  11.783  -2.484  0.00  0.00     0.082 C 
BRANCH  26  27
ATOM     27  N   UNL d   1      13.926  11.814  -1.661  0.00  0.00    -0.299 N 
ATOM     28  C   UNL d   1      13.251  11.779  -1.184  0.00  0.00     0.107 A 
ATOM     29  C   UNL d   1      13.338  11.811  -0.366  0.00  0.00     0.142 A 
ATOM     30  O   UNL d   1      14.084  11.877  -0.028  0.00  0.00    -0.300 OA
ATOM     31  C   UNL d   1      14.751  11.911  -0.508  0.00  0.00     0.142 A 
ATOM     32  C   UNL d   1      14.676  11.880  -1.335  0.00  0.00     0.107 A 
ENDBRANCH  26  27
ENDBRANCH  25  26
ENDBRANCH  24  25
ENDBRANCH  23  24
ENDBRANCH   2  21
TORSDOF 8
ENDMDL
