MODEL 1
REMARK VINA RESULT:      -7.5      0.000      0.000
REMARK  3 active torsions:
REMARK  status: ('A' for Active; 'I' for Inactive)
REMARK       I    between atoms: N_4  and  C_1 
REMARK    1  A    between atoms: O_11  and  C_3 
REMARK    2  A    between atoms: C_6  and  N_4 
REMARK    3  A    between atoms: O_12  and  C_7 
ROOT
ATOM      1  C   UNL d   1      53.425  32.970  53.360  0.00  0.00     0.046 A 
ATOM      2  C   UNL d   1      52.906  32.433  53.012  0.00  0.00     0.118 A 
ATOM      3  C   UNL d   1      54.088  32.698  53.775  0.00  0.00     0.102 A 
ATOM      4  C   UNL d   1      53.047  31.622  53.079  0.00  0.00     0.116 A 
ATOM      5  C   UNL d   1      53.710  31.349  53.494  0.00  0.00     0.028 A 
ATOM      6  C   UNL d   1      54.227  31.891  53.841  0.00  0.00     0.022 A 
ENDROOT
BRANCH   3   7
ATOM      7  N   UNL d   1      54.608  33.237  54.124  0.00  0.00    -0.056 NA
ATOM      8  C   UNL d   1      54.653  33.306  54.937  0.00  0.00     0.787 C 
ATOM      9  N   UNL d   1      55.168  33.839  55.282  0.00  0.00     0.064 N 
ATOM     10  N   UNL d   1      54.171  32.828  55.412  0.00  0.00     0.064 N 
ENDBRANCH   3   7
BRANCH   2  11
ATOM     11  O   UNL d   1      52.251  32.703  52.600  0.00  0.00    -0.326 OA
ATOM     12  C   UNL d   1      52.014  33.486  52.674  0.00  0.00     0.181 C 
ENDBRANCH   2  11
BRANCH   4  13
ATOM     13  O   UNL d   1      52.533  31.088  52.734  0.00  0.00    -0.326 OA
ATOM     14  C   UNL d   1      52.639  30.279  52.850  0.00  0.00     0.181 C 
ENDBRANCH   4  13
TORSDOF 3
ENDMDL
MODEL 2
REMARK VINA RESULT:      -6.9      1.898      2.550
REMARK  3 active torsions:
REMARK  status: ('A' for Active; 'I' for Inactive)
REMARK       I    between atoms: N_4  and  C_1 
REMARK    1  A    between atoms: O_11  and  C_3 
REMARK    2  A    between atoms: C_6  and  N_4 
REMARK    3  A    between atoms: O_12  and  C_7 
ROOT
ATOM      1  C   UNL d   1      53.144  32.998  53.791  0.00  0.00     0.046 A 
ATOM      2  C   UNL d   1      53.517  32.301  54.022  0.00  0.00     0.118 A 
ATOM      3  C   UNL d   1      52.607  32.994  53.161  0.00  0.00     0.102 A 
ATOM      4  C   UNL d   1      53.354  31.596  53.623  0.00  0.00     0.116 A 
ATOM      5  C   UNL d   1      52.817  31.591  52.993  0.00  0.00     0.028 A 
ATOM      6  C   UNL d   1      52.446  32.292  52.765  0.00  0.00     0.022 A 
ENDROOT
BRANCH   3   7
ATOM      7  N   UNL d   1      52.233  33.694  52.930  0.00  0.00    -0.056 NA
ATOM      8  C   UNL d   1      51.436  33.806  53.072  0.00  0.00     0.787 C 
ATOM      9  N   UNL d   1      51.066  34.499  52.844  0.00  0.00     0.064 N 
ATOM     10  N   UNL d   1      51.003  33.210  53.449  0.00  0.00     0.064 N 
ENDBRANCH   3   7
BRANCH   2  11
ATOM     11  O   UNL d   1      54.049  32.306  54.646  0.00  0.00    -0.326 OA
ATOM     12  C   UNL d   1      54.281  33.019  54.981  0.00  0.00     0.181 C 
ENDBRANCH   2  11
BRANCH   4  13
ATOM     13  O   UNL d   1      53.724  30.903  53.851  0.00  0.00    -0.326 OA
ATOM     14  C   UNL d   1      53.482  30.183  53.531  0.00  0.00     0.181 C 
ENDBRANCH   4  13
TORSDOF 3
ENDMDL
MODEL 3
REMARK VINA RESULT:      -6.9      2.052      3.131
REMARK  3 active torsions:
REMARK  status: ('A' for Active; 'I' for Inactive)
REMARK       I    between atoms: N_4  and  C_1 
REMARK    1  A    between atoms: O_11  and  C_3 
REMARK    2  A    between atoms: C_6  and  N_4 
REMARK    3  A    between atoms: O_12  and  C_7 
ROOT
ATOM      1  C   UNL d   1      52.845  32.743  53.624  0.00  0.00     0.046 A 
ATOM      2  C   UNL d   1      53.599  32.616  53.927  0.00  0.00     0.118 A 
ATOM      3  C   UNL d   1      52.437  33.441  53.803  0.00  0.00     0.102 A 
ATOM      4  C   UNL d   1      53.950  33.186  54.412  0.00  0.00     0.116 A 
ATOM      5  C   UNL d   1      53.543  33.884  54.591  0.00  0.00     0.028 A 
ATOM      6  C   UNL d   1      52.787  34.008  54.285  0.00  0.00     0.022 A 
ENDROOT
BRANCH   3   7
ATOM      7  N   UNL d   1      51.679  33.568  53.498  0.00  0.00    -0.056 NA
ATOM      8  C   UNL d   1      51.556  34.116  52.904  0.00  0.00     0.787 C 
ATOM      9  N   UNL d   1      50.807  34.242  52.602  0.00  0.00     0.064 N 
ATOM     10  N   UNL d   1      52.200  34.545  52.608  0.00  0.00     0.064 N 
ENDBRANCH   3   7
BRANCH   2  11
ATOM     11  O   UNL d   1      54.003  31.924  53.749  0.00  0.00    -0.326 OA
ATOM     12  C   UNL d   1      53.588  31.258  53.506  0.00  0.00     0.181 C 
ENDBRANCH   2  11
BRANCH   4  13
ATOM     13  O   UNL d   1      54.700  33.061  54.714  0.00  0.00    -0.326 OA
ATOM     14  C   UNL d   1      55.069  33.649  55.157  0.00  0.00     0.181 C 
ENDBRANCH   4  13
TORSDOF 3
ENDMDL
MODEL 4
REMARK VINA RESULT:      -6.9      1.902      2.798
REMARK  3 active torsions:
REMARK  status: ('A' for Active; 'I' for Inactive)
REMARK       I    between atoms: N_4  and  C_1 
REMARK    1  A    between atoms: O_11  and  C_3 
REMARK    2  A    between atoms: C_6  and  N_4 
REMARK    3  A    between atoms: O_12  and  C_7 
ROOT
ATOM      1  C   UNL d   1      52.838  32.690  53.471  0.00  0.00     0.046 A 
ATOM      2  C   UNL d   1      53.121  33.294  53.954  0.00  0.00     0.118 A 
ATOM      3  C   UNL d   1      53.328  32.054  53.272  0.00  0.00     0.102 A 
ATOM      4  C   UNL d   1      53.896  33.264  54.240  0.00  0.00     0.116 A 
ATOM      5  C   UNL d   1      54.386  32.627  54.041  0.00  0.00     0.028 A 
ATOM      6  C   UNL d   1      54.098  32.024  53.557  0.00  0.00     0.022 A 
ENDROOT
BRANCH   3   7
ATOM      7  N   UNL d   1      53.043  31.447  52.787  0.00  0.00    -0.056 NA
ATOM      8  C   UNL d   1      52.983  30.683  53.069  0.00  0.00     0.787 C 
ATOM      9  N   UNL d   1      52.701  30.083  52.590  0.00  0.00     0.064 N 
ATOM     10  N   UNL d   1      53.211  30.518  53.848  0.00  0.00     0.064 N 
ENDBRANCH   3   7
BRANCH   2  11
ATOM     11  O   UNL d   1      52.635  33.925  54.151  0.00  0.00    -0.326 OA
ATOM     12  C   UNL d   1      52.003  34.123  53.666  0.00  0.00     0.181 C 
ENDBRANCH   2  11
BRANCH   4  13
ATOM     13  O   UNL d   1      54.178  33.863  54.719  0.00  0.00    -0.326 OA
ATOM     14  C   UNL d   1      54.895  33.771  55.115  0.00  0.00     0.181 C 
ENDBRANCH   4  13
TORSDOF 3
ENDMDL
MODEL 5
REMARK VINA RESULT:      -6.5      2.566      3.398
REMARK  3 active torsions:
REMARK  status: ('A' for Active; 'I' for Inactive)
REMARK       I    between atoms: N_4  and  C_1 
REMARK    1  A    between atoms: O_11  and  C_3 
REMARK    2  A    between atoms: C_6  and  N_4 
REMARK    3  A    between atoms: O_12  and  C_7 
ROOT
ATOM      1  C   UNL d   1      52.517  34.697  53.690  0.00  0.00     0.046 A 
ATOM      2  C   UNL d   1      53.063  34.508  54.277  0.00  0.00     0.118 A 
ATOM      3  C   UNL d   1      52.249  34.113  53.168  0.00  0.00     0.102 A 
ATOM      4  C   UNL d   1      53.343  33.734  54.345  0.00  0.00     0.116 A 
ATOM      5  C   UNL d   1      53.075  33.150  53.823  0.00  0.00     0.028 A 
ATOM      6  C   UNL d   1      52.528  33.343  53.236  0.00  0.00     0.022 A 
ENDROOT
BRANCH   3   7
ATOM      7  N   UNL d   1      51.701  34.304  52.579  0.00  0.00    -0.056 NA
ATOM      8  C   UNL d   1      50.922  34.063  52.642  0.00  0.00     0.787 C 
ATOM      9  N   UNL d   1      50.380  34.252  52.060  0.00  0.00     0.064 N 
ATOM     10  N   UNL d   1      50.685  33.624  53.303  0.00  0.00     0.064 N 
ENDBRANCH   3   7
BRANCH   2  11
ATOM     11  O   UNL d   1      53.329  35.087  54.793  0.00  0.00    -0.326 OA
ATOM     12  C   UNL d   1      53.123  35.873  54.670  0.00  0.00     0.181 C 
ENDBRANCH   2  11
BRANCH   4  13
ATOM     13  O   UNL d   1      53.886  33.545  54.927  0.00  0.00    -0.326 OA
ATOM     14  C   UNL d   1      54.139  32.766  55.017  0.00  0.00     0.181 C 
ENDBRANCH   4  13
TORSDOF 3
ENDMDL
