MODEL 1
REMARK VINA RESULT:      -8.4      0.000      0.000
REMARK  4 active torsions:
REMARK  status: ('A' for Active; 'I' for Inactive)
REMARK    1  A    between atoms: C_5  and  C_1 
REMARK       I    between atoms: N_8  and  C_5 
REMARK    2  A    between atoms: C_10  and  N_8 
REMARK    3  A    between atoms: C_13  and  C_10 
REMARK    4  A    between atoms: C_11  and  C_13 
ROOT
ATOM      1  C   UNL d   1      52.450  34.628  53.373  0.00  0.00     0.299 C 
ATOM      2  O   UNL d   1      52.724  34.878  52.643  0.00  0.00    -0.263 OA
ATOM      3  N   UNL d   1      51.654  34.429  53.471  0.00  0.00    -0.205 NA
ENDROOT
BRANCH   1   4
ATOM      4  C   UNL d   1      52.969  34.574  54.014  0.00  0.00     0.162 A 
ATOM      5  N   UNL d   1      53.041  35.124  54.616  0.00  0.00    -0.143 NA
ATOM      6  N   UNL d   1      53.624  34.857  55.145  0.00  0.00    -0.148 NA
ATOM      7  C   UNL d   1      53.906  34.130  54.851  0.00  0.00     0.105 A 
ATOM      8  C   UNL d   1      53.499  33.959  54.153  0.00  0.00     0.044 A 
ATOM      9  C   UNL d   1      54.472  33.618  55.135  0.00  0.00     0.021 A 
ATOM     10  C   UNL d   1      53.672  33.266  53.747  0.00  0.00     0.003 A 
ATOM     11  C   UNL d   1      54.235  32.757  54.028  0.00  0.00     0.000 A 
ATOM     12  C   UNL d   1      54.636  32.929  54.719  0.00  0.00     0.002 A 
ENDBRANCH   1   4
BRANCH   3  13
ATOM     13  C   UNL d   1      51.135  34.483  52.830  0.00  0.00     0.102 C 
BRANCH  13  14
ATOM     14  C   UNL d   1      50.363  34.191  52.907  0.00  0.00     0.021 C 
BRANCH  14  15
ATOM     15  C   UNL d   1      49.782  34.446  52.371  0.00  0.00     0.002 A 
ATOM     16  C   UNL d   1      49.185  34.957  52.639  0.00  0.00     0.000 A 
ATOM     17  C   UNL d   1      48.605  35.212  52.103  0.00  0.00     0.000 A 
ATOM     18  C   UNL d   1      48.622  34.964  51.322  0.00  0.00     0.000 A 
ATOM     19  C   UNL d   1      49.219  34.459  51.070  0.00  0.00     0.000 A 
ATOM     20  C   UNL d   1      49.793  34.201  51.581  0.00  0.00     0.000 A 
ENDBRANCH  14  15
ENDBRANCH  13  14
ENDBRANCH   3  13
TORSDOF 4
ENDMDL
MODEL 2
REMARK VINA RESULT:      -8.0      2.386      4.260
REMARK  4 active torsions:
REMARK  status: ('A' for Active; 'I' for Inactive)
REMARK    1  A    between atoms: C_5  and  C_1 
REMARK       I    between atoms: N_8  and  C_5 
REMARK    2  A    between atoms: C_10  and  N_8 
REMARK    3  A    between atoms: C_13  and  C_10 
REMARK    4  A    between atoms: C_11  and  C_13 
ROOT
ATOM      1  C   UNL d   1      52.045  32.894  53.135  0.00  0.00     0.299 C 
ATOM      2  O   UNL d   1      51.303  32.653  53.383  0.00  0.00    -0.263 OA
ATOM      3  N   UNL d   1      52.604  32.334  52.896  0.00  0.00    -0.205 NA
ENDROOT
BRANCH   1   4
ATOM      4  C   UNL d   1      52.237  33.698  53.122  0.00  0.00     0.162 A 
ATOM      5  N   UNL d   1      52.086  34.214  52.504  0.00  0.00    -0.143 NA
ATOM      6  N   UNL d   1      52.367  34.966  52.718  0.00  0.00    -0.148 NA
ATOM      7  C   UNL d   1      52.692  34.897  53.482  0.00  0.00     0.105 A 
ATOM      8  C   UNL d   1      52.610  34.113  53.728  0.00  0.00     0.044 A 
ATOM      9  C   UNL d   1      53.045  35.447  53.969  0.00  0.00     0.021 A 
ATOM     10  C   UNL d   1      52.888  33.892  54.468  0.00  0.00     0.003 A 
ATOM     11  C   UNL d   1      53.239  34.439  54.953  0.00  0.00     0.000 A 
ATOM     12  C   UNL d   1      53.319  35.214  54.707  0.00  0.00     0.002 A 
ENDBRANCH   1   4
BRANCH   3  13
ATOM     13  C   UNL d   1      52.413  31.530  52.909  0.00  0.00     0.102 C 
BRANCH  13  14
ATOM     14  C   UNL d   1      53.002  30.970  52.747  0.00  0.00     0.021 C 
BRANCH  14  15
ATOM     15  C   UNL d   1      53.062  30.300  53.234  0.00  0.00     0.002 A 
ATOM     16  C   UNL d   1      53.701  30.242  53.760  0.00  0.00     0.000 A 
ATOM     17  C   UNL d   1      53.762  29.572  54.247  0.00  0.00     0.000 A 
ATOM     18  C   UNL d   1      53.200  28.978  54.208  0.00  0.00     0.000 A 
ATOM     19  C   UNL d   1      52.572  29.047  53.682  0.00  0.00     0.000 A 
ATOM     20  C   UNL d   1      52.498  29.695  53.200  0.00  0.00     0.000 A 
ENDBRANCH  14  15
ENDBRANCH  13  14
ENDBRANCH   3  13
TORSDOF 4
ENDMDL
MODEL 3
REMARK VINA RESULT:      -7.4      1.907      2.255
REMARK  4 active torsions:
REMARK  status: ('A' for Active; 'I' for Inactive)
REMARK    1  A    between atoms: C_5  and  C_1 
REMARK       I    between atoms: N_8  and  C_5 
REMARK    2  A    between atoms: C_10  and  N_8 
REMARK    3  A    between atoms: C_13  and  C_10 
REMARK    4  A    between atoms: C_11  and  C_13 
ROOT
ATOM      1  C   UNL d   1      52.587  32.703  52.883  0.00  0.00     0.299 C 
ATOM      2  O   UNL d   1      52.754  32.781  52.085  0.00  0.00    -0.263 OA
ATOM      3  N   UNL d   1      51.962  33.126  53.218  0.00  0.00    -0.205 NA
ENDROOT
BRANCH   1   4
ATOM      4  C   UNL d   1      53.044  32.201  53.354  0.00  0.00     0.162 A 
ATOM      5  N   UNL d   1      53.592  32.440  53.913  0.00  0.00    -0.143 NA
ATOM      6  N   UNL d   1      53.925  31.761  54.259  0.00  0.00    -0.148 NA
ATOM      7  C   UNL d   1      53.566  31.102  53.898  0.00  0.00     0.105 A 
ATOM      8  C   UNL d   1      53.023  31.377  53.340  0.00  0.00     0.044 A 
ATOM      9  C   UNL d   1      53.671  30.302  54.012  0.00  0.00     0.021 A 
ATOM     10  C   UNL d   1      52.588  30.836  52.901  0.00  0.00     0.003 A 
ATOM     11  C   UNL d   1      52.692  30.040  53.014  0.00  0.00     0.000 A 
ATOM     12  C   UNL d   1      53.231  29.771  53.567  0.00  0.00     0.002 A 
ENDBRANCH   1   4
BRANCH   3  13
ATOM     13  C   UNL d   1      51.505  33.628  52.747  0.00  0.00     0.102 C 
BRANCH  13  14
ATOM     14  C   UNL d   1      51.015  34.191  53.109  0.00  0.00     0.021 C 
BRANCH  14  15
ATOM     15  C   UNL d   1      50.322  34.428  52.720  0.00  0.00     0.002 A 
ATOM     16  C   UNL d   1      49.739  34.835  53.150  0.00  0.00     0.000 A 
ATOM     17  C   UNL d   1      49.045  35.072  52.761  0.00  0.00     0.000 A 
ATOM     18  C   UNL d   1      48.937  34.908  51.966  0.00  0.00     0.000 A 
ATOM     19  C   UNL d   1      49.522  34.505  51.552  0.00  0.00     0.000 A 
ATOM     20  C   UNL d   1      50.205  34.266  51.917  0.00  0.00     0.000 A 
ENDBRANCH  14  15
ENDBRANCH  13  14
ENDBRANCH   3  13
TORSDOF 4
ENDMDL
