MODEL 1
REMARK VINA RESULT:      -8.7      0.000      0.000
REMARK  2 active torsions:
REMARK  status: ('A' for Active; 'I' for Inactive)
REMARK    1  A    between atoms: C_9  and  C_3 
REMARK    2  A    between atoms: C_8  and  C_4 
ROOT
ATOM      1  N   UNL d   1     -47.918  14.332  22.759  0.00  0.00    -0.242 NA
ATOM      2  N   UNL d   1     -48.102  12.694  22.767  0.00  0.00    -0.242 NA
ATOM      3  C   UNL d   1     -48.670  14.001  22.823  0.00  0.00     0.099 A 
ATOM      4  C   UNL d   1     -48.761  13.187  22.828  0.00  0.00     0.099 A 
ATOM      5  C   UNL d   1     -47.261  13.842  22.699  0.00  0.00     0.101 A 
ATOM      6  C   UNL d   1     -47.353  13.029  22.703  0.00  0.00     0.099 A 
ATOM      7  C   UNL d   1     -46.512  14.174  22.634  0.00  0.00     0.042 A 
ATOM      8  C   UNL d   1     -46.696  12.536  22.642  0.00  0.00     0.022 A 
ATOM      9  C   UNL d   1     -45.854  13.684  22.574  0.00  0.00     0.104 A 
ATOM     10  N   UNL d   1     -45.110  14.016  22.510  0.00  0.00    -0.148 N 
ATOM     11  C   UNL d   1     -45.945  12.870  22.578  0.00  0.00     0.023 A 
ENDROOT
BRANCH   3  12
ATOM     12  C   UNL d   1     -49.322  14.490  22.883  0.00  0.00     0.019 A 
ATOM     13  C   UNL d   1     -49.569  14.763  23.630  0.00  0.00     0.002 A 
ATOM     14  C   UNL d   1     -50.229  15.259  23.698  0.00  0.00     0.000 A 
ATOM     15  C   UNL d   1     -50.649  15.487  23.015  0.00  0.00     0.000 A 
ATOM     16  C   UNL d   1     -50.395  15.209  22.267  0.00  0.00     0.000 A 
ATOM     17  C   UNL d   1     -49.738  14.716  22.206  0.00  0.00     0.002 A 
ENDBRANCH   3  12
BRANCH   4  18
ATOM     18  C   UNL d   1     -49.505  12.852  22.892  0.00  0.00     0.019 A 
ATOM     19  C   UNL d   1     -49.951  12.705  22.202  0.00  0.00     0.002 A 
ATOM     20  C   UNL d   1     -50.707  12.366  22.260  0.00  0.00     0.000 A 
ATOM     21  C   UNL d   1     -51.022  12.171  23.008  0.00  0.00     0.000 A 
ATOM     22  C   UNL d   1     -50.580  12.317  23.697  0.00  0.00     0.000 A 
ATOM     23  C   UNL d   1     -49.820  12.658  23.640  0.00  0.00     0.002 A 
ENDBRANCH   4  18
TORSDOF 2
ENDMDL
MODEL 2
REMARK VINA RESULT:      -8.2      1.371      3.931
REMARK  2 active torsions:
REMARK  status: ('A' for Active; 'I' for Inactive)
REMARK    1  A    between atoms: C_9  and  C_3 
REMARK    2  A    between atoms: C_8  and  C_4 
ROOT
ATOM      1  N   UNL d   1     -49.140  13.531  23.225  0.00  0.00    -0.242 NA
ATOM      2  N   UNL d   1     -48.022  14.658  22.782  0.00  0.00    -0.242 NA
ATOM      3  C   UNL d   1     -48.376  13.297  23.022  0.00  0.00     0.099 A 
ATOM      4  C   UNL d   1     -47.821  13.858  22.802  0.00  0.00     0.099 A 
ATOM      5  C   UNL d   1     -49.341  14.327  23.205  0.00  0.00     0.101 A 
ATOM      6  C   UNL d   1     -48.786  14.887  22.985  0.00  0.00     0.099 A 
ATOM      7  C   UNL d   1     -50.103  14.558  23.408  0.00  0.00     0.042 A 
ATOM      8  C   UNL d   1     -48.986  15.685  22.965  0.00  0.00     0.022 A 
ATOM      9  C   UNL d   1     -50.306  15.355  23.389  0.00  0.00     0.104 A 
ATOM     10  N   UNL d   1     -51.064  15.582  23.591  0.00  0.00    -0.148 N 
ATOM     11  C   UNL d   1     -49.751  15.915  23.169  0.00  0.00     0.023 A 
ENDROOT
BRANCH   3  12
ATOM     12  C   UNL d   1     -48.178  12.505  23.042  0.00  0.00     0.019 A 
ATOM     13  C   UNL d   1     -48.408  12.004  22.418  0.00  0.00     0.002 A 
ATOM     14  C   UNL d   1     -48.210  11.199  22.433  0.00  0.00     0.000 A 
ATOM     15  C   UNL d   1     -47.778  10.889  23.074  0.00  0.00     0.000 A 
ATOM     16  C   UNL d   1     -47.550  11.399  23.698  0.00  0.00     0.000 A 
ATOM     17  C   UNL d   1     -47.750  12.198  23.678  0.00  0.00     0.002 A 
ENDBRANCH   3  12
BRANCH   4  18
ATOM     18  C   UNL d   1     -47.060  13.632  22.599  0.00  0.00     0.019 A 
ATOM     19  C   UNL d   1     -46.453  13.675  23.169  0.00  0.00     0.002 A 
ATOM     20  C   UNL d   1     -45.679  13.447  22.970  0.00  0.00     0.000 A 
ATOM     21  C   UNL d   1     -45.508  13.177  22.199  0.00  0.00     0.000 A 
ATOM     22  C   UNL d   1     -46.111  13.134  21.629  0.00  0.00     0.000 A 
ATOM     23  C   UNL d   1     -46.889  13.361  21.828  0.00  0.00     0.002 A 
ENDBRANCH   4  18
TORSDOF 2
ENDMDL
MODEL 3
REMARK VINA RESULT:      -8.0      1.351      3.472
REMARK  2 active torsions:
REMARK  status: ('A' for Active; 'I' for Inactive)
REMARK    1  A    between atoms: C_9  and  C_3 
REMARK    2  A    between atoms: C_8  and  C_4 
ROOT
ATOM      1  N   UNL d   1     -48.685  14.389  23.027  0.00  0.00    -0.242 NA
ATOM      2  N   UNL d   1     -49.526  13.004  23.331  0.00  0.00    -0.242 NA
ATOM      3  C   UNL d   1     -48.311  13.657  22.967  0.00  0.00     0.099 A 
ATOM      4  C   UNL d   1     -48.729  12.969  23.118  0.00  0.00     0.099 A 
ATOM      5  C   UNL d   1     -49.478  14.425  23.238  0.00  0.00     0.101 A 
ATOM      6  C   UNL d   1     -49.896  13.737  23.389  0.00  0.00     0.099 A 
ATOM      7  C   UNL d   1     -49.850  15.155  23.296  0.00  0.00     0.042 A 
ATOM      8  C   UNL d   1     -50.691  13.770  23.601  0.00  0.00     0.022 A 
ATOM      9  C   UNL d   1     -50.645  15.192  23.508  0.00  0.00     0.104 A 
ATOM     10  N   UNL d   1     -51.012  15.920  23.566  0.00  0.00    -0.148 N 
ATOM     11  C   UNL d   1     -51.062  14.504  23.659  0.00  0.00     0.023 A 
ENDROOT
BRANCH   3  12
ATOM     12  C   UNL d   1     -47.522  13.623  22.757  0.00  0.00     0.019 A 
ATOM     13  C   UNL d   1     -47.310  13.528  21.958  0.00  0.00     0.002 A 
ATOM     14  C   UNL d   1     -46.511  13.493  21.738  0.00  0.00     0.000 A 
ATOM     15  C   UNL d   1     -45.917  13.554  22.319  0.00  0.00     0.000 A 
ATOM     16  C   UNL d   1     -46.139  13.650  23.121  0.00  0.00     0.000 A 
ATOM     17  C   UNL d   1     -46.934  13.684  23.333  0.00  0.00     0.002 A 
ENDBRANCH   3  12
BRANCH   4  18
ATOM     18  C   UNL d   1     -48.363  12.239  23.061  0.00  0.00     0.019 A 
ATOM     19  C   UNL d   1     -48.449  11.789  22.364  0.00  0.00     0.002 A 
ATOM     20  C   UNL d   1     -48.080  11.048  22.299  0.00  0.00     0.000 A 
ATOM     21  C   UNL d   1     -47.623  10.752  22.932  0.00  0.00     0.000 A 
ATOM     22  C   UNL d   1     -47.536  11.197  23.628  0.00  0.00     0.000 A 
ATOM     23  C   UNL d   1     -47.906  11.943  23.694  0.00  0.00     0.002 A 
ENDBRANCH   4  18
TORSDOF 2
ENDMDL
MODEL 4
REMARK VINA RESULT:      -6.7      9.286     10.519
REMARK  2 active torsions:
REMARK  status: ('A' for Active; 'I' for Inactive)
REMARK    1  A    between atoms: C_9  and  C_3 
REMARK    2  A    between atoms: C_8  and  C_4 
ROOT
ATOM      1  N   UNL d   1     -38.969  14.473  19.810  0.00  0.00    -0.242 NA
ATOM      2  N   UNL d   1     -40.142  15.591  19.508  0.00  0.00    -0.242 NA
ATOM      3  C   UNL d   1     -39.241  14.588  19.041  0.00  0.00     0.099 A 
ATOM      4  C   UNL d   1     -39.824  15.143  18.891  0.00  0.00     0.099 A 
ATOM      5  C   UNL d   1     -39.284  14.918  20.425  0.00  0.00     0.101 A 
ATOM      6  C   UNL d   1     -39.867  15.473  20.274  0.00  0.00     0.099 A 
ATOM      7  C   UNL d   1     -39.012  14.802  21.191  0.00  0.00     0.042 A 
ATOM      8  C   UNL d   1     -40.185  15.919  20.888  0.00  0.00     0.022 A 
ATOM      9  C   UNL d   1     -39.327  15.247  21.807  0.00  0.00     0.104 A 
ATOM     10  N   UNL d   1     -39.055  15.130  22.569  0.00  0.00    -0.148 N 
ATOM     11  C   UNL d   1     -39.910  15.802  21.657  0.00  0.00     0.023 A 
ENDROOT
BRANCH   3  12
ATOM     12  C   UNL d   1     -38.926  14.145  18.431  0.00  0.00     0.019 A 
ATOM     13  C   UNL d   1     -38.265  14.427  18.012  0.00  0.00     0.002 A 
ATOM     14  C   UNL d   1     -37.940  13.983  17.392  0.00  0.00     0.000 A 
ATOM     15  C   UNL d   1     -38.276  13.249  17.187  0.00  0.00     0.000 A 
ATOM     16  C   UNL d   1     -38.941  12.971  17.614  0.00  0.00     0.000 A 
ATOM     17  C   UNL d   1     -39.260  13.417  18.228  0.00  0.00     0.002 A 
ENDBRANCH   3  12
BRANCH   4  18
ATOM     18  C   UNL d   1     -40.099  15.262  18.129  0.00  0.00     0.019 A 
ATOM     19  C   UNL d   1     -40.763  14.835  17.860  0.00  0.00     0.002 A 
ATOM     20  C   UNL d   1     -41.047  14.951  17.088  0.00  0.00     0.000 A 
ATOM     21  C   UNL d   1     -40.668  15.495  16.580  0.00  0.00     0.000 A 
ATOM     22  C   UNL d   1     -40.006  15.922  16.846  0.00  0.00     0.000 A 
ATOM     23  C   UNL d   1     -39.720  15.806  17.621  0.00  0.00     0.002 A 
ENDBRANCH   4  18
TORSDOF 2
ENDMDL
MODEL 5
REMARK VINA RESULT:      -6.5      9.573     10.578
REMARK  2 active torsions:
REMARK  status: ('A' for Active; 'I' for Inactive)
REMARK    1  A    between atoms: C_9  and  C_3 
REMARK    2  A    between atoms: C_8  and  C_4 
ROOT
ATOM      1  N   UNL d   1     -39.798  15.331  19.644  0.00  0.00    -0.242 NA
ATOM      2  N   UNL d   1     -38.535  14.271  19.644  0.00  0.00    -0.242 NA
ATOM      3  C   UNL d   1     -39.571  14.958  18.945  0.00  0.00     0.099 A 
ATOM      4  C   UNL d   1     -38.944  14.431  18.945  0.00  0.00     0.099 A 
ATOM      5  C   UNL d   1     -39.392  15.172  20.340  0.00  0.00     0.101 A 
ATOM      6  C   UNL d   1     -38.764  14.645  20.340  0.00  0.00     0.099 A 
ATOM      7  C   UNL d   1     -39.619  15.544  21.036  0.00  0.00     0.042 A 
ATOM      8  C   UNL d   1     -38.356  14.485  21.036  0.00  0.00     0.022 A 
ATOM      9  C   UNL d   1     -39.212  15.386  21.734  0.00  0.00     0.104 A 
ATOM     10  N   UNL d   1     -39.440  15.757  22.425  0.00  0.00    -0.148 N 
ATOM     11  C   UNL d   1     -38.585  14.859  21.734  0.00  0.00     0.023 A 
ENDROOT
BRANCH   3  12
ATOM     12  C   UNL d   1     -39.976  15.117  18.253  0.00  0.00     0.019 A 
ATOM     13  C   UNL d   1     -39.738  15.752  17.769  0.00  0.00     0.002 A 
ATOM     14  C   UNL d   1     -40.145  15.919  17.067  0.00  0.00     0.000 A 
ATOM     15  C   UNL d   1     -40.796  15.450  16.842  0.00  0.00     0.000 A 
ATOM     16  C   UNL d   1     -41.030  14.813  17.334  0.00  0.00     0.000 A 
ATOM     17  C   UNL d   1     -40.622  14.652  18.031  0.00  0.00     0.002 A 
ENDBRANCH   3  12
BRANCH   4  18
ATOM     18  C   UNL d   1     -38.714  14.058  18.254  0.00  0.00     0.019 A 
ATOM     19  C   UNL d   1     -39.028  13.308  18.067  0.00  0.00     0.002 A 
ATOM     20  C   UNL d   1     -38.799  12.923  17.367  0.00  0.00     0.000 A 
ATOM     21  C   UNL d   1     -38.254  13.287  16.850  0.00  0.00     0.000 A 
ATOM     22  C   UNL d   1     -37.940  14.034  17.033  0.00  0.00     0.000 A 
ATOM     23  C   UNL d   1     -38.169  14.421  17.736  0.00  0.00     0.002 A 
ENDBRANCH   4  18
TORSDOF 2
ENDMDL
MODEL 6
REMARK VINA RESULT:      -6.5      8.154     10.340
REMARK  2 active torsions:
REMARK  status: ('A' for Active; 'I' for Inactive)
REMARK    1  A    between atoms: C_9  and  C_3 
REMARK    2  A    between atoms: C_8  and  C_4 
ROOT
ATOM      1  N   UNL d   1     -38.588  14.697  18.627  0.00  0.00    -0.242 NA
ATOM      2  N   UNL d   1     -40.194  14.969  18.380  0.00  0.00    -0.242 NA
ATOM      3  C   UNL d   1     -39.093  14.801  19.270  0.00  0.00     0.099 A 
ATOM      4  C   UNL d   1     -39.891  14.936  19.147  0.00  0.00     0.099 A 
ATOM      5  C   UNL d   1     -38.888  14.729  17.863  0.00  0.00     0.101 A 
ATOM      6  C   UNL d   1     -39.687  14.864  17.741  0.00  0.00     0.099 A 
ATOM      7  C   UNL d   1     -38.384  14.626  17.224  0.00  0.00     0.042 A 
ATOM      8  C   UNL d   1     -39.990  14.897  16.976  0.00  0.00     0.022 A 
ATOM      9  C   UNL d   1     -38.684  14.658  16.458  0.00  0.00     0.104 A 
ATOM     10  N   UNL d   1     -38.180  14.554  15.823  0.00  0.00    -0.148 N 
ATOM     11  C   UNL d   1     -39.483  14.792  16.335  0.00  0.00     0.023 A 
ENDROOT
BRANCH   3  12
ATOM     12  C   UNL d   1     -38.791  14.769  20.029  0.00  0.00     0.019 A 
ATOM     13  C   UNL d   1     -38.751  14.040  20.429  0.00  0.00     0.002 A 
ATOM     14  C   UNL d   1     -38.446  14.000  21.199  0.00  0.00     0.000 A 
ATOM     15  C   UNL d   1     -38.178  14.693  21.575  0.00  0.00     0.000 A 
ATOM     16  C   UNL d   1     -38.222  15.423  21.167  0.00  0.00     0.000 A 
ATOM     17  C   UNL d   1     -38.526  15.456  20.402  0.00  0.00     0.002 A 
ENDBRANCH   3  12
BRANCH   4  18
ATOM     18  C   UNL d   1     -40.398  15.040  19.781  0.00  0.00     0.019 A 
ATOM     19  C   UNL d   1     -40.539  15.809  20.073  0.00  0.00     0.002 A 
ATOM     20  C   UNL d   1     -41.052  15.921  20.717  0.00  0.00     0.000 A 
ATOM     21  C   UNL d   1     -41.427  15.266  21.072  0.00  0.00     0.000 A 
ATOM     22  C   UNL d   1     -41.288  14.499  20.783  0.00  0.00     0.000 A 
ATOM     23  C   UNL d   1     -40.773  14.384  20.137  0.00  0.00     0.002 A 
ENDBRANCH   4  18
TORSDOF 2
ENDMDL
MODEL 7
REMARK VINA RESULT:      -6.3      7.977     10.041
REMARK  2 active torsions:
REMARK  status: ('A' for Active; 'I' for Inactive)
REMARK    1  A    between atoms: C_9  and  C_3 
REMARK    2  A    between atoms: C_8  and  C_4 
ROOT
ATOM      1  N   UNL d   1     -39.857  14.414  18.873  0.00  0.00    -0.242 NA
ATOM      2  N   UNL d   1     -38.448  13.930  19.576  0.00  0.00    -0.242 NA
ATOM      3  C   UNL d   1     -39.759  14.478  19.689  0.00  0.00     0.099 A 
ATOM      4  C   UNL d   1     -39.058  14.238  20.038  0.00  0.00     0.099 A 
ATOM      5  C   UNL d   1     -39.250  14.108  18.413  0.00  0.00     0.101 A 
ATOM      6  C   UNL d   1     -38.550  13.867  18.762  0.00  0.00     0.099 A 
ATOM      7  C   UNL d   1     -39.350  14.044  17.600  0.00  0.00     0.042 A 
ATOM      8  C   UNL d   1     -37.940  13.560  18.302  0.00  0.00     0.022 A 
ATOM      9  C   UNL d   1     -38.742  13.737  17.137  0.00  0.00     0.104 A 
ATOM     10  N   UNL d   1     -38.843  13.675  16.329  0.00  0.00    -0.148 N 
ATOM     11  C   UNL d   1     -38.041  13.497  17.486  0.00  0.00     0.023 A 
ENDROOT
BRANCH   3  12
ATOM     12  C   UNL d   1     -40.364  14.783  20.145  0.00  0.00     0.019 A 
ATOM     13  C   UNL d   1     -40.413  15.604  20.275  0.00  0.00     0.002 A 
ATOM     14  C   UNL d   1     -41.025  15.920  20.737  0.00  0.00     0.000 A 
ATOM     15  C   UNL d   1     -41.594  15.414  21.073  0.00  0.00     0.000 A 
ATOM     16  C   UNL d   1     -41.540  14.589  20.938  0.00  0.00     0.000 A 
ATOM     17  C   UNL d   1     -40.930  14.282  20.478  0.00  0.00     0.002 A 
ENDBRANCH   3  12
BRANCH   4  18
ATOM     18  C   UNL d   1     -38.954  14.299  20.848  0.00  0.00     0.019 A 
ATOM     19  C   UNL d   1     -38.622  14.994  21.168  0.00  0.00     0.002 A 
ATOM     20  C   UNL d   1     -38.514  15.062  21.989  0.00  0.00     0.000 A 
ATOM     21  C   UNL d   1     -38.738  14.436  22.494  0.00  0.00     0.000 A 
ATOM     22  C   UNL d   1     -39.070  13.743  22.177  0.00  0.00     0.000 A 
ATOM     23  C   UNL d   1     -39.179  13.673  21.353  0.00  0.00     0.002 A 
ENDBRANCH   4  18
TORSDOF 2
ENDMDL
