MODEL 1
REMARK VINA RESULT:      80.1      0.000      0.000
REMARK  3 active torsions:
REMARK  status: ('A' for Active; 'I' for Inactive)
REMARK    1  A    between atoms: N_4  and  C_2 
REMARK    2  A    between atoms: C_9  and  C_3 
REMARK       I    between atoms: C_7  and  N_4 
REMARK    3  A    between atoms: C_8  and  C_7 
ROOT
ATOM      1  N   UNL d   1      60.722  47.745  50.813  0.00  0.00    -0.051 NA
ATOM      2  C   UNL d   1      61.360  47.607  50.316  0.00  0.00     0.760 A 
ATOM      3  C   UNL d   1      60.640  48.560  50.905  0.00  0.00     0.147 A 
ATOM      4  N   UNL d   1      61.676  48.337  50.098  0.00  0.00    -0.019 NA
ATOM      5  S   UNL d   1      61.234  48.928  50.460  0.00  0.00     0.052 SA
ENDROOT
BRANCH   2   6
ATOM      6  N   UNL d   1      61.699  46.903  50.030  0.00  0.00    -0.018 NA
ATOM      7  C   UNL d   1      61.308  46.186  50.137  0.00  0.00     0.295 C 
ATOM      8  O   UNL d   1      60.581  46.166  50.526  0.00  0.00    -0.265 OA
BRANCH   7   9
ATOM      9  C   UNL d   1      61.644  45.490  49.853  0.00  0.00     0.059 A 
ATOM     10  C   UNL d   1      61.598  44.801  50.302  0.00  0.00     0.007 A 
ATOM     11  C   UNL d   1      61.938  44.105  50.012  0.00  0.00     0.030 A 
ATOM     12  C   UNL d   1      62.320  44.098  49.280  0.00  0.00     0.140 A 
ATOM     13  C   UNL d   1      62.366  44.786  48.832  0.00  0.00     0.030 A 
ATOM     14  F   UNL d   1      62.653  43.397  49.006  0.00  0.00    -0.204 F 
ATOM     15  C   UNL d   1      62.029  45.483  49.115  0.00  0.00     0.007 A 
ENDBRANCH   7   9
ENDBRANCH   2   6
BRANCH   3  16
ATOM     16  C   UNL d   1      60.070  48.942  51.358  0.00  0.00     0.026 A 
ATOM     17  C   UNL d   1      60.271  49.274  52.087  0.00  0.00     0.002 A 
ATOM     18  C   UNL d   1      59.699  49.658  52.541  0.00  0.00     0.000 A 
ATOM     19  C   UNL d   1      58.924  49.708  52.264  0.00  0.00     0.000 A 
ATOM     20  C   UNL d   1      58.718  49.380  51.540  0.00  0.00     0.000 A 
ATOM     21  C   UNL d   1      59.290  48.996  51.086  0.00  0.00     0.002 A 
ENDBRANCH   3  16
TORSDOF 3
ENDMDL
