MODEL 1
REMARK VINA RESULT:      -3.1      0.000      0.000
REMARK  5 active torsions:
REMARK  status: ('A' for Active; 'I' for Inactive)
REMARK    1  A    between atoms: C_7  and  N_1 
REMARK    2  A    between atoms: C_2  and  C_6 
REMARK    3  A    between atoms: C_5  and  C_3 
REMARK    4  A    between atoms: N_8  and  C_5 
REMARK    5  A    between atoms: C_19  and  N_9 
ROOT
ATOM      1  C   UNL d   1      30.203  16.040 -23.768  0.00  0.00     0.102 A 
ATOM      2  C   UNL d   1      31.465  16.274 -24.156  0.00  0.00     0.126 A 
ATOM      3  O   UNL d   1      30.855  16.544 -23.670  0.00  0.00    -0.305 OA
ATOM      4  C   UNL d   1      30.418  15.456 -24.321  0.00  0.00     0.027 A 
ATOM      5  C   UNL d   1      31.191  15.604 -24.554  0.00  0.00     0.029 A 
ENDROOT
BRANCH   2   6
ATOM      6  C   UNL d   1      32.251  16.622 -24.239  0.00  0.00     0.143 C 
ATOM      7  S   UNL d   1      32.815  16.247 -24.709  0.00  0.00    -0.057 SA
BRANCH   6   8
ATOM      8  N   UNL d   1      32.419  17.344 -23.832  0.00  0.00    -0.291 N 
ATOM      9  C   UNL d   1      32.821  17.353 -23.117  0.00  0.00     0.100 A 
ATOM     10  C   UNL d   1      32.970  18.065 -22.746  0.00  0.00     0.100 A 
ATOM     11  N   UNL d   1      32.734  18.772 -23.059  0.00  0.00    -0.301 N 
ATOM     12  C   UNL d   1      32.319  18.786 -23.793  0.00  0.00     0.100 A 
ATOM     13  C   UNL d   1      32.162  18.065 -24.180  0.00  0.00     0.100 A 
BRANCH  11  14
ATOM     14  C   UNL d   1      32.896  19.483 -22.664  0.00  0.00     0.064 A 
ATOM     15  C   UNL d   1      32.881  19.530 -21.845  0.00  0.00     0.018 A 
ATOM     16  C   UNL d   1      33.044  20.242 -21.465  0.00  0.00     0.002 A 
ATOM     17  C   UNL d   1      33.225  20.914 -21.918  0.00  0.00     0.000 A 
ATOM     18  C   UNL d   1      33.240  20.867 -22.736  0.00  0.00     0.002 A 
ATOM     19  C   UNL d   1      33.075  20.149 -23.103  0.00  0.00     0.018 A 
ENDBRANCH  11  14
ENDBRANCH   6   8
ENDBRANCH   2   6
BRANCH   1  20
ATOM     20  C   UNL d   1      29.446  16.038 -23.428  0.00  0.00     0.045 A 
ATOM     21  C   UNL d   1      28.869  16.574 -23.692  0.00  0.00     0.129 A 
ATOM     22  C   UNL d   1      28.116  16.572 -23.354  0.00  0.00     0.024 A 
ATOM     23  C   UNL d   1      27.924  16.035 -22.744  0.00  0.00     0.002 A 
ATOM     24  C   UNL d   1      28.507  15.506 -22.489  0.00  0.00     0.000 A 
ATOM     25  C   UNL d   1      29.260  15.508 -22.827  0.00  0.00     0.004 A 
BRANCH  21  26
ATOM     26  N   UNL d   1      29.038  17.105 -24.286  0.00  0.00    -0.114 N 
ATOM     27  O   UNL d   1      29.097  16.905 -25.097  0.00  0.00    -0.532 OA
ATOM     28  O   UNL d   1      29.172  17.909 -24.160  0.00  0.00    -0.532 OA
ENDBRANCH  21  26
ENDBRANCH   1  20
TORSDOF 5
ENDMDL
MODEL 2
REMARK VINA RESULT:      -1.3      1.196      1.803
REMARK  5 active torsions:
REMARK  status: ('A' for Active; 'I' for Inactive)
REMARK    1  A    between atoms: C_7  and  N_1 
REMARK    2  A    between atoms: C_2  and  C_6 
REMARK    3  A    between atoms: C_5  and  C_3 
REMARK    4  A    between atoms: N_8  and  C_5 
REMARK    5  A    between atoms: C_19  and  N_9 
ROOT
ATOM      1  C   UNL d   1      30.561  17.334 -24.480  0.00  0.00     0.102 A 
ATOM      2  C   UNL d   1      31.800  17.834 -24.362  0.00  0.00     0.126 A 
ATOM      3  O   UNL d   1      31.258  17.308 -24.030  0.00  0.00    -0.305 OA
ATOM      4  C   UNL d   1      30.680  17.883 -25.095  0.00  0.00     0.027 A 
ATOM      5  C   UNL d   1      31.440  18.186 -25.017  0.00  0.00     0.029 A 
ENDROOT
BRANCH   2   6
ATOM      6  C   UNL d   1      32.601  17.994 -24.082  0.00  0.00     0.143 C 
ATOM      7  S   UNL d   1      33.234  17.568 -24.394  0.00  0.00    -0.057 SA
BRANCH   6   8
ATOM      8  N   UNL d   1      32.713  18.589 -23.491  0.00  0.00    -0.291 N 
ATOM      9  C   UNL d   1      33.108  18.432 -22.790  0.00  0.00     0.100 A 
ATOM     10  C   UNL d   1      33.201  19.025 -22.237  0.00  0.00     0.100 A 
ATOM     11  N   UNL d   1      32.917  19.772 -22.355  0.00  0.00    -0.301 N 
ATOM     12  C   UNL d   1      32.507  19.957 -23.069  0.00  0.00     0.100 A 
ATOM     13  C   UNL d   1      32.407  19.358 -23.640  0.00  0.00     0.100 A 
BRANCH  11  14
ATOM     14  C   UNL d   1      33.024  20.360 -21.778  0.00  0.00     0.064 A 
ATOM     15  C   UNL d   1      33.039  21.155 -21.977  0.00  0.00     0.018 A 
ATOM     16  C   UNL d   1      33.146  21.728 -21.396  0.00  0.00     0.002 A 
ATOM     17  C   UNL d   1      33.239  21.494 -20.604  0.00  0.00     0.000 A 
ATOM     18  C   UNL d   1      33.223  20.699 -20.405  0.00  0.00     0.002 A 
ATOM     19  C   UNL d   1      33.115  20.137 -20.998  0.00  0.00     0.018 A 
ENDBRANCH  11  14
ENDBRANCH   6   8
ENDBRANCH   2   6
BRANCH   1  20
ATOM     20  C   UNL d   1      29.839  16.931 -24.410  0.00  0.00     0.045 A 
ATOM     21  C   UNL d   1      29.801  16.211 -23.999  0.00  0.00     0.129 A 
ATOM     22  C   UNL d   1      29.083  15.810 -23.929  0.00  0.00     0.024 A 
ATOM     23  C   UNL d   1      28.388  16.121 -24.270  0.00  0.00     0.002 A 
ATOM     24  C   UNL d   1      28.437  16.839 -24.677  0.00  0.00     0.000 A 
ATOM     25  C   UNL d   1      29.155  17.240 -24.747  0.00  0.00     0.004 A 
BRANCH  21  26
ATOM     26  N   UNL d   1      30.470  15.893 -23.660  0.00  0.00    -0.114 N 
ATOM     27  O   UNL d   1      31.122  15.593 -24.091  0.00  0.00    -0.532 OA
ATOM     28  O   UNL d   1      30.587  15.826 -22.846  0.00  0.00    -0.532 OA
ENDBRANCH  21  26
ENDBRANCH   1  20
TORSDOF 5
ENDMDL
MODEL 3
REMARK VINA RESULT:      -0.8      2.884      5.801
REMARK  5 active torsions:
REMARK  status: ('A' for Active; 'I' for Inactive)
REMARK    1  A    between atoms: C_7  and  N_1 
REMARK    2  A    between atoms: C_2  and  C_6 
REMARK    3  A    between atoms: C_5  and  C_3 
REMARK    4  A    between atoms: N_8  and  C_5 
REMARK    5  A    between atoms: C_19  and  N_9 
ROOT
ATOM      1  C   UNL d   1      32.691  21.627 -21.257  0.00  0.00     0.102 A 
ATOM      2  C   UNL d   1      32.746  20.792 -22.305  0.00  0.00     0.126 A 
ATOM      3  O   UNL d   1      33.051  21.492 -21.993  0.00  0.00    -0.305 OA
ATOM      4  C   UNL d   1      32.160  21.001 -21.119  0.00  0.00     0.027 A 
ATOM      5  C   UNL d   1      32.198  20.494 -21.764  0.00  0.00     0.029 A 
ENDROOT
BRANCH   2   6
ATOM      6  C   UNL d   1      32.956  20.429 -23.060  0.00  0.00     0.143 C 
ATOM      7  S   UNL d   1      33.241  20.902 -23.673  0.00  0.00    -0.057 SA
BRANCH   6   8
ATOM      8  N   UNL d   1      32.863  19.593 -23.148  0.00  0.00    -0.291 N 
ATOM      9  C   UNL d   1      32.419  19.271 -23.758  0.00  0.00     0.100 A 
ATOM     10  C   UNL d   1      32.346  18.461 -23.820  0.00  0.00     0.100 A 
ATOM     11  N   UNL d   1      32.699  17.955 -23.297  0.00  0.00    -0.301 N 
ATOM     12  C   UNL d   1      33.160  18.265 -22.662  0.00  0.00     0.100 A 
ATOM     13  C   UNL d   1      33.241  19.091 -22.590  0.00  0.00     0.100 A 
BRANCH  11  14
ATOM     14  C   UNL d   1      32.611  17.134 -23.379  0.00  0.00     0.064 A 
ATOM     15  C   UNL d   1      32.010  16.813 -23.835  0.00  0.00     0.018 A 
ATOM     16  C   UNL d   1      31.933  15.996 -23.909  0.00  0.00     0.002 A 
ATOM     17  C   UNL d   1      32.470  15.499 -23.517  0.00  0.00     0.000 A 
ATOM     18  C   UNL d   1      33.071  15.820 -23.061  0.00  0.00     0.002 A 
ATOM     19  C   UNL d   1      33.136  16.639 -22.996  0.00  0.00     0.018 A 
ENDBRANCH  11  14
ENDBRANCH   6   8
ENDBRANCH   2   6
BRANCH   1  20
ATOM     20  C   UNL d   1      32.779  22.236 -20.699  0.00  0.00     0.045 A 
ATOM     21  C   UNL d   1      32.494  22.998 -20.865  0.00  0.00     0.129 A 
ATOM     22  C   UNL d   1      32.581  23.602 -20.311  0.00  0.00     0.024 A 
ATOM     23  C   UNL d   1      32.954  23.458 -19.578  0.00  0.00     0.002 A 
ATOM     24  C   UNL d   1      33.234  22.695 -19.424  0.00  0.00     0.000 A 
ATOM     25  C   UNL d   1      33.147  22.091 -19.978  0.00  0.00     0.004 A 
BRANCH  21  26
ATOM     26  N   UNL d   1      32.127  23.157 -21.575  0.00  0.00    -0.114 N 
ATOM     27  O   UNL d   1      31.308  23.058 -21.716  0.00  0.00    -0.532 OA
ATOM     28  O   UNL d   1      32.520  23.436 -22.244  0.00  0.00    -0.532 OA
ENDBRANCH  21  26
ENDBRANCH   1  20
TORSDOF 5
ENDMDL
