MODEL 1
REMARK VINA RESULT:      58.2      0.000      0.000
REMARK  5 active torsions:
REMARK  status: ('A' for Active; 'I' for Inactive)
REMARK    1  A    between atoms: C_7  and  C_2 
REMARK    2  A    between atoms: C_9  and  C_4 
REMARK    3  A    between atoms: C_16  and  C_7 
REMARK    4  A    between atoms: N_8  and  C_9 
REMARK    5  A    between atoms: C_23  and  C_14 
ROOT
ATOM      1  C   UNL d   1      13.921  13.846  -3.803  0.00  0.00     0.108 A 
ATOM      2  C   UNL d   1      14.197  15.160  -3.859  0.00  0.00     0.139 A 
ATOM      3  O   UNL d   1      14.429  14.436  -3.515  0.00  0.00    -0.304 OA
ATOM      4  C   UNL d   1      13.884  13.044  -3.661  0.00  0.00     0.079 A 
ATOM      5  C   UNL d   1      13.380  14.201  -4.319  0.00  0.00     0.064 A 
ATOM      6  C   UNL d   1      13.553  15.011  -4.351  0.00  0.00     0.220 A 
ATOM      7  C   UNL d   1      12.803  13.744  -4.691  0.00  0.00     0.009 A 
ATOM      8  C   UNL d   1      13.308  12.591  -4.033  0.00  0.00     0.199 A 
ATOM      9  O   UNL d   1      13.145  15.573  -4.803  0.00  0.00    -0.284 OA
ATOM     10  C   UNL d   1      12.769  12.940  -4.546  0.00  0.00     0.042 A 
ATOM     11  O   UNL d   1      13.272  11.780  -3.889  0.00  0.00    -0.286 OA
ENDROOT
BRANCH   2  12
ATOM     12  C   UNL d   1      14.553  15.895  -3.726  0.00  0.00     0.028 C 
BRANCH  12  13
ATOM     13  C   UNL d   1      14.742  16.131  -2.958  0.00  0.00     0.002 A 
ATOM     14  C   UNL d   1      15.316  15.720  -2.529  0.00  0.00     0.000 A 
ATOM     15  C   UNL d   1      15.505  15.956  -1.761  0.00  0.00     0.000 A 
ATOM     16  C   UNL d   1      15.119  16.603  -1.424  0.00  0.00     0.000 A 
ATOM     17  C   UNL d   1      14.545  17.013  -1.853  0.00  0.00     0.000 A 
ATOM     18  C   UNL d   1      14.356  16.778  -2.621  0.00  0.00     0.000 A 
BRANCH  16  19
ATOM     19  C   UNL d   1      15.309  16.839  -0.656  0.00  0.00     0.000 C 
ATOM     20  C   UNL d   1      15.405  17.640  -0.480  0.00  0.00     0.000 C 
ATOM     21  C   UNL d   1      15.402  16.270  -0.060  0.00  0.00     0.000 C 
ENDBRANCH  16  19
ENDBRANCH  12  13
ENDBRANCH   2  12
BRANCH   4  22
ATOM     22  C   UNL d   1      14.415  12.686  -3.152  0.00  0.00     0.086 C 
BRANCH  22  23
ATOM     23  N   UNL d   1      14.282  12.482  -2.367  0.00  0.00    -0.300 N 
ATOM     24  C   UNL d   1      13.660  11.986  -2.173  0.00  0.00     0.100 A 
ATOM     25  C   UNL d   1      13.522  11.779  -1.394  0.00  0.00     0.100 A 
ATOM     26  N   UNL d   1      14.017  12.075  -0.810  0.00  0.00    -0.299 N 
ATOM     27  C   UNL d   1      14.639  12.570  -1.005  0.00  0.00     0.100 A 
ATOM     28  C   UNL d   1      13.887  11.874  -0.027  0.00  0.00     0.100 C 
ATOM     29  C   UNL d   1      14.765  12.769  -1.787  0.00  0.00     0.100 A 
ENDBRANCH  22  23
ENDBRANCH   4  22
TORSDOF 5
ENDMDL
MODEL 2
REMARK VINA RESULT:      58.9      1.802      4.950
REMARK  5 active torsions:
REMARK  status: ('A' for Active; 'I' for Inactive)
REMARK    1  A    between atoms: C_7  and  C_2 
REMARK    2  A    between atoms: C_9  and  C_4 
REMARK    3  A    between atoms: C_16  and  C_7 
REMARK    4  A    between atoms: N_8  and  C_9 
REMARK    5  A    between atoms: C_23  and  C_14 
ROOT
ATOM      1  C   UNL d   1      14.799  14.856  -1.186  0.00  0.00     0.108 A 
ATOM      2  C   UNL d   1      14.681  13.527  -1.349  0.00  0.00     0.139 A 
ATOM      3  O   UNL d   1      14.457  14.268  -1.662  0.00  0.00    -0.304 OA
ATOM      4  C   UNL d   1      14.771  15.670  -1.224  0.00  0.00     0.079 A 
ATOM      5  C   UNL d   1      15.229  14.484  -0.586  0.00  0.00     0.064 A 
ATOM      6  C   UNL d   1      15.154  13.664  -0.689  0.00  0.00     0.220 A 
ATOM      7  C   UNL d   1      15.631  14.935  -0.025  0.00  0.00     0.009 A 
ATOM      8  C   UNL d   1      15.173  16.118  -0.664  0.00  0.00     0.199 A 
ATOM      9  O   UNL d   1      15.499  13.085  -0.208  0.00  0.00    -0.284 OA
ATOM     10  C   UNL d   1      15.602  15.752  -0.066  0.00  0.00     0.042 A 
ATOM     11  O   UNL d   1      15.145  16.941  -0.704  0.00  0.00    -0.286 OA
ENDROOT
BRANCH   2  12
ATOM     12  C   UNL d   1      14.464  12.789  -1.652  0.00  0.00     0.028 C 
BRANCH  12  13
ATOM     13  C   UNL d   1      14.088  12.736  -2.385  0.00  0.00     0.002 A 
ATOM     14  C   UNL d   1      13.888  11.997  -2.695  0.00  0.00     0.000 A 
ATOM     15  C   UNL d   1      13.512  11.944  -3.428  0.00  0.00     0.000 A 
ATOM     16  C   UNL d   1      13.337  12.632  -3.850  0.00  0.00     0.000 A 
ATOM     17  C   UNL d   1      13.537  13.371  -3.539  0.00  0.00     0.000 A 
ATOM     18  C   UNL d   1      13.913  13.424  -2.806  0.00  0.00     0.000 A 
BRANCH  16  19
ATOM     19  C   UNL d   1      12.961  12.579  -4.583  0.00  0.00     0.000 C 
ATOM     20  C   UNL d   1      12.770  11.840  -4.898  0.00  0.00     0.000 C 
ATOM     21  C   UNL d   1      12.774  13.269  -5.002  0.00  0.00     0.000 C 
ENDBRANCH  16  19
ENDBRANCH  12  13
ENDBRANCH   2  12
BRANCH   4  22
ATOM     22  C   UNL d   1      14.347  16.046  -1.815  0.00  0.00     0.086 C 
BRANCH  22  23
ATOM     23  N   UNL d   1      14.645  16.339  -2.523  0.00  0.00    -0.300 N 
ATOM     24  C   UNL d   1      15.261  16.879  -2.515  0.00  0.00     0.100 A 
ATOM     25  C   UNL d   1      15.562  17.174  -3.215  0.00  0.00     0.100 A 
ATOM     26  N   UNL d   1      15.238  16.923  -3.925  0.00  0.00    -0.299 N 
ATOM     27  C   UNL d   1      14.622  16.383  -3.933  0.00  0.00     0.100 A 
ATOM     28  C   UNL d   1      15.533  17.213  -4.633  0.00  0.00     0.100 C 
ATOM     29  C   UNL d   1      14.331  16.096  -3.226  0.00  0.00     0.100 A 
ENDBRANCH  22  23
ENDBRANCH   4  22
TORSDOF 5
ENDMDL
