MODEL 1
REMARK VINA RESULT:     117.3      0.000      0.000
REMARK  8 active torsions:
REMARK  status: ('A' for Active; 'I' for Inactive)
REMARK    1  A    between atoms: N_5  and  C_1 
REMARK    2  A    between atoms: N_8  and  C_3 
REMARK    3  A    between atoms: C_17  and  N_8 
REMARK    4  A    between atoms: C_28  and  N_9 
REMARK    5  A    between atoms: C_10  and  C_17 
REMARK    6  A    between atoms: C_20  and  O_27 
REMARK    7  A    between atoms: O_27  and  C_29 
REMARK    8  A    between atoms: C_29  and  C_28 
ROOT
ATOM      1  C   UNL d   1      60.899  46.990  50.786  0.00  0.00     0.737 A 
ATOM      2  N   UNL d   1      60.608  46.262  50.979  0.00  0.00    -0.041 NA
ATOM      3  C   UNL d   1      60.858  45.610  50.589  0.00  0.00     0.182 A 
ATOM      4  N   UNL d   1      61.445  47.060  50.196  0.00  0.00    -0.060 NA
ATOM      5  C   UNL d   1      61.403  45.677  50.000  0.00  0.00     0.055 A 
ATOM      6  C   UNL d   1      61.698  46.396  49.801  0.00  0.00     0.103 A 
ATOM      7  C   UNL d   1      61.652  45.020  49.611  0.00  0.00     0.005 A 
ATOM      8  C   UNL d   1      62.243  46.461  49.212  0.00  0.00     0.020 A 
ATOM      9  C   UNL d   1      62.189  45.087  49.030  0.00  0.00     0.000 A 
ATOM     10  C   UNL d   1      62.484  45.806  48.832  0.00  0.00     0.002 A 
ENDROOT
BRANCH   1  11
ATOM     11  N   UNL d   1      60.645  47.661  51.183  0.00  0.00    -0.134 N 
ATOM     12  C   UNL d   1      59.949  48.054  50.937  0.00  0.00     0.117 A 
ATOM     13  C   UNL d   1      59.697  48.728  51.338  0.00  0.00     0.100 A 
ATOM     14  N   UNL d   1      60.127  49.020  51.982  0.00  0.00    -0.298 N 
ATOM     15  C   UNL d   1      60.822  48.627  52.228  0.00  0.00     0.100 A 
ATOM     16  C   UNL d   1      61.075  47.950  51.824  0.00  0.00     0.117 A 
BRANCH  14  17
ATOM     17  C   UNL d   1      59.874  49.694  52.383  0.00  0.00     0.107 C 
BRANCH  17  18
ATOM     18  C   UNL d   1      59.294  49.640  52.971  0.00  0.00     0.142 C 
BRANCH  18  19
ATOM     19  O   UNL d   1      59.497  49.694  53.777  0.00  0.00    -0.304 OA
BRANCH  19  20
ATOM     20  C   UNL d   1      58.917  49.696  54.360  0.00  0.00     0.100 A 
ATOM     21  C   UNL d   1      58.112  49.704  54.147  0.00  0.00     0.025 A 
ATOM     22  C   UNL d   1      57.533  49.706  54.735  0.00  0.00     0.002 A 
ATOM     23  C   UNL d   1      57.748  49.700  55.541  0.00  0.00     0.000 A 
ATOM     24  C   UNL d   1      58.553  49.693  55.753  0.00  0.00     0.002 A 
ATOM     25  C   UNL d   1      57.160  49.702  56.132  0.00  0.00     0.000 C 
ATOM     26  C   UNL d   1      59.138  49.691  55.155  0.00  0.00     0.025 A 
ENDBRANCH  19  20
ENDBRANCH  18  19
ENDBRANCH  17  18
ENDBRANCH  14  17
ENDBRANCH   1  11
BRANCH   3  27
ATOM     27  N   UNL d   1      60.567  44.900  50.785  0.00  0.00    -0.223 NA
BRANCH  27  28
ATOM     28  C   UNL d   1      61.015  44.374  51.122  0.00  0.00     0.125 C 
BRANCH  28  29
ATOM     29  C   UNL d   1      61.121  43.724  51.740  0.00  0.00     0.119 A 
ATOM     30  O   UNL d   1      60.720  43.314  52.605  0.00  0.00    -0.304 OA
ATOM     31  C   UNL d   1      61.346  42.487  52.897  0.00  0.00     0.123 A 
ATOM     32  C   UNL d   1      61.828  42.670  52.204  0.00  0.00     0.029 A 
ATOM     33  C   UNL d   1      61.744  43.180  51.718  0.00  0.00     0.028 A 
ENDBRANCH  28  29
ENDBRANCH  27  28
ENDBRANCH   3  27
TORSDOF 8
ENDMDL
MODEL 2
REMARK VINA RESULT:     118.9      2.336      2.979
REMARK  8 active torsions:
REMARK  status: ('A' for Active; 'I' for Inactive)
REMARK    1  A    between atoms: N_5  and  C_1 
REMARK    2  A    between atoms: N_8  and  C_3 
REMARK    3  A    between atoms: C_17  and  N_8 
REMARK    4  A    between atoms: C_28  and  N_9 
REMARK    5  A    between atoms: C_10  and  C_17 
REMARK    6  A    between atoms: C_20  and  O_27 
REMARK    7  A    between atoms: O_27  and  C_29 
REMARK    8  A    between atoms: C_29  and  C_28 
ROOT
ATOM      1  C   UNL d   1      61.139  46.291  50.454  0.00  0.00     0.737 A 
ATOM      2  N   UNL d   1      60.709  45.652  50.694  0.00  0.00    -0.041 NA
ATOM      3  C   UNL d   1      60.882  44.921  50.419  0.00  0.00     0.182 A 
ATOM      4  N   UNL d   1      61.749  46.192  49.935  0.00  0.00    -0.060 NA
ATOM      5  C   UNL d   1      61.490  44.819  49.901  0.00  0.00     0.055 A 
ATOM      6  C   UNL d   1      61.923  45.448  49.657  0.00  0.00     0.103 A 
ATOM      7  C   UNL d   1      61.661  44.083  49.628  0.00  0.00     0.005 A 
ATOM      8  C   UNL d   1      62.531  45.344  49.139  0.00  0.00     0.020 A 
ATOM      9  C   UNL d   1      62.260  43.983  49.117  0.00  0.00     0.000 A 
ATOM     10  C   UNL d   1      62.694  44.612  48.873  0.00  0.00     0.002 A 
ENDROOT
BRANCH   1  11
ATOM     11  N   UNL d   1      60.965  47.042  50.732  0.00  0.00    -0.134 N 
ATOM     12  C   UNL d   1      60.188  47.227  50.978  0.00  0.00     0.117 A 
ATOM     13  C   UNL d   1      60.015  47.983  51.258  0.00  0.00     0.100 A 
ATOM     14  N   UNL d   1      60.605  48.561  51.297  0.00  0.00    -0.298 N 
ATOM     15  C   UNL d   1      61.383  48.376  51.051  0.00  0.00     0.100 A 
ATOM     16  C   UNL d   1      61.555  47.617  50.771  0.00  0.00     0.117 A 
BRANCH  14  17
ATOM     17  C   UNL d   1      60.432  49.317  51.577  0.00  0.00     0.107 C 
BRANCH  17  18
ATOM     18  C   UNL d   1      59.723  49.689  51.369  0.00  0.00     0.142 C 
BRANCH  18  19
ATOM     19  O   UNL d   1      59.410  49.612  50.601  0.00  0.00    -0.304 OA
BRANCH  19  20
ATOM     20  C   UNL d   1      58.598  49.635  50.471  0.00  0.00     0.100 A 
ATOM     21  C   UNL d   1      58.074  49.684  51.117  0.00  0.00     0.025 A 
ATOM     22  C   UNL d   1      57.261  49.707  50.983  0.00  0.00     0.002 A 
ATOM     23  C   UNL d   1      56.958  49.681  50.205  0.00  0.00     0.000 A 
ATOM     24  C   UNL d   1      57.483  49.632  49.560  0.00  0.00     0.002 A 
ATOM     25  C   UNL d   1      56.135  49.704  50.075  0.00  0.00     0.000 C 
ATOM     26  C   UNL d   1      58.308  49.609  49.700  0.00  0.00     0.025 A 
ENDBRANCH  19  20
ENDBRANCH  18  19
ENDBRANCH  17  18
ENDBRANCH  14  17
ENDBRANCH   1  11
BRANCH   3  27
ATOM     27  N   UNL d   1      60.454  44.300  50.660  0.00  0.00    -0.223 NA
BRANCH  27  28
ATOM     28  C   UNL d   1      59.701  44.262  50.509  0.00  0.00     0.125 C 
BRANCH  28  29
ATOM     29  C   UNL d   1      59.022  43.919  50.023  0.00  0.00     0.119 A 
ATOM     30  O   UNL d   1      58.038  43.591  50.068  0.00  0.00    -0.304 OA
ATOM     31  C   UNL d   1      57.753  43.271  49.079  0.00  0.00     0.123 A 
ATOM     32  C   UNL d   1      58.551  43.490  48.831  0.00  0.00     0.029 A 
ATOM     33  C   UNL d   1      59.085  43.759  49.214  0.00  0.00     0.028 A 
ENDBRANCH  28  29
ENDBRANCH  27  28
ENDBRANCH   3  27
TORSDOF 8
ENDMDL
