MODEL 1
REMARK VINA RESULT:      -4.2      0.000      0.000
REMARK  5 active torsions:
REMARK  status: ('A' for Active; 'I' for Inactive)
REMARK    1  A    between atoms: C_2  and  S_1 
REMARK    2  A    between atoms: N_5  and  S_1 
REMARK    3  A    between atoms: O_14  and  C_4 
REMARK    4  A    between atoms: C_11  and  N_5 
REMARK    5  A    between atoms: C_15  and  C_11 
ROOT
ATOM      1  C   UNL d   1      56.638   0.050  32.498  0.00  0.00     0.128 A 
ATOM      2  C   UNL d   1      55.831  -0.076  32.600  0.00  0.00     0.026 A 
ATOM      3  C   UNL d   1      57.081   0.383  33.107  0.00  0.00     0.106 A 
ATOM      4  C   UNL d   1      55.467   0.131  33.311  0.00  0.00     0.059 A 
ATOM      5  C   UNL d   1      56.717   0.590  33.818  0.00  0.00     0.026 A 
ATOM      6  C   UNL d   1      55.909   0.464  33.920  0.00  0.00     0.013 A 
ATOM      7 CL   UNL d   1      54.659   0.004  33.412  0.00  0.00    -0.082 Cl
ATOM      8  C   UNL d   1      55.544   0.670  34.631  0.00  0.00     0.001 C 
ENDROOT
BRANCH   1   9
ATOM      9  S   UNL d   1      57.002  -0.156  31.788  0.00  0.00     0.287 S 
ATOM     10  O   UNL d   1      56.999  -0.949  32.017  0.00  0.00    -0.198 OA
ATOM     11  O   UNL d   1      57.005   0.636  31.559  0.00  0.00    -0.198 OA
BRANCH   9  12
ATOM     12  N   UNL d   1      57.366  -0.363  31.077  0.00  0.00    -0.155 NA
BRANCH  12  13
ATOM     13  C   UNL d   1      57.692   0.220  30.595  0.00  0.00     0.137 C 
BRANCH  13  14
ATOM     14  C   UNL d   1      58.110   0.010  29.916  0.00  0.00     0.120 A 
ATOM     15  O   UNL d   1      58.621  -0.633  29.838  0.00  0.00    -0.304 OA
ATOM     16  C   UNL d   1      58.916  -0.634  29.074  0.00  0.00     0.123 A 
ATOM     17  C   UNL d   1      58.593   0.006  28.665  0.00  0.00     0.029 A 
ATOM     18  C   UNL d   1      58.094   0.402  29.193  0.00  0.00     0.028 A 
ENDBRANCH  13  14
ENDBRANCH  12  13
ENDBRANCH   9  12
ENDBRANCH   1   9
BRANCH   3  19
ATOM     19  O   UNL d   1      57.892   0.511  33.007  0.00  0.00    -0.327 OA
ATOM     20  C   UNL d   1      58.365   0.682  33.658  0.00  0.00     0.181 C 
ENDBRANCH   3  19
TORSDOF 5
ENDMDL
MODEL 2
REMARK VINA RESULT:      -3.6      1.811      4.316
REMARK  5 active torsions:
REMARK  status: ('A' for Active; 'I' for Inactive)
REMARK    1  A    between atoms: C_2  and  S_1 
REMARK    2  A    between atoms: N_5  and  S_1 
REMARK    3  A    between atoms: O_14  and  C_4 
REMARK    4  A    between atoms: C_11  and  N_5 
REMARK    5  A    between atoms: C_15  and  C_11 
ROOT
ATOM      1  C   UNL d   1      58.340  -0.654  30.094  0.00  0.00     0.128 A 
ATOM      2  C   UNL d   1      58.166  -1.351  29.694  0.00  0.00     0.026 A 
ATOM      3  C   UNL d   1      59.050  -0.263  29.950  0.00  0.00     0.106 A 
ATOM      4  C   UNL d   1      58.703  -1.659  29.147  0.00  0.00     0.059 A 
ATOM      5  C   UNL d   1      59.587  -0.571  29.403  0.00  0.00     0.026 A 
ATOM      6  C   UNL d   1      59.413  -1.269  29.002  0.00  0.00     0.013 A 
ATOM      7 CL   UNL d   1      58.529  -2.357  28.746  0.00  0.00    -0.082 Cl
ATOM      8  C   UNL d   1      59.949  -1.576  28.455  0.00  0.00     0.001 C 
ENDROOT
BRANCH   1   9
ATOM      9  S   UNL d   1      57.804  -0.347  30.641  0.00  0.00     0.287 S 
ATOM     10  O   UNL d   1      57.936  -0.995  31.135  0.00  0.00    -0.198 OA
ATOM     11  O   UNL d   1      57.672   0.300  30.147  0.00  0.00    -0.198 OA
BRANCH   9  12
ATOM     12  N   UNL d   1      57.267  -0.040  31.187  0.00  0.00    -0.155 NA
BRANCH  12  13
ATOM     13  C   UNL d   1      56.985  -0.513  31.800  0.00  0.00     0.137 C 
BRANCH  13  14
ATOM     14  C   UNL d   1      56.551  -0.177  32.415  0.00  0.00     0.120 A 
ATOM     15  O   UNL d   1      56.848   0.306  33.014  0.00  0.00    -0.304 OA
ATOM     16  C   UNL d   1      56.227   0.515  33.506  0.00  0.00     0.123 A 
ATOM     17  C   UNL d   1      55.536   0.165  33.221  0.00  0.00     0.029 A 
ATOM     18  C   UNL d   1      55.743  -0.263  32.544  0.00  0.00     0.028 A 
ENDBRANCH  13  14
ENDBRANCH  12  13
ENDBRANCH   9  12
ENDBRANCH   1   9
BRANCH   3  19
ATOM     19  O   UNL d   1      59.227   0.437  30.351  0.00  0.00    -0.327 OA
ATOM     20  C   UNL d   1      60.009   0.682  30.429  0.00  0.00     0.181 C 
ENDBRANCH   3  19
TORSDOF 5
ENDMDL
MODEL 3
REMARK VINA RESULT:      -1.4      2.035      4.661
REMARK  5 active torsions:
REMARK  status: ('A' for Active; 'I' for Inactive)
REMARK    1  A    between atoms: C_2  and  S_1 
REMARK    2  A    between atoms: N_5  and  S_1 
REMARK    3  A    between atoms: O_14  and  C_4 
REMARK    4  A    between atoms: C_11  and  N_5 
REMARK    5  A    between atoms: C_15  and  C_11 
ROOT
ATOM      1  C   UNL d   1      58.820  -0.268  29.802  0.00  0.00     0.128 A 
ATOM      2  C   UNL d   1      59.455   0.206  30.024  0.00  0.00     0.026 A 
ATOM      3  C   UNL d   1      58.877  -0.742  29.131  0.00  0.00     0.106 A 
ATOM      4  C   UNL d   1      60.147   0.207  29.575  0.00  0.00     0.059 A 
ATOM      5  C   UNL d   1      59.569  -0.741  28.682  0.00  0.00     0.026 A 
ATOM      6  C   UNL d   1      60.204  -0.266  28.904  0.00  0.00     0.013 A 
ATOM      7 CL   UNL d   1      60.782   0.682  29.798  0.00  0.00    -0.082 Cl
ATOM      8  C   UNL d   1      60.896  -0.265  28.455  0.00  0.00     0.001 C 
ENDROOT
BRANCH   1   9
ATOM      9  S   UNL d   1      58.128  -0.270  30.251  0.00  0.00     0.287 S 
ATOM     10  O   UNL d   1      57.772   0.235  29.705  0.00  0.00    -0.198 OA
ATOM     11  O   UNL d   1      58.484  -0.775  30.798  0.00  0.00    -0.198 OA
BRANCH   9  12
ATOM     12  N   UNL d   1      57.436  -0.271  30.701  0.00  0.00    -0.155 NA
BRANCH  12  13
ATOM     13  C   UNL d   1      57.465  -0.095  31.505  0.00  0.00     0.137 C 
BRANCH  13  14
ATOM     14  C   UNL d   1      56.817  -0.259  31.988  0.00  0.00     0.120 A 
ATOM     15  O   UNL d   1      56.481  -1.002  32.116  0.00  0.00    -0.304 OA
ATOM     16  C   UNL d   1      55.852  -0.911  32.632  0.00  0.00     0.123 A 
ATOM     17  C   UNL d   1      55.787  -0.113  32.833  0.00  0.00     0.029 A 
ATOM     18  C   UNL d   1      56.388   0.286  32.430  0.00  0.00     0.028 A 
ENDBRANCH  13  14
ENDBRANCH  12  13
ENDBRANCH   9  12
ENDBRANCH   1   9
BRANCH   3  19
ATOM     19  O   UNL d   1      58.240  -1.220  28.906  0.00  0.00    -0.327 OA
ATOM     20  C   UNL d   1      58.371  -1.895  28.455  0.00  0.00     0.181 C 
ENDBRANCH   3  19
TORSDOF 5
ENDMDL
