MODEL 1
REMARK VINA RESULT:      44.5      0.000      0.000
REMARK  3 active torsions:
REMARK  status: ('A' for Active; 'I' for Inactive)
REMARK    1  A    between atoms: C_9  and  C_4 
REMARK    2  A    between atoms: C_10  and  C_7 
REMARK    3  A    between atoms: C_13  and  C_10 
ROOT
ATOM      1  C   UNL d   1      45.718 -16.751  44.026  0.00  0.00     0.179 A 
ATOM      2  N   UNL d   1      46.209 -16.737  44.696  0.00  0.00    -0.282 N 
ATOM      3  N   UNL d   1      45.464 -15.985  43.875  0.00  0.00    -0.221 NA
ATOM      4  C   UNL d   1      45.797 -15.488  44.457  0.00  0.00     0.101 A 
ATOM      5  S   UNL d   1      45.670 -17.530  43.760  0.00  0.00    -0.048 SA
ATOM      6  C   UNL d   1      46.251 -15.955  44.955  0.00  0.00     0.101 A 
ATOM      7  C   UNL d   1      46.130 -17.997  44.267  0.00  0.00     0.050 A 
ATOM      8  C   UNL d   1      46.455 -17.509  44.834  0.00  0.00     0.089 A 
ENDROOT
BRANCH   7   9
ATOM      9  C   UNL d   1      46.232 -18.816  44.196  0.00  0.00     0.008 C 
BRANCH   9  10
ATOM     10  C   UNL d   1      46.335 -19.162  43.462  0.00  0.00     0.001 A 
ATOM     11  C   UNL d   1      46.539 -18.690  42.807  0.00  0.00     0.002 A 
ATOM     12  C   UNL d   1      46.644 -19.042  42.064  0.00  0.00     0.030 A 
ATOM     13  C   UNL d   1      46.546 -19.855  41.972  0.00  0.00     0.140 A 
ATOM     14  C   UNL d   1      46.343 -20.324  42.621  0.00  0.00     0.030 A 
ATOM     15  F   UNL d   1      46.646 -20.217  41.242  0.00  0.00    -0.204 F 
ATOM     16  C   UNL d   1      46.239 -19.975  43.364  0.00  0.00     0.002 A 
ENDBRANCH   9  10
ENDBRANCH   7   9
BRANCH   4  17
ATOM     17  C   UNL d   1      45.686 -14.678  44.513  0.00  0.00     0.019 A 
ATOM     18  C   UNL d   1      45.011 -14.342  44.192  0.00  0.00     0.004 A 
ATOM     19  C   UNL d   1      44.887 -13.524  44.242  0.00  0.00     0.030 A 
ATOM     20  C   UNL d   1      45.451 -13.049  44.619  0.00  0.00     0.140 A 
ATOM     21  C   UNL d   1      46.127 -13.385  44.940  0.00  0.00     0.030 A 
ATOM     22  F   UNL d   1      45.486 -12.239  44.755  0.00  0.00    -0.204 F 
ATOM     23  C   UNL d   1      46.249 -14.198  44.890  0.00  0.00     0.004 A 
ENDBRANCH   4  17
TORSDOF 3
ENDMDL
MODEL 2
REMARK VINA RESULT:      44.9      4.124      5.336
REMARK  3 active torsions:
REMARK  status: ('A' for Active; 'I' for Inactive)
REMARK    1  A    between atoms: C_9  and  C_4 
REMARK    2  A    between atoms: C_10  and  C_7 
REMARK    3  A    between atoms: C_13  and  C_10 
ROOT
ATOM      1  C   UNL d   1      46.117 -17.624  39.500  0.00  0.00     0.179 A 
ATOM      2  N   UNL d   1      45.350 -17.894  39.672  0.00  0.00    -0.282 N 
ATOM      3  N   UNL d   1      46.066 -17.056  38.910  0.00  0.00    -0.221 NA
ATOM      4  C   UNL d   1      45.261 -16.969  38.710  0.00  0.00     0.101 A 
ATOM      5  S   UNL d   1      46.646 -18.028  39.988  0.00  0.00    -0.048 SA
ATOM      6  C   UNL d   1      44.829 -17.485  39.180  0.00  0.00     0.101 A 
ATOM      7  C   UNL d   1      46.204 -18.547  40.460  0.00  0.00     0.050 A 
ATOM      8  C   UNL d   1      45.418 -18.460  40.263  0.00  0.00     0.089 A 
ENDROOT
BRANCH   7   9
ATOM      9  C   UNL d   1      46.522 -19.058  41.029  0.00  0.00     0.008 C 
BRANCH   9  10
ATOM     10  C   UNL d   1      46.442 -18.895  41.827  0.00  0.00     0.001 A 
ATOM     11  C   UNL d   1      46.157 -19.483  42.343  0.00  0.00     0.002 A 
ATOM     12  C   UNL d   1      46.076 -19.316  43.151  0.00  0.00     0.030 A 
ATOM     13  C   UNL d   1      46.278 -18.572  43.443  0.00  0.00     0.140 A 
ATOM     14  C   UNL d   1      46.561 -17.988  42.932  0.00  0.00     0.030 A 
ATOM     15  F   UNL d   1      46.204 -18.392  44.241  0.00  0.00    -0.204 F 
ATOM     16  C   UNL d   1      46.642 -18.153  42.125  0.00  0.00     0.002 A 
ENDBRANCH   9  10
ENDBRANCH   7   9
BRANCH   4  17
ATOM     17  C   UNL d   1      44.962 -16.458  38.143  0.00  0.00     0.019 A 
ATOM     18  C   UNL d   1      45.481 -16.020  37.684  0.00  0.00     0.004 A 
ATOM     19  C   UNL d   1      45.191 -15.500  37.107  0.00  0.00     0.030 A 
ATOM     20  C   UNL d   1      44.373 -15.426  37.000  0.00  0.00     0.140 A 
ATOM     21  C   UNL d   1      43.854 -15.863  37.460  0.00  0.00     0.030 A 
ATOM     22  F   UNL d   1      43.926 -14.966  36.486  0.00  0.00    -0.204 F 
ATOM     23  C   UNL d   1      44.143 -16.380  38.032  0.00  0.00     0.004 A 
ENDBRANCH   4  17
TORSDOF 3
ENDMDL
MODEL 3
REMARK VINA RESULT:      45.0      4.534      6.295
REMARK  3 active torsions:
REMARK  status: ('A' for Active; 'I' for Inactive)
REMARK    1  A    between atoms: C_9  and  C_4 
REMARK    2  A    between atoms: C_10  and  C_7 
REMARK    3  A    between atoms: C_13  and  C_10 
ROOT
ATOM      1  C   UNL d   1      44.783 -17.464  39.672  0.00  0.00     0.179 A 
ATOM      2  N   UNL d   1      45.524 -17.542  39.304  0.00  0.00    -0.282 N 
ATOM      3  N   UNL d   1      44.824 -17.813  40.414  0.00  0.00    -0.221 NA
ATOM      4  C   UNL d   1      45.598 -18.111  40.512  0.00  0.00     0.101 A 
ATOM      5  S   UNL d   1      44.280 -17.065  39.154  0.00  0.00    -0.048 SA
ATOM      6  C   UNL d   1      46.019 -17.942  39.829  0.00  0.00     0.101 A 
ATOM      7  C   UNL d   1      44.712 -16.897  38.467  0.00  0.00     0.050 A 
ATOM      8  C   UNL d   1      45.467 -17.189  38.565  0.00  0.00     0.089 A 
ENDROOT
BRANCH   7   9
ATOM      9  C   UNL d   1      44.413 -16.499  37.804  0.00  0.00     0.008 C 
BRANCH   9  10
ATOM     10  C   UNL d   1      44.824 -15.873  37.473  0.00  0.00     0.001 A 
ATOM     11  C   UNL d   1      45.299 -15.998  36.801  0.00  0.00     0.002 A 
ATOM     12  C   UNL d   1      45.715 -15.363  36.468  0.00  0.00     0.030 A 
ATOM     13  C   UNL d   1      45.658 -14.610  36.800  0.00  0.00     0.140 A 
ATOM     14  C   UNL d   1      45.186 -14.485  37.466  0.00  0.00     0.030 A 
ATOM     15  F   UNL d   1      46.063 -13.972  36.480  0.00  0.00    -0.204 F 
ATOM     16  C   UNL d   1      44.771 -15.118  37.801  0.00  0.00     0.002 A 
ENDBRANCH   9  10
ENDBRANCH   7   9
BRANCH   4  17
ATOM     17  C   UNL d   1      45.878 -18.503  41.175  0.00  0.00     0.019 A 
ATOM     18  C   UNL d   1      46.357 -19.162  41.079  0.00  0.00     0.004 A 
ATOM     19  C   UNL d   1      46.647 -19.567  41.742  0.00  0.00     0.030 A 
ATOM     20  C   UNL d   1      46.449 -19.300  42.500  0.00  0.00     0.140 A 
ATOM     21  C   UNL d   1      45.970 -18.641  42.596  0.00  0.00     0.030 A 
ATOM     22  F   UNL d   1      46.646 -19.577  43.249  0.00  0.00    -0.204 F 
ATOM     23  C   UNL d   1      45.683 -18.240  41.937  0.00  0.00     0.004 A 
ENDBRANCH   4  17
TORSDOF 3
ENDMDL
