MODEL 1
REMARK VINA RESULT:      93.5      0.000      0.000
REMARK  5 active torsions:
REMARK  status: ('A' for Active; 'I' for Inactive)
REMARK    1  A    between atoms: C_2  and  S_1 
REMARK    2  A    between atoms: C_9  and  S_1 
REMARK    3  A    between atoms: N_5  and  C_3 
REMARK    4  A    between atoms: O_28  and  C_23 
REMARK    5  A    between atoms: O_29  and  C_24 
ROOT
ATOM      1  C   UNL d   1      43.976 -16.174  36.568  0.00  0.00     0.123 A 
ATOM      2  C   UNL d   1      44.120 -15.415  36.852  0.00  0.00     0.078 A 
ATOM      3  C   UNL d   1      44.893 -15.134  36.897  0.00  0.00     0.036 A 
ATOM      4  C   UNL d   1      44.604 -16.653  36.330  0.00  0.00     0.112 A 
ATOM      5  N   UNL d   1      45.376 -16.372  36.375  0.00  0.00    -0.243 NA
ATOM      6  C   UNL d   1      45.521 -15.612  36.659  0.00  0.00     0.083 A 
ATOM      7  C   UNL d   1      45.036 -14.375  37.180  0.00  0.00     0.027 A 
ATOM      8  C   UNL d   1      46.293 -15.332  36.704  0.00  0.00     0.021 A 
ATOM      9  C   UNL d   1      45.810 -14.094  37.226  0.00  0.00     0.094 A 
ATOM     10  C   UNL d   1      46.438 -14.572  36.987  0.00  0.00     0.026 A 
ENDROOT
BRANCH   1  11
ATOM     11  S   UNL d   1      43.195 -16.464  36.521  0.00  0.00     0.213 S 
ATOM     12  O   UNL d   1      42.901 -15.691  36.633  0.00  0.00    -0.217 OA
ATOM     13  O   UNL d   1      43.488 -17.232  36.408  0.00  0.00    -0.217 OA
BRANCH  11  14
ATOM     14  C   UNL d   1      42.414 -16.752  36.473  0.00  0.00     0.088 A 
ATOM     15  C   UNL d   1      42.283 -17.563  36.382  0.00  0.00     0.013 A 
ATOM     16  C   UNL d   1      41.514 -17.853  36.334  0.00  0.00     0.025 A 
ATOM     17  C   UNL d   1      40.865 -17.328  36.378  0.00  0.00     0.094 A 
ATOM     18  C   UNL d   1      41.009 -16.513  36.470  0.00  0.00     0.025 A 
ATOM     19  C   UNL d   1      41.776 -16.230  36.517  0.00  0.00     0.013 A 
BRANCH  17  20
ATOM     20  O   UNL d   1      40.088 -17.619  36.330  0.00  0.00    -0.328 OA
ATOM     21  C   UNL d   1      39.595 -17.594  36.991  0.00  0.00     0.181 C 
ENDBRANCH  17  20
ENDBRANCH  11  14
ENDBRANCH   1  11
BRANCH   2  22
ATOM     22  N   UNL d   1      43.491 -14.936  37.090  0.00  0.00    -0.303 N 
ATOM     23  C   UNL d   1      42.961 -14.643  36.532  0.00  0.00     0.081 A 
ATOM     24  C   UNL d   1      42.326 -14.160  36.773  0.00  0.00     0.053 A 
ATOM     25  C   UNL d   1      42.229 -13.974  37.569  0.00  0.00     0.239 A 
ATOM     26  C   UNL d   1      42.762 -14.268  38.139  0.00  0.00     0.053 A 
ATOM     27  O   UNL d   1      42.058 -13.740  38.353  0.00  0.00    -0.298 OA
ATOM     28  O   UNL d   1      41.656 -13.641  37.080  0.00  0.00    -0.298 OA
ATOM     29  C   UNL d   1      43.396 -14.751  37.898  0.00  0.00     0.081 A 
ATOM     30  C   UNL d   1      41.379 -13.263  38.330  0.00  0.00     0.146 A 
ATOM     31  C   UNL d   1      41.132 -13.203  37.545  0.00  0.00     0.146 A 
ENDBRANCH   2  22
BRANCH   9  32
ATOM     32  O   UNL d   1      45.947 -13.330  37.511  0.00  0.00    -0.328 OA
ATOM     33  C   UNL d   1      46.646 -13.168  37.922  0.00  0.00     0.181 C 
ENDBRANCH   9  32
TORSDOF 5
ENDMDL
