MODEL 1
REMARK VINA RESULT:     156.0      0.000      0.000
REMARK  3 active torsions:
REMARK  status: ('A' for Active; 'I' for Inactive)
REMARK    1  A    between atoms: C_15  and  C_3 
REMARK    2  A    between atoms: C_10  and  N_4 
REMARK    3  A    between atoms: N_6  and  C_5 
ROOT
ATOM      1  C   UNL d   1      58.586  47.434  50.827  0.00  0.00     0.070 A 
ATOM      2  C   UNL d   1      59.323  47.713  51.036  0.00  0.00     0.152 A 
ATOM      3  C   UNL d   1      58.228  48.522  50.734  0.00  0.00     0.023 A 
ATOM      4  N   UNL d   1      59.563  48.435  51.107  0.00  0.00    -0.290 N 
ATOM      5  C   UNL d   1      58.450  46.633  50.784  0.00  0.00     0.153 A 
ATOM      6  C   UNL d   1      58.911  48.741  50.927  0.00  0.00     0.082 A 
ATOM      7  N   UNL d   1      59.925  47.190  51.201  0.00  0.00    -0.206 NA
ATOM      8  N   UNL d   1      59.052  46.110  50.950  0.00  0.00    -0.206 NA
ATOM      9  C   UNL d   1      59.789  46.388  51.158  0.00  0.00     0.202 A 
ENDROOT
BRANCH   5  10
ATOM     10  N   UNL d   1      57.689  46.350  50.569  0.00  0.00    -0.285 N 
ATOM     11  C   UNL d   1      57.241  45.915  51.119  0.00  0.00     0.106 A 
ATOM     12  C   UNL d   1      56.493  45.634  50.915  0.00  0.00     0.118 A 
ATOM     13  C   UNL d   1      56.034  45.194  51.466  0.00  0.00     0.028 C 
ATOM     14  O   UNL d   1      56.180  45.789  50.143  0.00  0.00    -0.304 OA
ATOM     15  C   UNL d   1      56.628  46.223  49.593  0.00  0.00     0.118 A 
ATOM     16  C   UNL d   1      57.387  46.505  49.807  0.00  0.00     0.106 A 
ATOM     17  C   UNL d   1      56.326  46.379  48.830  0.00  0.00     0.028 C 
ENDBRANCH   5  10
BRANCH   3  18
ATOM     18  C   UNL d   1      57.537  48.893  50.542  0.00  0.00     0.002 A 
ATOM     19  C   UNL d   1      56.968  49.024  51.108  0.00  0.00     0.000 A 
ATOM     20  C   UNL d   1      56.275  49.396  50.912  0.00  0.00     0.000 A 
ATOM     21  C   UNL d   1      56.136  49.647  50.143  0.00  0.00     0.000 A 
ATOM     22  C   UNL d   1      56.715  49.513  49.571  0.00  0.00     0.000 A 
ATOM     23  C   UNL d   1      57.410  49.139  49.771  0.00  0.00     0.000 A 
ENDBRANCH   3  18
BRANCH   4  24
ATOM     24  C   UNL d   1      60.300  48.752  51.316  0.00  0.00     0.066 A 
ATOM     25  C   UNL d   1      60.364  49.376  51.866  0.00  0.00     0.020 A 
ATOM     26  C   UNL d   1      61.101  49.693  52.075  0.00  0.00     0.031 A 
ATOM     27  C   UNL d   1      61.801  49.390  51.732  0.00  0.00     0.140 A 
ATOM     28  C   UNL d   1      61.757  48.766  51.179  0.00  0.00     0.031 A 
ATOM     29  F   UNL d   1      62.538  49.707  51.940  0.00  0.00    -0.204 F 
ATOM     30  C   UNL d   1      61.006  48.448  50.972  0.00  0.00     0.020 A 
ENDBRANCH   4  24
TORSDOF 3
ENDMDL
