MODEL 1
REMARK VINA RESULT:      28.5      0.000      0.000
REMARK  2 active torsions:
REMARK  status: ('A' for Active; 'I' for Inactive)
REMARK    1  A    between atoms: C_9  and  N_2 
REMARK    2  A    between atoms: C_7  and  C_4 
ROOT
ATOM      1  C   UNL d   1      46.232 -18.398  41.840  0.00  0.00     0.136 A 
ATOM      2  N   UNL d   1      46.186 -18.626  42.633  0.00  0.00    -0.282 N 
ATOM      3  C   UNL d   1      46.385 -18.969  41.260  0.00  0.00     0.152 A 
ATOM      4  C   UNL d   1      46.293 -19.425  42.844  0.00  0.00     0.158 A 
ATOM      5  N   UNL d   1      46.445 -19.989  42.259  0.00  0.00    -0.189 NA
ATOM      6  C   UNL d   1      46.491 -19.760  41.469  0.00  0.00     0.292 A 
ATOM      7  C   UNL d   1      46.431 -18.740  40.470  0.00  0.00     0.108 C 
ATOM      8  N   UNL d   1      46.477 -18.514  39.673  0.00  0.00    -0.191 NA
ATOM      9  S   UNL d   1      46.128 -17.609  41.624  0.00  0.00    -0.058 SA
ATOM     10  O   UNL d   1      46.643 -20.325  40.879  0.00  0.00    -0.264 OA
ENDROOT
BRANCH   2  11
ATOM     11  C   UNL d   1      46.035 -18.064  43.211  0.00  0.00     0.066 A 
ATOM     12  C   UNL d   1      46.598 -17.920  43.797  0.00  0.00     0.018 A 
ATOM     13  C   UNL d   1      46.444 -17.355  44.376  0.00  0.00     0.002 A 
ATOM     14  C   UNL d   1      45.732 -16.934  44.372  0.00  0.00     0.000 A 
ATOM     15  C   UNL d   1      45.168 -17.081  43.782  0.00  0.00     0.002 A 
ATOM     16  C   UNL d   1      45.578 -16.369  44.952  0.00  0.00     0.000 C 
ATOM     17  C   UNL d   1      45.322 -17.646  43.202  0.00  0.00     0.018 A 
ENDBRANCH   2  11
BRANCH   4  18
ATOM     18  C   UNL d   1      46.248 -19.654  43.634  0.00  0.00     0.064 A 
ATOM     19  S   UNL d   1      45.802 -20.276  43.930  0.00  0.00    -0.083 SA
ATOM     20  C   UNL d   1      45.921 -20.304  44.741  0.00  0.00     0.035 A 
ATOM     21  C   UNL d   1      46.439 -19.699  44.946  0.00  0.00     0.008 A 
ATOM     22  C   UNL d   1      46.645 -19.295  44.272  0.00  0.00     0.010 A 
ENDBRANCH   4  18
TORSDOF 2
ENDMDL
