MODEL 1
REMARK VINA RESULT:      12.1      0.000      0.000
REMARK  9 active torsions:
REMARK  status: ('A' for Active; 'I' for Inactive)
REMARK    1  A    between atoms: C_7  and  C_1 
REMARK    2  A    between atoms: C_9  and  N_2 
REMARK    3  A    between atoms: C_14  and  C_7 
REMARK    4  A    between atoms: C_8  and  C_9 
REMARK       I    between atoms: N_11  and  C_8 
REMARK    5  A    between atoms: C_10  and  N_11 
REMARK    6  A    between atoms: O_30  and  C_19 
REMARK    7  A    between atoms: O_31  and  C_20 
REMARK    8  A    between atoms: C_32  and  C_25 
REMARK    9  A    between atoms: C_33  and  C_29 
ROOT
ATOM      1  C   UNL d   1     -42.519-122.803 -50.804  0.00  0.00     0.095 A 
ATOM      2  N   UNL d   1     -41.683-122.674 -51.954  0.00  0.00    -0.300 N 
ATOM      3  C   UNL d   1     -42.475-121.962 -50.698  0.00  0.00     0.202 A 
ATOM      4  C   UNL d   1     -42.123-123.159 -51.432  0.00  0.00     0.087 A 
ATOM      5  C   UNL d   1     -42.028-121.498 -51.235  0.00  0.00     0.055 A 
ATOM      6  C   UNL d   1     -41.628-121.843 -51.867  0.00  0.00     0.067 A 
ATOM      7  C   UNL d   1     -41.193-121.369 -52.384  0.00  0.00     0.018 A 
ATOM      8  C   UNL d   1     -41.978-120.662 -51.138  0.00  0.00     0.005 A 
ATOM      9  O   UNL d   1     -42.865-121.611 -50.080  0.00  0.00    -0.286 OA
ATOM     10  C   UNL d   1     -41.540-120.201 -51.663  0.00  0.00     0.000 A 
ATOM     11  C   UNL d   1     -41.150-120.551 -52.281  0.00  0.00     0.002 A 
ENDROOT
BRANCH   2  12
ATOM     12  C   UNL d   1     -41.288-123.030 -52.581  0.00  0.00     0.144 C 
BRANCH  12  13
ATOM     13  C   UNL d   1     -41.599-122.987 -53.340  0.00  0.00     0.297 C 
ATOM     14  N   UNL d   1     -41.337-122.406 -53.861  0.00  0.00    -0.207 NA
ATOM     15  O   UNL d   1     -42.171-123.526 -53.579  0.00  0.00    -0.264 OA
BRANCH  14  16
ATOM     16  C   UNL d   1     -41.653-122.366 -54.626  0.00  0.00     0.089 A 
ATOM     17  C   UNL d   1     -41.250-121.966 -55.209  0.00  0.00     0.043 A 
ATOM     18  C   UNL d   1     -41.556-121.923 -55.964  0.00  0.00     0.098 A 
ATOM     19  C   UNL d   1     -42.284-122.291 -56.141  0.00  0.00     0.049 A 
ATOM     20  C   UNL d   1     -42.687-122.694 -55.550  0.00  0.00     0.098 A 
ATOM     21  C   UNL d   1     -42.372-122.734 -54.784  0.00  0.00     0.043 A 
BRANCH  18  22
ATOM     22  O   UNL d   1     -41.153-121.521 -56.552  0.00  0.00    -0.328 OA
ATOM     23  C   UNL d   1     -41.543-120.947 -56.995  0.00  0.00     0.181 C 
ENDBRANCH  18  22
BRANCH  20  24
ATOM     24  O   UNL d   1     -43.395-123.054 -55.713  0.00  0.00    -0.328 OA
ATOM     25  C   UNL d   1     -44.072-122.601 -55.821  0.00  0.00     0.181 C 
ENDBRANCH  20  24
ENDBRANCH  14  16
ENDBRANCH  12  13
ENDBRANCH   2  12
BRANCH   1  26
ATOM     26  C   UNL d   1     -42.959-123.268 -50.278  0.00  0.00     0.200 C 
ATOM     27  O   UNL d   1     -43.674-123.594 -50.520  0.00  0.00    -0.286 OA
BRANCH  26  28
ATOM     28  C   UNL d   1     -42.681-123.404 -49.513  0.00  0.00     0.039 A 
ATOM     29  C   UNL d   1     -43.209-123.414 -48.870  0.00  0.00     0.003 A 
ATOM     30  C   UNL d   1     -42.934-123.551 -48.096  0.00  0.00     0.000 A 
ATOM     31  C   UNL d   1     -42.131-123.679 -47.966  0.00  0.00     0.000 A 
ATOM     32  C   UNL d   1     -41.614-123.666 -48.624  0.00  0.00     0.000 A 
ATOM     33  C   UNL d   1     -41.889-123.529 -49.398  0.00  0.00     0.003 A 
BRANCH  31  34
ATOM     34  C   UNL d   1     -41.868-123.814 -47.195  0.00  0.00     0.000 C 
ATOM     35  C   UNL d   1     -41.466-123.207 -46.812  0.00  0.00     0.000 C 
ENDBRANCH  31  34
ENDBRANCH  26  28
ENDBRANCH   1  26
BRANCH  10  36
ATOM     36  C   UNL d   1     -41.501-119.385 -51.556  0.00  0.00     0.000 C 
ATOM     37  C   UNL d   1     -41.413-118.883 -52.212  0.00  0.00     0.000 C 
ENDBRANCH  10  36
TORSDOF 9
ENDMDL
