MODEL 1
REMARK VINA RESULT:      -3.2      0.000      0.000
REMARK  4 active torsions:
REMARK  status: ('A' for Active; 'I' for Inactive)
REMARK    1  A    between atoms: C_3  and  C_1 
REMARK    2  A    between atoms: C_2  and  C_3 
REMARK    3  A    between atoms: C_6  and  C_2 
REMARK    4  A    between atoms: C_16  and  C_6 
ROOT
ATOM      1  C   UNL d   1      32.480  21.762 -20.931  0.00  0.00     0.119 A 
ATOM      2  C   UNL d   1      32.702  22.331 -21.478  0.00  0.00     0.119 A 
ATOM      3  O   UNL d   1      32.114  22.145 -20.299  0.00  0.00    -0.300 OA
ATOM      4  O   UNL d   1      32.473  23.068 -21.186  0.00  0.00    -0.300 OA
ATOM      5  C   UNL d   1      32.114  22.953 -20.465  0.00  0.00     0.304 A 
ATOM      6  C   UNL d   1      32.637  20.974 -21.074  0.00  0.00     0.026 A 
ATOM      7  C   UNL d   1      33.021  20.747 -21.773  0.00  0.00     0.002 A 
ATOM      8  C   UNL d   1      33.080  22.111 -22.167  0.00  0.00     0.026 A 
ATOM      9  C   UNL d   1      33.241  21.310 -22.314  0.00  0.00     0.002 A 
ENDROOT
BRANCH   7  10
ATOM     10  C   UNL d   1      33.187  19.949 -21.931  0.00  0.00     0.003 C 
BRANCH  10  11
ATOM     11  C   UNL d   1      32.868  19.587 -22.604  0.00  0.00     0.044 C 
BRANCH  11  12
ATOM     12  C   UNL d   1      32.926  18.764 -22.697  0.00  0.00     0.213 C 
ATOM     13  O   UNL d   1      33.241  18.306 -22.100  0.00  0.00    -0.285 OA
BRANCH  12  14
ATOM     14  C   UNL d   1      32.664  18.405 -23.398  0.00  0.00     0.120 A 
ATOM     15  N   UNL d   1      32.077  17.833 -23.375  0.00  0.00    -0.241 NA
ATOM     16  C   UNL d   1      31.935  17.579 -24.150  0.00  0.00     0.099 A 
ATOM     17  C   UNL d   1      32.440  18.002 -24.645  0.00  0.00     0.022 A 
ATOM     18  C   UNL d   1      32.886  18.506 -24.191  0.00  0.00     0.024 A 
ENDBRANCH  12  14
ENDBRANCH  11  12
ENDBRANCH  10  11
ENDBRANCH   7  10
TORSDOF 4
ENDMDL
MODEL 2
REMARK VINA RESULT:      -3.1      2.864      5.347
REMARK  4 active torsions:
REMARK  status: ('A' for Active; 'I' for Inactive)
REMARK    1  A    between atoms: C_3  and  C_1 
REMARK    2  A    between atoms: C_2  and  C_3 
REMARK    3  A    between atoms: C_6  and  C_2 
REMARK    4  A    between atoms: C_16  and  C_6 
ROOT
ATOM      1  C   UNL d   1      29.560  15.948 -23.644  0.00  0.00     0.119 A 
ATOM      2  C   UNL d   1      29.159  16.275 -24.279  0.00  0.00     0.119 A 
ATOM      3  O   UNL d   1      29.024  15.499 -23.207  0.00  0.00    -0.300 OA
ATOM      4  O   UNL d   1      28.372  16.030 -24.237  0.00  0.00    -0.300 OA
ATOM      5  C   UNL d   1      28.291  15.555 -23.581  0.00  0.00     0.304 A 
ATOM      6  C   UNL d   1      30.357  16.097 -23.542  0.00  0.00     0.026 A 
ATOM      7  C   UNL d   1      30.761  16.580 -24.081  0.00  0.00     0.002 A 
ATOM      8  C   UNL d   1      29.554  16.751 -24.812  0.00  0.00     0.026 A 
ATOM      9  C   UNL d   1      30.363  16.904 -24.710  0.00  0.00     0.002 A 
ENDROOT
BRANCH   7  10
ATOM     10  C   UNL d   1      31.570  16.740 -23.990  0.00  0.00     0.003 C 
BRANCH  10  11
ATOM     11  C   UNL d   1      31.817  17.486 -23.728  0.00  0.00     0.044 C 
BRANCH  11  12
ATOM     12  C   UNL d   1      32.618  17.623 -23.563  0.00  0.00     0.213 C 
ATOM     13  O   UNL d   1      33.168  17.032 -23.687  0.00  0.00    -0.285 OA
BRANCH  12  14
ATOM     14  C   UNL d   1      32.864  18.360 -23.271  0.00  0.00     0.120 A 
ATOM     15  N   UNL d   1      33.006  18.460 -22.470  0.00  0.00    -0.241 NA
ATOM     16  C   UNL d   1      33.241  19.245 -22.347  0.00  0.00     0.099 A 
ATOM     17  C   UNL d   1      33.241  19.620 -23.081  0.00  0.00     0.022 A 
ATOM     18  C   UNL d   1      33.012  19.084 -23.646  0.00  0.00     0.024 A 
ENDBRANCH  12  14
ENDBRANCH  11  12
ENDBRANCH  10  11
ENDBRANCH   7  10
TORSDOF 4
ENDMDL
MODEL 3
REMARK VINA RESULT:      -3.0      1.305      2.043
REMARK  4 active torsions:
REMARK  status: ('A' for Active; 'I' for Inactive)
REMARK    1  A    between atoms: C_3  and  C_1 
REMARK    2  A    between atoms: C_2  and  C_3 
REMARK    3  A    between atoms: C_6  and  C_2 
REMARK    4  A    between atoms: C_16  and  C_6 
ROOT
ATOM      1  C   UNL d   1      33.140  19.969 -21.727  0.00  0.00     0.119 A 
ATOM      2  C   UNL d   1      33.191  20.628 -22.213  0.00  0.00     0.119 A 
ATOM      3  O   UNL d   1      33.096  20.231 -20.947  0.00  0.00    -0.300 OA
ATOM      4  O   UNL d   1      33.178  21.299 -21.735  0.00  0.00    -0.300 OA
ATOM      5  C   UNL d   1      33.121  21.056 -20.961  0.00  0.00     0.304 A 
ATOM      6  C   UNL d   1      33.140  19.220 -22.052  0.00  0.00     0.026 A 
ATOM      7  C   UNL d   1      33.191  19.123 -22.873  0.00  0.00     0.002 A 
ATOM      8  C   UNL d   1      33.241  20.535 -23.023  0.00  0.00     0.026 A 
ATOM      9  C   UNL d   1      33.241  19.775 -23.355  0.00  0.00     0.002 A 
ENDROOT
BRANCH   7  10
ATOM     10  C   UNL d   1      33.191  18.368 -23.217  0.00  0.00     0.003 C 
BRANCH  10  11
ATOM     11  C   UNL d   1      32.476  17.969 -23.340  0.00  0.00     0.044 C 
BRANCH  11  12
ATOM     12  C   UNL d   1      32.474  17.225 -23.706  0.00  0.00     0.213 C 
ATOM     13  O   UNL d   1      33.180  16.873 -23.920  0.00  0.00    -0.285 OA
BRANCH  12  14
ATOM     14  C   UNL d   1      31.757  16.835 -23.856  0.00  0.00     0.120 A 
ATOM     15  N   UNL d   1      31.445  16.317 -23.302  0.00  0.00    -0.241 NA
ATOM     16  C   UNL d   1      30.734  16.017 -23.603  0.00  0.00     0.099 A 
ATOM     17  C   UNL d   1      30.618  16.356 -24.345  0.00  0.00     0.022 A 
ATOM     18  C   UNL d   1      31.238  16.855 -24.503  0.00  0.00     0.024 A 
ENDBRANCH  12  14
ENDBRANCH  11  12
ENDBRANCH  10  11
ENDBRANCH   7  10
TORSDOF 4
ENDMDL
MODEL 4
REMARK VINA RESULT:      -1.8      1.218      1.833
REMARK  4 active torsions:
REMARK  status: ('A' for Active; 'I' for Inactive)
REMARK    1  A    between atoms: C_3  and  C_1 
REMARK    2  A    between atoms: C_2  and  C_3 
REMARK    3  A    between atoms: C_6  and  C_2 
REMARK    4  A    between atoms: C_16  and  C_6 
ROOT
ATOM      1  C   UNL d   1      32.962  22.294 -19.797  0.00  0.00     0.119 A 
ATOM      2  C   UNL d   1      32.421  22.905 -19.877  0.00  0.00     0.119 A 
ATOM      3  O   UNL d   1      33.133  22.208 -18.995  0.00  0.00    -0.300 OA
ATOM      4  O   UNL d   1      32.257  23.200 -19.125  0.00  0.00    -0.300 OA
ATOM      5  C   UNL d   1      32.692  22.773 -18.586  0.00  0.00     0.304 A 
ATOM      6  C   UNL d   1      33.228  21.895 -20.458  0.00  0.00     0.026 A 
ATOM      7  C   UNL d   1      32.954  22.107 -21.211  0.00  0.00     0.002 A 
ATOM      8  C   UNL d   1      32.149  23.117 -20.617  0.00  0.00     0.026 A 
ATOM      9  C   UNL d   1      32.419  22.712 -21.290  0.00  0.00     0.002 A 
ENDROOT
BRANCH   7  10
ATOM     10  C   UNL d   1      33.216  21.710 -21.890  0.00  0.00     0.003 C 
BRANCH  10  11
ATOM     11  C   UNL d   1      33.140  20.887 -21.943  0.00  0.00     0.044 C 
BRANCH  11  12
ATOM     12  C   UNL d   1      33.110  20.521 -22.688  0.00  0.00     0.213 C 
ATOM     13  O   UNL d   1      33.182  20.969 -23.366  0.00  0.00    -0.285 OA
BRANCH  12  14
ATOM     14  C   UNL d   1      33.006  19.700 -22.745  0.00  0.00     0.120 A 
ATOM     15  N   UNL d   1      32.608  19.378 -23.385  0.00  0.00    -0.241 NA
ATOM     16  C   UNL d   1      32.592  18.555 -23.290  0.00  0.00     0.099 A 
ATOM     17  C   UNL d   1      32.984  18.380 -22.587  0.00  0.00     0.022 A 
ATOM     18  C   UNL d   1      33.238  19.075 -22.252  0.00  0.00     0.024 A 
ENDBRANCH  12  14
ENDBRANCH  11  12
ENDBRANCH  10  11
ENDBRANCH   7  10
TORSDOF 4
ENDMDL
MODEL 5
REMARK VINA RESULT:      -1.6      3.482      5.621
REMARK  4 active torsions:
REMARK  status: ('A' for Active; 'I' for Inactive)
REMARK    1  A    between atoms: C_3  and  C_1 
REMARK    2  A    between atoms: C_2  and  C_3 
REMARK    3  A    between atoms: C_6  and  C_2 
REMARK    4  A    between atoms: C_16  and  C_6 
ROOT
ATOM      1  C   UNL d   1      28.506  15.926 -23.352  0.00  0.00     0.119 A 
ATOM      2  C   UNL d   1      28.096  16.542 -23.706  0.00  0.00     0.119 A 
ATOM      3  O   UNL d   1      27.962  15.458 -22.946  0.00  0.00    -0.300 OA
ATOM      4  O   UNL d   1      27.298  16.457 -23.519  0.00  0.00    -0.300 OA
ATOM      5  C   UNL d   1      27.216  15.794 -23.054  0.00  0.00     0.304 A 
ATOM      6  C   UNL d   1      29.315  15.868 -23.444  0.00  0.00     0.026 A 
ATOM      7  C   UNL d   1      29.725  16.430 -23.894  0.00  0.00     0.002 A 
ATOM      8  C   UNL d   1      28.497  17.098 -24.150  0.00  0.00     0.026 A 
ATOM      9  C   UNL d   1      29.319  17.040 -24.244  0.00  0.00     0.002 A 
ENDROOT
BRANCH   7  10
ATOM     10  C   UNL d   1      30.547  16.383 -23.995  0.00  0.00     0.003 C 
BRANCH  10  11
ATOM     11  C   UNL d   1      31.049  16.831 -23.511  0.00  0.00     0.044 C 
BRANCH  11  12
ATOM     12  C   UNL d   1      31.866  16.837 -23.657  0.00  0.00     0.213 C 
ATOM     13  O   UNL d   1      32.207  16.242 -24.098  0.00  0.00    -0.285 OA
BRANCH  12  14
ATOM     14  C   UNL d   1      32.338  17.449 -23.354  0.00  0.00     0.120 A 
ATOM     15  N   UNL d   1      32.288  18.204 -23.669  0.00  0.00    -0.241 NA
ATOM     16  C   UNL d   1      32.819  18.690 -23.259  0.00  0.00     0.099 A 
ATOM     17  C   UNL d   1      33.193  18.223 -22.693  0.00  0.00     0.022 A 
ATOM     18  C   UNL d   1      32.903  17.466 -22.747  0.00  0.00     0.024 A 
ENDBRANCH  12  14
ENDBRANCH  11  12
ENDBRANCH  10  11
ENDBRANCH   7  10
TORSDOF 4
ENDMDL
MODEL 6
REMARK VINA RESULT:      -1.5      1.786      4.435
REMARK  4 active torsions:
REMARK  status: ('A' for Active; 'I' for Inactive)
REMARK    1  A    between atoms: C_3  and  C_1 
REMARK    2  A    between atoms: C_2  and  C_3 
REMARK    3  A    between atoms: C_6  and  C_2 
REMARK    4  A    between atoms: C_16  and  C_6 
ROOT
ATOM      1  C   UNL d   1      33.233  19.118 -22.787  0.00  0.00     0.119 A 
ATOM      2  C   UNL d   1      33.219  18.930 -23.585  0.00  0.00     0.119 A 
ATOM      3  O   UNL d   1      33.239  18.413 -22.359  0.00  0.00    -0.300 OA
ATOM      4  O   UNL d   1      33.216  18.108 -23.653  0.00  0.00    -0.300 OA
ATOM      5  C   UNL d   1      33.228  17.793 -22.903  0.00  0.00     0.304 A 
ATOM      6  C   UNL d   1      33.239  19.900 -22.552  0.00  0.00     0.026 A 
ATOM      7  C   UNL d   1      33.231  20.505 -23.118  0.00  0.00     0.002 A 
ATOM      8  C   UNL d   1      33.211  19.524 -24.146  0.00  0.00     0.026 A 
ATOM      9  C   UNL d   1      33.217  20.319 -23.908  0.00  0.00     0.002 A 
ENDROOT
BRANCH   7  10
ATOM     10  C   UNL d   1      33.237  21.303 -22.892  0.00  0.00     0.003 C 
BRANCH  10  11
ATOM     11  C   UNL d   1      33.076  21.512 -22.106  0.00  0.00     0.044 C 
BRANCH  11  12
ATOM     12  C   UNL d   1      33.072  22.310 -21.883  0.00  0.00     0.213 C 
ATOM     13  O   UNL d   1      33.240  22.890 -22.433  0.00  0.00    -0.285 OA
BRANCH  12  14
ATOM     14  C   UNL d   1      32.896  22.524 -21.100  0.00  0.00     0.120 A 
ATOM     15  N   UNL d   1      33.101  23.266 -20.819  0.00  0.00    -0.241 NA
ATOM     16  C   UNL d   1      32.858  23.317 -20.029  0.00  0.00     0.099 A 
ATOM     17  C   UNL d   1      32.504  22.599 -19.833  0.00  0.00     0.022 A 
ATOM     18  C   UNL d   1      32.525  22.113 -20.483  0.00  0.00     0.024 A 
ENDBRANCH  12  14
ENDBRANCH  11  12
ENDBRANCH  10  11
ENDBRANCH   7  10
TORSDOF 4
ENDMDL
MODEL 7
REMARK VINA RESULT:      -1.4      2.636      5.278
REMARK  4 active torsions:
REMARK  status: ('A' for Active; 'I' for Inactive)
REMARK    1  A    between atoms: C_3  and  C_1 
REMARK    2  A    between atoms: C_2  and  C_3 
REMARK    3  A    between atoms: C_6  and  C_2 
REMARK    4  A    between atoms: C_16  and  C_6 
ROOT
ATOM      1  C   UNL d   1      32.980  20.985 -21.039  0.00  0.00     0.119 A 
ATOM      2  C   UNL d   1      32.985  21.196 -21.831  0.00  0.00     0.119 A 
ATOM      3  O   UNL d   1      33.003  20.162 -20.994  0.00  0.00    -0.300 OA
ATOM      4  O   UNL d   1      33.011  20.504 -22.279  0.00  0.00    -0.300 OA
ATOM      5  C   UNL d   1      33.022  19.872 -21.766  0.00  0.00     0.304 A 
ATOM      6  C   UNL d   1      32.956  21.563 -20.462  0.00  0.00     0.026 A 
ATOM      7  C   UNL d   1      32.936  22.363 -20.676  0.00  0.00     0.002 A 
ATOM      8  C   UNL d   1      32.966  21.984 -22.045  0.00  0.00     0.026 A 
ATOM      9  C   UNL d   1      32.941  22.572 -21.460  0.00  0.00     0.002 A 
ENDROOT
BRANCH   7  10
ATOM     10  C   UNL d   1      32.911  22.960 -20.100  0.00  0.00     0.003 C 
BRANCH  10  11
ATOM     11  C   UNL d   1      32.937  22.760 -19.297  0.00  0.00     0.044 C 
BRANCH  11  12
ATOM     12  C   UNL d   1      32.516  23.214 -18.744  0.00  0.00     0.213 C 
ATOM     13  O   UNL d   1      31.910  23.702 -18.991  0.00  0.00    -0.285 OA
BRANCH  12  14
ATOM     14  C   UNL d   1      32.710  23.174 -17.938  0.00  0.00     0.120 A 
ATOM     15  N   UNL d   1      33.133  22.535 -17.646  0.00  0.00    -0.241 NA
ATOM     16  C   UNL d   1      33.241  22.648 -16.833  0.00  0.00     0.099 A 
ATOM     17  C   UNL d   1      32.880  23.362 -16.633  0.00  0.00     0.022 A 
ATOM     18  C   UNL d   1      32.555  23.685 -17.303  0.00  0.00     0.024 A 
ENDBRANCH  12  14
ENDBRANCH  11  12
ENDBRANCH  10  11
ENDBRANCH   7  10
TORSDOF 4
ENDMDL
MODEL 8
REMARK VINA RESULT:      -1.2      3.352      5.049
REMARK  4 active torsions:
REMARK  status: ('A' for Active; 'I' for Inactive)
REMARK    1  A    between atoms: C_3  and  C_1 
REMARK    2  A    between atoms: C_2  and  C_3 
REMARK    3  A    between atoms: C_6  and  C_2 
REMARK    4  A    between atoms: C_16  and  C_6 
ROOT
ATOM      1  C   UNL d   1      32.213  17.498 -23.756  0.00  0.00     0.119 A 
ATOM      2  C   UNL d   1      32.338  18.167 -24.214  0.00  0.00     0.119 A 
ATOM      3  O   UNL d   1      32.763  17.503 -23.142  0.00  0.00    -0.300 OA
ATOM      4  O   UNL d   1      32.966  18.588 -23.884  0.00  0.00    -0.300 OA
ATOM      5  C   UNL d   1      33.225  18.181 -23.229  0.00  0.00     0.304 A 
ATOM      6  C   UNL d   1      31.620  16.972 -23.953  0.00  0.00     0.026 A 
ATOM      7  C   UNL d   1      31.142  17.113 -24.616  0.00  0.00     0.002 A 
ATOM      8  C   UNL d   1      31.869  18.308 -24.868  0.00  0.00     0.026 A 
ATOM      9  C   UNL d   1      31.266  17.775 -25.069  0.00  0.00     0.002 A 
ENDROOT
BRANCH   7  10
ATOM     10  C   UNL d   1      30.536  16.588 -24.827  0.00  0.00     0.003 C 
BRANCH  10  11
ATOM     11  C   UNL d   1      30.142  16.155 -24.241  0.00  0.00     0.044 C 
BRANCH  11  12
ATOM     12  C   UNL d   1      29.389  15.842 -24.394  0.00  0.00     0.213 C 
ATOM     13  O   UNL d   1      29.243  15.453 -25.097  0.00  0.00    -0.285 OA
BRANCH  12  14
ATOM     14  C   UNL d   1      28.781  15.924 -23.834  0.00  0.00     0.120 A 
ATOM     15  N   UNL d   1      28.170  16.454 -23.963  0.00  0.00    -0.241 NA
ATOM     16  C   UNL d   1      27.653  16.413 -23.317  0.00  0.00     0.099 A 
ATOM     17  C   UNL d   1      27.957  15.853 -22.794  0.00  0.00     0.022 A 
ATOM     18  C   UNL d   1      28.644  15.553 -23.106  0.00  0.00     0.024 A 
ENDBRANCH  12  14
ENDBRANCH  11  12
ENDBRANCH  10  11
ENDBRANCH   7  10
TORSDOF 4
ENDMDL
MODEL 9
REMARK VINA RESULT:      -0.3      2.947      3.596
REMARK  4 active torsions:
REMARK  status: ('A' for Active; 'I' for Inactive)
REMARK    1  A    between atoms: C_3  and  C_1 
REMARK    2  A    between atoms: C_2  and  C_3 
REMARK    3  A    between atoms: C_6  and  C_2 
REMARK    4  A    between atoms: C_16  and  C_6 
ROOT
ATOM      1  C   UNL d   1      32.628  22.552 -18.848  0.00  0.00     0.119 A 
ATOM      2  C   UNL d   1      32.913  23.318 -18.778  0.00  0.00     0.119 A 
ATOM      3  O   UNL d   1      32.358  22.311 -18.108  0.00  0.00    -0.300 OA
ATOM      4  O   UNL d   1      32.821  23.553 -17.993  0.00  0.00    -0.300 OA
ATOM      5  C   UNL d   1      32.481  22.937 -17.584  0.00  0.00     0.304 A 
ATOM      6  C   UNL d   1      32.649  22.173 -19.571  0.00  0.00     0.026 A 
ATOM      7  C   UNL d   1      32.959  22.560 -20.236  0.00  0.00     0.002 A 
ATOM      8  C   UNL d   1      33.219  23.702 -19.430  0.00  0.00     0.026 A 
ATOM      9  C   UNL d   1      33.241  23.319 -20.166  0.00  0.00     0.002 A 
ENDROOT
BRANCH   7  10
ATOM     10  C   UNL d   1      32.986  22.187 -20.976  0.00  0.00     0.003 C 
BRANCH  10  11
ATOM     11  C   UNL d   1      32.945  22.639 -21.669  0.00  0.00     0.044 C 
BRANCH  11  12
ATOM     12  C   UNL d   1      32.837  22.265 -22.401  0.00  0.00     0.213 C 
ATOM     13  O   UNL d   1      32.716  21.458 -22.434  0.00  0.00    -0.285 OA
BRANCH  12  14
ATOM     14  C   UNL d   1      32.852  22.709 -23.102  0.00  0.00     0.120 A 
ATOM     15  N   UNL d   1      33.166  22.387 -23.788  0.00  0.00    -0.241 NA
ATOM     16  C   UNL d   1      33.105  22.954 -24.389  0.00  0.00     0.099 A 
ATOM     17  C   UNL d   1      32.752  23.623 -24.062  0.00  0.00     0.022 A 
ATOM     18  C   UNL d   1      32.596  23.477 -23.279  0.00  0.00     0.024 A 
ENDBRANCH  12  14
ENDBRANCH  11  12
ENDBRANCH  10  11
ENDBRANCH   7  10
TORSDOF 4
ENDMDL
