MODEL 1
REMARK VINA RESULT:      51.2      0.000      0.000
REMARK  10 active torsions:
REMARK  status: ('A' for Active; 'I' for Inactive)
REMARK    1  A    between atoms: S_6  and  C_1 
REMARK    2  A    between atoms: C_12  and  N_2 
REMARK    3  A    between atoms: C_11  and  C_4 
REMARK    4  A    between atoms: C_10  and  S_6 
REMARK       I    between atoms: C_7  and  N_9 
REMARK    5  A    between atoms: C_13  and  C_7 
REMARK    6  A    between atoms: C_8  and  C_10 
REMARK    7  A    between atoms: O_18  and  C_8 
REMARK    8  A    between atoms: N_9  and  C_11 
REMARK    9  A    between atoms: C_26  and  O_18 
REMARK   10  A    between atoms: O_22  and  C_19 
ROOT
ATOM      1  C   UNL d   1      46.261 -17.349  43.306  0.00  0.00     0.201 A 
ATOM      2  N   UNL d   1      46.243 -18.051  42.875  0.00  0.00    -0.268 N 
ATOM      3  N   UNL d   1      46.159 -16.716  42.781  0.00  0.00    -0.121 NA
ATOM      4  C   UNL d   1      46.129 -17.844  42.077  0.00  0.00     0.190 A 
ATOM      5  N   UNL d   1      46.078 -17.015  42.028  0.00  0.00    -0.126 NA
ENDROOT
BRANCH   4   6
ATOM      6  C   UNL d   1      46.075 -18.369  41.441  0.00  0.00     0.141 C 
BRANCH   6   7
ATOM      7  N   UNL d   1      45.733 -17.908  40.842  0.00  0.00    -0.203 NA
ATOM      8  C   UNL d   1      45.740 -18.181  40.061  0.00  0.00     0.279 C 
ATOM      9  O   UNL d   1      46.082 -18.904  39.876  0.00  0.00    -0.265 OA
BRANCH   8  10
ATOM     10  C   UNL d   1      45.398 -17.717  39.470  0.00  0.00     0.058 A 
ATOM     11  C   UNL d   1      44.587 -17.707  39.365  0.00  0.00     0.007 A 
ATOM     12  C   UNL d   1      44.246 -17.242  38.774  0.00  0.00     0.024 A 
ATOM     13  C   UNL d   1      44.734 -16.785  38.288  0.00  0.00     0.094 A 
ATOM     14  C   UNL d   1      45.546 -16.796  38.394  0.00  0.00     0.024 A 
ATOM     15  C   UNL d   1      45.887 -17.260  38.984  0.00  0.00     0.007 A 
BRANCH  13  16
ATOM     16  O   UNL d   1      44.393 -16.321  37.697  0.00  0.00    -0.328 OA
ATOM     17  C   UNL d   1      44.866 -15.837  37.237  0.00  0.00     0.181 C 
ENDBRANCH  13  16
ENDBRANCH   8  10
ENDBRANCH   6   7
ENDBRANCH   4   6
BRANCH   2  18
ATOM     18  C   UNL d   1      46.323 -18.804  43.175  0.00  0.00     0.067 A 
ATOM     19  C   UNL d   1      46.162 -19.459  42.705  0.00  0.00     0.018 A 
ATOM     20  C   UNL d   1      46.242 -20.217  43.006  0.00  0.00     0.002 A 
ATOM     21  C   UNL d   1      46.484 -20.329  43.782  0.00  0.00     0.000 A 
ATOM     22  C   UNL d   1      46.646 -19.675  44.259  0.00  0.00     0.002 A 
ATOM     23  C   UNL d   1      46.566 -18.910  43.954  0.00  0.00     0.018 A 
ENDBRANCH   2  18
BRANCH   1  24
ATOM     24  S   UNL d   1      46.363 -17.283  44.125  0.00  0.00    -0.043 SA
BRANCH  24  25
ATOM     25  C   UNL d   1      45.806 -16.884  44.585  0.00  0.00     0.096 C 
ATOM     26  C   UNL d   1      45.158 -17.284  44.885  0.00  0.00     0.013 C 
BRANCH  25  27
ATOM     27  C   UNL d   1      45.897 -16.077  44.747  0.00  0.00     0.306 C 
ATOM     28  O   UNL d   1      46.647 -15.757  44.843  0.00  0.00    -0.258 OA
BRANCH  27  29
ATOM     29  O   UNL d   1      45.231 -15.607  44.809  0.00  0.00    -0.271 OA
BRANCH  29  30
ATOM     30  C   UNL d   1      45.311 -14.790  44.954  0.00  0.00     0.126 C 
ATOM     31  C   UNL d   1      45.133 -14.249  44.387  0.00  0.00     0.029 C 
ENDBRANCH  29  30
ENDBRANCH  27  29
ENDBRANCH  25  27
ENDBRANCH  24  25
ENDBRANCH   1  24
TORSDOF 10
ENDMDL
