MODEL 1
REMARK VINA RESULT:      -8.3      0.000      0.000
REMARK  4 active torsions:
REMARK  status: ('A' for Active; 'I' for Inactive)
REMARK    1  A    between atoms: N_2  and  S_1 
REMARK    2  A    between atoms: C_5  and  S_1 
REMARK    3  A    between atoms: C_4  and  C_3 
REMARK    4  A    between atoms: C_12  and  C_3 
ROOT
ATOM      1  N   UNL d   1     -48.094  13.626  22.182  0.00  0.00    -0.230 N 
ATOM      2  C   UNL d   1     -46.476  13.334  22.312  0.00  0.00     0.137 A 
ATOM      3  C   UNL d   1     -46.932  12.920  21.774  0.00  0.00     0.011 A 
ATOM      4  C   UNL d   1     -46.837  13.901  22.792  0.00  0.00     0.011 A 
ATOM      5  C   UNL d   1     -47.646  14.048  22.727  0.00  0.00     0.088 A 
ATOM      6  C   UNL d   1     -47.742  13.067  21.708  0.00  0.00     0.088 A 
ENDROOT
BRANCH   1   7
ATOM      7  S   UNL d   1     -48.904  13.773  22.117  0.00  0.00     0.271 S 
ATOM      8  O   UNL d   1     -49.173  14.400  21.658  0.00  0.00    -0.200 OA
ATOM      9  O   UNL d   1     -48.537  14.350  21.660  0.00  0.00    -0.200 OA
BRANCH   7  10
ATOM     10  C   UNL d   1     -49.443  13.291  22.512  0.00  0.00     0.104 A 
ATOM     11  C   UNL d   1     -49.794  13.551  23.202  0.00  0.00     0.013 A 
ATOM     12  C   UNL d   1     -50.336  13.073  23.604  0.00  0.00     0.001 A 
ATOM     13  C   UNL d   1     -50.521  12.319  23.295  0.00  0.00     0.000 A 
ATOM     14  C   UNL d   1     -50.162  12.064  22.598  0.00  0.00     0.001 A 
ATOM     15  C   UNL d   1     -51.064  11.840  23.697  0.00  0.00     0.000 C 
ATOM     16  C   UNL d   1     -49.626  12.548  22.210  0.00  0.00     0.013 A 
ENDBRANCH   7  10
ENDBRANCH   1   7
BRANCH   2  17
ATOM     17  C   UNL d   1     -46.277  13.876  22.914  0.00  0.00     0.196 C 
ATOM     18  O   UNL d   1     -46.114  14.657  22.733  0.00  0.00    -0.647 OA
ATOM     19  O   UNL d   1     -46.246  13.618  23.698  0.00  0.00    -0.647 OA
ENDBRANCH   2  17
BRANCH   2  20
ATOM     20  C   UNL d   1     -45.705  13.050  22.229  0.00  0.00    -0.005 A 
ATOM     21  C   UNL d   1     -45.199  13.423  21.698  0.00  0.00    -0.003 A 
ATOM     22  C   UNL d   1     -44.425  13.145  21.609  0.00  0.00    -0.000 A 
ATOM     23  C   UNL d   1     -44.159  12.496  22.050  0.00  0.00    -0.000 A 
ATOM     24  C   UNL d   1     -44.678  12.128  22.583  0.00  0.00    -0.000 A 
ATOM     25  C   UNL d   1     -45.442  12.407  22.667  0.00  0.00    -0.003 A 
ENDBRANCH   2  20
TORSDOF 4
ENDMDL
MODEL 2
REMARK VINA RESULT:      -7.8      7.799      8.881
REMARK  4 active torsions:
REMARK  status: ('A' for Active; 'I' for Inactive)
REMARK    1  A    between atoms: N_2  and  S_1 
REMARK    2  A    between atoms: C_5  and  S_1 
REMARK    3  A    between atoms: C_4  and  C_3 
REMARK    4  A    between atoms: C_12  and  C_3 
ROOT
ATOM      1  N   UNL d   1     -40.482  14.953  20.136  0.00  0.00    -0.230 N 
ATOM      2  C   UNL d   1     -40.318  15.069  18.498  0.00  0.00     0.137 A 
ATOM      3  C   UNL d   1     -40.257  15.734  18.972  0.00  0.00     0.011 A 
ATOM      4  C   UNL d   1     -40.464  14.337  18.852  0.00  0.00     0.011 A 
ATOM      5  C   UNL d   1     -40.546  14.279  19.671  0.00  0.00     0.088 A 
ATOM      6  C   UNL d   1     -40.339  15.676  19.791  0.00  0.00     0.088 A 
ENDROOT
BRANCH   1   7
ATOM      7  S   UNL d   1     -40.564  14.895  20.955  0.00  0.00     0.271 S 
ATOM      8  O   UNL d   1     -41.287  15.062  21.310  0.00  0.00    -0.200 OA
ATOM      9  O   UNL d   1     -41.301  15.129  20.675  0.00  0.00    -0.200 OA
BRANCH   7  10
ATOM     10  C   UNL d   1     -39.922  14.670  21.418  0.00  0.00     0.104 A 
ATOM     11  C   UNL d   1     -39.373  15.228  21.655  0.00  0.00     0.013 A 
ATOM     12  C   UNL d   1     -38.725  15.009  22.120  0.00  0.00     0.001 A 
ATOM     13  C   UNL d   1     -38.638  14.210  22.347  0.00  0.00     0.000 A 
ATOM     14  C   UNL d   1     -39.196  13.653  22.104  0.00  0.00     0.001 A 
ATOM     15  C   UNL d   1     -37.989  13.991  22.813  0.00  0.00     0.000 C 
ATOM     16  C   UNL d   1     -39.833  13.884  21.643  0.00  0.00     0.013 A 
ENDBRANCH   7  10
ENDBRANCH   1   7
BRANCH   2  17
ATOM     17  C   UNL d   1     -40.424  14.270  18.284  0.00  0.00     0.196 C 
ATOM     18  O   UNL d   1     -41.169  13.980  18.110  0.00  0.00    -0.647 OA
ATOM     19  O   UNL d   1     -39.767  13.770  18.249  0.00  0.00    -0.647 OA
ENDBRANCH   2  17
BRANCH   2  20
ATOM     20  C   UNL d   1     -40.209  15.327  17.721  0.00  0.00    -0.005 A 
ATOM     21  C   UNL d   1     -40.861  15.591  17.294  0.00  0.00    -0.003 A 
ATOM     22  C   UNL d   1     -40.759  15.850  16.515  0.00  0.00    -0.000 A 
ATOM     23  C   UNL d   1     -40.008  15.845  16.166  0.00  0.00    -0.000 A 
ATOM     24  C   UNL d   1     -39.357  15.576  16.606  0.00  0.00    -0.000 A 
ATOM     25  C   UNL d   1     -39.464  15.321  17.376  0.00  0.00    -0.003 A 
ENDBRANCH   2  20
TORSDOF 4
ENDMDL
MODEL 3
REMARK VINA RESULT:      -7.6      0.947      4.323
REMARK  4 active torsions:
REMARK  status: ('A' for Active; 'I' for Inactive)
REMARK    1  A    between atoms: N_2  and  S_1 
REMARK    2  A    between atoms: C_5  and  S_1 
REMARK    3  A    between atoms: C_4  and  C_3 
REMARK    4  A    between atoms: C_12  and  C_3 
ROOT
ATOM      1  N   UNL d   1     -47.309  13.603  22.643  0.00  0.00    -0.230 N 
ATOM      2  C   UNL d   1     -48.837  12.980  22.660  0.00  0.00     0.137 A 
ATOM      3  C   UNL d   1     -48.464  13.190  23.358  0.00  0.00     0.011 A 
ATOM      4  C   UNL d   1     -48.437  13.084  21.945  0.00  0.00     0.011 A 
ATOM      5  C   UNL d   1     -47.673  13.395  21.936  0.00  0.00     0.088 A 
ATOM      6  C   UNL d   1     -47.700  13.502  23.349  0.00  0.00     0.088 A 
ENDROOT
BRANCH   1   7
ATOM      7  S   UNL d   1     -46.545  13.914  22.634  0.00  0.00     0.271 S 
ATOM      8  O   UNL d   1     -46.428  14.723  22.731  0.00  0.00    -0.200 OA
ATOM      9  O   UNL d   1     -47.044  14.557  22.749  0.00  0.00    -0.200 OA
BRANCH   7  10
ATOM     10  C   UNL d   1     -45.898  13.416  22.528  0.00  0.00     0.104 A 
ATOM     11  C   UNL d   1     -45.766  12.801  23.050  0.00  0.00     0.013 A 
ATOM     12  C   UNL d   1     -45.118  12.296  22.951  0.00  0.00     0.001 A 
ATOM     13  C   UNL d   1     -44.599  12.422  22.309  0.00  0.00     0.000 A 
ATOM     14  C   UNL d   1     -44.739  13.044  21.786  0.00  0.00     0.001 A 
ATOM     15  C   UNL d   1     -43.951  11.917  22.209  0.00  0.00     0.000 C 
ATOM     16  C   UNL d   1     -45.385  13.537  21.897  0.00  0.00     0.013 A 
ENDBRANCH   7  10
ENDBRANCH   1   7
BRANCH   2  17
ATOM     17  C   UNL d   1     -48.956  12.863  21.843  0.00  0.00     0.196 C 
ATOM     18  O   UNL d   1     -48.769  12.148  21.493  0.00  0.00    -0.647 OA
ATOM     19  O   UNL d   1     -49.266  13.478  21.387  0.00  0.00    -0.647 OA
ENDBRANCH   2  17
BRANCH   2  20
ATOM     20  C   UNL d   1     -49.581  12.693  22.872  0.00  0.00    -0.005 A 
ATOM     21  C   UNL d   1     -49.642  11.935  23.185  0.00  0.00    -0.003 A 
ATOM     22  C   UNL d   1     -50.385  11.641  23.399  0.00  0.00    -0.000 A 
ATOM     23  C   UNL d   1     -51.064  12.105  23.301  0.00  0.00    -0.000 A 
ATOM     24  C   UNL d   1     -50.991  12.869  22.985  0.00  0.00    -0.000 A 
ATOM     25  C   UNL d   1     -50.254  13.155  22.775  0.00  0.00    -0.003 A 
ENDBRANCH   2  20
TORSDOF 4
ENDMDL
MODEL 4
REMARK VINA RESULT:      -7.6      7.976      9.265
REMARK  4 active torsions:
REMARK  status: ('A' for Active; 'I' for Inactive)
REMARK    1  A    between atoms: N_2  and  S_1 
REMARK    2  A    between atoms: C_5  and  S_1 
REMARK    3  A    between atoms: C_4  and  C_3 
REMARK    4  A    between atoms: C_12  and  C_3 
ROOT
ATOM      1  N   UNL d   1     -40.108  14.451  18.874  0.00  0.00    -0.230 N 
ATOM      2  C   UNL d   1     -39.723  14.588  20.472  0.00  0.00     0.137 A 
ATOM      3  C   UNL d   1     -39.279  14.114  19.976  0.00  0.00     0.011 A 
ATOM      4  C   UNL d   1     -40.369  14.999  20.162  0.00  0.00     0.011 A 
ATOM      5  C   UNL d   1     -40.562  14.931  19.363  0.00  0.00     0.088 A 
ATOM      6  C   UNL d   1     -39.471  14.046  19.176  0.00  0.00     0.088 A 
ENDROOT
BRANCH   1   7
ATOM      7  S   UNL d   1     -40.300  14.383  18.074  0.00  0.00     0.271 S 
ATOM      8  O   UNL d   1     -40.950  13.934  17.844  0.00  0.00    -0.200 OA
ATOM      9  O   UNL d   1     -40.864  13.940  18.476  0.00  0.00    -0.200 OA
BRANCH   7  10
ATOM     10  C   UNL d   1     -39.841  14.764  17.506  0.00  0.00     0.104 A 
ATOM     11  C   UNL d   1     -39.203  14.380  17.171  0.00  0.00     0.013 A 
ATOM     12  C   UNL d   1     -38.738  14.756  16.600  0.00  0.00     0.001 A 
ATOM     13  C   UNL d   1     -38.929  15.535  16.369  0.00  0.00     0.000 A 
ATOM     14  C   UNL d   1     -39.575  15.917  16.712  0.00  0.00     0.001 A 
ATOM     15  C   UNL d   1     -38.463  15.912  15.797  0.00  0.00     0.000 C 
ATOM     16  C   UNL d   1     -40.027  15.532  17.277  0.00  0.00     0.013 A 
ENDBRANCH   7  10
ENDBRANCH   1   7
BRANCH   2  17
ATOM     17  C   UNL d   1     -40.321  15.113  20.722  0.00  0.00     0.196 C 
ATOM     18  O   UNL d   1     -40.198  15.922  20.708  0.00  0.00    -0.647 OA
ATOM     19  O   UNL d   1     -41.043  14.809  20.985  0.00  0.00    -0.647 OA
ENDBRANCH   2  17
BRANCH   2  20
ATOM     20  C   UNL d   1     -39.380  14.527  21.221  0.00  0.00    -0.005 A 
ATOM     21  C   UNL d   1     -39.594  13.899  21.707  0.00  0.00    -0.003 A 
ATOM     22  C   UNL d   1     -39.254  13.831  22.458  0.00  0.00    -0.000 A 
ATOM     23  C   UNL d   1     -38.702  14.391  22.721  0.00  0.00    -0.000 A 
ATOM     24  C   UNL d   1     -38.494  15.020  22.222  0.00  0.00    -0.000 A 
ATOM     25  C   UNL d   1     -38.833  15.082  21.480  0.00  0.00    -0.003 A 
ENDBRANCH   2  20
TORSDOF 4
ENDMDL
MODEL 5
REMARK VINA RESULT:      -7.0      7.877      9.572
REMARK  4 active torsions:
REMARK  status: ('A' for Active; 'I' for Inactive)
REMARK    1  A    between atoms: N_2  and  S_1 
REMARK    2  A    between atoms: C_5  and  S_1 
REMARK    3  A    between atoms: C_4  and  C_3 
REMARK    4  A    between atoms: C_12  and  C_3 
ROOT
ATOM      1  N   UNL d   1     -40.188  14.420  18.359  0.00  0.00    -0.230 N 
ATOM      2  C   UNL d   1     -39.146  14.647  17.100  0.00  0.00     0.137 A 
ATOM      3  C   UNL d   1     -39.838  15.081  17.152  0.00  0.00     0.011 A 
ATOM      4  C   UNL d   1     -38.975  14.093  17.688  0.00  0.00     0.011 A 
ATOM      5  C   UNL d   1     -39.496  13.980  18.318  0.00  0.00     0.088 A 
ATOM      6  C   UNL d   1     -40.359  14.967  17.781  0.00  0.00     0.088 A 
ENDROOT
BRANCH   1   7
ATOM      7  S   UNL d   1     -40.709  14.307  18.988  0.00  0.00     0.271 S 
ATOM      8  O   UNL d   1     -41.353  13.803  18.904  0.00  0.00    -0.200 OA
ATOM      9  O   UNL d   1     -40.997  13.840  18.376  0.00  0.00    -0.200 OA
BRANCH   7  10
ATOM     10  C   UNL d   1     -40.584  14.699  19.702  0.00  0.00     0.104 A 
ATOM     11  C   UNL d   1     -40.136  14.347  20.288  0.00  0.00     0.013 A 
ATOM     12  C   UNL d   1     -40.006  14.734  21.008  0.00  0.00     0.001 A 
ATOM     13  C   UNL d   1     -40.339  15.490  21.129  0.00  0.00     0.000 A 
ATOM     14  C   UNL d   1     -40.791  15.838  20.532  0.00  0.00     0.001 A 
ATOM     15  C   UNL d   1     -40.210  15.878  21.849  0.00  0.00     0.000 C 
ATOM     16  C   UNL d   1     -40.911  15.443  19.824  0.00  0.00     0.013 A 
ENDBRANCH   7  10
ENDBRANCH   1   7
BRANCH   2  17
ATOM     17  C   UNL d   1     -38.553  14.095  17.299  0.00  0.00     0.196 C 
ATOM     18  O   UNL d   1     -38.576  13.334  17.001  0.00  0.00    -0.647 OA
ATOM     19  O   UNL d   1     -37.940  14.324  17.803  0.00  0.00    -0.647 OA
ENDBRANCH   2  17
BRANCH   2  20
ATOM     20  C   UNL d   1     -38.765  14.900  16.412  0.00  0.00    -0.005 A 
ATOM     21  C   UNL d   1     -38.681  14.371  15.787  0.00  0.00    -0.003 A 
ATOM     22  C   UNL d   1     -38.300  14.617  15.094  0.00  0.00    -0.000 A 
ATOM     23  C   UNL d   1     -38.005  15.388  15.029  0.00  0.00    -0.000 A 
ATOM     24  C   UNL d   1     -38.095  15.913  15.666  0.00  0.00    -0.000 A 
ATOM     25  C   UNL d   1     -38.473  15.665  16.348  0.00  0.00    -0.003 A 
ENDBRANCH   2  20
TORSDOF 4
ENDMDL
