MODEL 1
REMARK VINA RESULT:      10.4      0.000      0.000
REMARK  8 active torsions:
REMARK  status: ('A' for Active; 'I' for Inactive)
REMARK    1  A    between atoms: C_8  and  C_1 
REMARK    2  A    between atoms: C_7  and  C_2 
REMARK    3  A    between atoms: C_9  and  C_3 
REMARK    4  A    between atoms: O_14  and  C_7 
REMARK    5  A    between atoms: O_15  and  C_8 
REMARK    6  A    between atoms: C_22  and  O_14 
REMARK    7  A    between atoms: C_23  and  O_15 
REMARK    8  A    between atoms: O_21  and  C_18 
ROOT
ATOM      1  C   UNL d   1     -41.773-122.057 -51.375  0.00  0.00     0.081 A 
ATOM      2  C   UNL d   1     -41.453-120.779 -51.910  0.00  0.00     0.081 A 
ATOM      3  C   UNL d   1     -41.667-121.563 -52.025  0.00  0.00     0.013 A 
ATOM      4  C   UNL d   1     -41.666-121.764 -50.611  0.00  0.00     0.086 A 
ATOM      5  C   UNL d   1     -41.346-120.486 -51.147  0.00  0.00     0.086 A 
ATOM      6  N   UNL d   1     -41.452-120.978 -50.499  0.00  0.00    -0.245 NA
ATOM      7  C   UNL d   1     -41.127-119.682 -51.029  0.00  0.00     0.021 C 
ATOM      8  C   UNL d   1     -41.773-122.265 -49.947  0.00  0.00     0.021 C 
ENDROOT
BRANCH   3   9
ATOM      9  C   UNL d   1     -41.775-121.857 -52.792  0.00  0.00     0.001 A 
ATOM     10  C   UNL d   1     -42.530-121.916 -53.109  0.00  0.00     0.002 A 
ATOM     11  C   UNL d   1     -42.638-122.212 -53.881  0.00  0.00     0.024 A 
ATOM     12  C   UNL d   1     -41.992-122.446 -54.327  0.00  0.00     0.094 A 
ATOM     13  C   UNL d   1     -41.233-122.388 -54.011  0.00  0.00     0.024 A 
ATOM     14  C   UNL d   1     -41.125-122.092 -53.240  0.00  0.00     0.002 A 
BRANCH  12  15
ATOM     15  O   UNL d   1     -42.092-122.739 -55.089  0.00  0.00    -0.328 OA
ATOM     16  C   UNL d   1     -42.396-122.249 -55.676  0.00  0.00     0.181 C 
ENDBRANCH  12  15
ENDBRANCH   3   9
BRANCH   2  17
ATOM     17  C   UNL d   1     -41.345-120.277 -52.580  0.00  0.00     0.302 C 
ATOM     18  O   UNL d   1     -41.441-120.578 -53.339  0.00  0.00    -0.259 OA
BRANCH  17  19
ATOM     19  O   UNL d   1     -41.143-119.479 -52.466  0.00  0.00    -0.271 OA
BRANCH  19  20
ATOM     20  C   UNL d   1     -41.372-118.910 -53.017  0.00  0.00     0.126 C 
ATOM     21  C   UNL d   1     -41.157-118.123 -52.914  0.00  0.00     0.029 C 
ENDBRANCH  19  20
ENDBRANCH  17  19
ENDBRANCH   2  17
BRANCH   1  22
ATOM     22  C   UNL d   1     -41.992-122.860 -51.498  0.00  0.00     0.302 C 
ATOM     23  O   UNL d   1     -41.438-123.396 -51.823  0.00  0.00    -0.259 OA
BRANCH  22  24
ATOM     24  O   UNL d   1     -42.752-123.105 -51.295  0.00  0.00    -0.271 OA
BRANCH  24  25
ATOM     25  C   UNL d   1     -42.852-123.789 -50.845  0.00  0.00     0.126 C 
ATOM     26  C   UNL d   1     -43.441-123.816 -50.264  0.00  0.00     0.029 C 
ENDBRANCH  24  25
ENDBRANCH  22  24
ENDBRANCH   1  22
TORSDOF 8
ENDMDL
MODEL 2
REMARK VINA RESULT:      11.3      1.182      3.606
REMARK  8 active torsions:
REMARK  status: ('A' for Active; 'I' for Inactive)
REMARK    1  A    between atoms: C_8  and  C_1 
REMARK    2  A    between atoms: C_7  and  C_2 
REMARK    3  A    between atoms: C_9  and  C_3 
REMARK    4  A    between atoms: O_14  and  C_7 
REMARK    5  A    between atoms: O_15  and  C_8 
REMARK    6  A    between atoms: C_22  and  O_14 
REMARK    7  A    between atoms: C_23  and  O_15 
REMARK    8  A    between atoms: O_21  and  C_18 
ROOT
ATOM      1  C   UNL d   1     -41.736-122.426 -53.628  0.00  0.00     0.081 A 
ATOM      2  C   UNL d   1     -41.810-122.524 -52.211  0.00  0.00     0.081 A 
ATOM      3  C   UNL d   1     -41.754-122.065 -52.888  0.00  0.00     0.013 A 
ATOM      4  C   UNL d   1     -41.774-123.248 -53.686  0.00  0.00     0.086 A 
ATOM      5  C   UNL d   1     -41.848-123.346 -52.270  0.00  0.00     0.086 A 
ATOM      6  N   UNL d   1     -41.830-123.707 -53.005  0.00  0.00    -0.245 NA
ATOM      7  C   UNL d   1     -41.906-123.817 -51.574  0.00  0.00     0.021 C 
ATOM      8  C   UNL d   1     -41.756-123.620 -54.438  0.00  0.00     0.021 C 
ENDROOT
BRANCH   3   9
ATOM      9  C   UNL d   1     -41.716-121.239 -52.829  0.00  0.00     0.001 A 
ATOM     10  C   UNL d   1     -41.162-120.885 -52.338  0.00  0.00     0.002 A 
ATOM     11  C   UNL d   1     -41.123-120.055 -52.279  0.00  0.00     0.024 A 
ATOM     12  C   UNL d   1     -41.639-119.587 -52.712  0.00  0.00     0.094 A 
ATOM     13  C   UNL d   1     -42.196-119.939 -53.205  0.00  0.00     0.024 A 
ATOM     14  C   UNL d   1     -42.234-120.769 -53.265  0.00  0.00     0.002 A 
BRANCH  12  15
ATOM     15  O   UNL d   1     -41.606-118.767 -52.658  0.00  0.00    -0.328 OA
ATOM     16  C   UNL d   1     -41.366-118.326 -53.310  0.00  0.00     0.181 C 
ENDBRANCH  12  15
ENDBRANCH   3   9
BRANCH   2  17
ATOM     17  C   UNL d   1     -41.828-122.148 -51.456  0.00  0.00     0.302 C 
ATOM     18  O   UNL d   1     -42.438-121.629 -51.270  0.00  0.00    -0.259 OA
BRANCH  17  19
ATOM     19  O   UNL d   1     -41.227-122.307 -50.903  0.00  0.00    -0.271 OA
BRANCH  19  20
ATOM     20  C   UNL d   1     -41.283-122.016 -50.134  0.00  0.00     0.126 C 
ATOM     21  C   UNL d   1     -41.167-122.516 -49.493  0.00  0.00     0.029 C 
ENDBRANCH  19  20
ENDBRANCH  17  19
ENDBRANCH   2  17
BRANCH   1  22
ATOM     22  C   UNL d   1     -41.679-121.951 -54.319  0.00  0.00     0.302 C 
ATOM     23  O   UNL d   1     -41.126-121.323 -54.346  0.00  0.00    -0.259 OA
BRANCH  22  24
ATOM     24  O   UNL d   1     -42.170-122.113 -54.960  0.00  0.00    -0.271 OA
BRANCH  24  25
ATOM     25  C   UNL d   1     -42.139-121.631 -55.629  0.00  0.00     0.126 C 
ATOM     26  C   UNL d   1     -42.560-121.844 -56.308  0.00  0.00     0.029 C 
ENDBRANCH  24  25
ENDBRANCH  22  24
ENDBRANCH   1  22
TORSDOF 8
ENDMDL
MODEL 3
REMARK VINA RESULT:      12.3      1.425      3.131
REMARK  8 active torsions:
REMARK  status: ('A' for Active; 'I' for Inactive)
REMARK    1  A    between atoms: C_8  and  C_1 
REMARK    2  A    between atoms: C_7  and  C_2 
REMARK    3  A    between atoms: C_9  and  C_3 
REMARK    4  A    between atoms: O_14  and  C_7 
REMARK    5  A    between atoms: O_15  and  C_8 
REMARK    6  A    between atoms: C_22  and  O_14 
REMARK    7  A    between atoms: C_23  and  O_15 
REMARK    8  A    between atoms: O_21  and  C_18 
ROOT
ATOM      1  C   UNL d   1     -41.730-122.571 -52.734  0.00  0.00     0.081 A 
ATOM      2  C   UNL d   1     -41.709-122.570 -54.156  0.00  0.00     0.081 A 
ATOM      3  C   UNL d   1     -41.741-122.159 -53.447  0.00  0.00     0.013 A 
ATOM      4  C   UNL d   1     -41.687-123.395 -52.734  0.00  0.00     0.086 A 
ATOM      5  C   UNL d   1     -41.665-123.394 -54.156  0.00  0.00     0.086 A 
ATOM      6  N   UNL d   1     -41.654-123.805 -53.446  0.00  0.00    -0.245 NA
ATOM      7  C   UNL d   1     -41.632-123.817 -54.883  0.00  0.00     0.021 C 
ATOM      8  C   UNL d   1     -41.676-123.817 -52.010  0.00  0.00     0.021 C 
ENDROOT
BRANCH   3   9
ATOM      9  C   UNL d   1     -41.785-121.331 -53.448  0.00  0.00     0.001 A 
ATOM     10  C   UNL d   1     -42.486-120.955 -53.646  0.00  0.00     0.002 A 
ATOM     11  C   UNL d   1     -42.530-120.123 -53.647  0.00  0.00     0.024 A 
ATOM     12  C   UNL d   1     -41.872-119.676 -53.449  0.00  0.00     0.094 A 
ATOM     13  C   UNL d   1     -41.167-120.051 -53.249  0.00  0.00     0.024 A 
ATOM     14  C   UNL d   1     -41.123-120.883 -53.248  0.00  0.00     0.002 A 
BRANCH  12  15
ATOM     15  O   UNL d   1     -41.908-118.855 -53.447  0.00  0.00    -0.328 OA
ATOM     16  C   UNL d   1     -41.370-118.422 -53.895  0.00  0.00     0.181 C 
ENDBRANCH  12  15
ENDBRANCH   3   9
BRANCH   2  17
ATOM     17  C   UNL d   1     -41.720-122.144 -54.884  0.00  0.00     0.302 C 
ATOM     18  O   UNL d   1     -41.123-121.605 -55.053  0.00  0.00    -0.259 OA
BRANCH  17  19
ATOM     19  O   UNL d   1     -42.336-122.273 -55.426  0.00  0.00    -0.271 OA
BRANCH  19  20
ATOM     20  C   UNL d   1     -42.344-121.875 -56.148  0.00  0.00     0.126 C 
ATOM     21  C   UNL d   1     -42.946-122.012 -56.690  0.00  0.00     0.029 C 
ENDBRANCH  19  20
ENDBRANCH  17  19
ENDBRANCH   2  17
BRANCH   1  22
ATOM     22  C   UNL d   1     -41.764-122.145 -52.010  0.00  0.00     0.302 C 
ATOM     23  O   UNL d   1     -42.445-121.694 -51.826  0.00  0.00    -0.259 OA
BRANCH  22  24
ATOM     24  O   UNL d   1     -41.123-122.178 -51.494  0.00  0.00    -0.271 OA
BRANCH  24  25
ATOM     25  C   UNL d   1     -41.243-122.048 -50.688  0.00  0.00     0.126 C 
ATOM     26  C   UNL d   1     -41.345-122.693 -50.179  0.00  0.00     0.029 C 
ENDBRANCH  24  25
ENDBRANCH  22  24
ENDBRANCH   1  22
TORSDOF 8
ENDMDL
MODEL 4
REMARK VINA RESULT:      12.7      2.052      3.798
REMARK  8 active torsions:
REMARK  status: ('A' for Active; 'I' for Inactive)
REMARK    1  A    between atoms: C_8  and  C_1 
REMARK    2  A    between atoms: C_7  and  C_2 
REMARK    3  A    between atoms: C_9  and  C_3 
REMARK    4  A    between atoms: O_14  and  C_7 
REMARK    5  A    between atoms: O_15  and  C_8 
REMARK    6  A    between atoms: C_22  and  O_14 
REMARK    7  A    between atoms: C_23  and  O_15 
REMARK    8  A    between atoms: O_21  and  C_18 
ROOT
ATOM      1  C   UNL d   1     -42.177-123.140 -49.367  0.00  0.00     0.081 A 
ATOM      2  C   UNL d   1     -42.177-123.132 -50.789  0.00  0.00     0.081 A 
ATOM      3  C   UNL d   1     -42.525-122.916 -50.079  0.00  0.00     0.013 A 
ATOM      4  C   UNL d   1     -41.480-123.582 -49.369  0.00  0.00     0.086 A 
ATOM      5  C   UNL d   1     -41.480-123.574 -50.791  0.00  0.00     0.086 A 
ATOM      6  N   UNL d   1     -41.133-123.798 -50.084  0.00  0.00    -0.245 NA
ATOM      7  C   UNL d   1     -41.123-123.796 -51.521  0.00  0.00     0.021 C 
ATOM      8  C   UNL d   1     -41.123-123.813 -48.647  0.00  0.00     0.021 C 
ENDROOT
BRANCH   3   9
ATOM      9  C   UNL d   1     -43.225-122.472 -50.076  0.00  0.00     0.001 A 
ATOM     10  C   UNL d   1     -43.196-121.654 -50.010  0.00  0.00     0.002 A 
ATOM     11  C   UNL d   1     -43.899-121.208 -50.008  0.00  0.00     0.024 A 
ATOM     12  C   UNL d   1     -44.625-121.584 -50.071  0.00  0.00     0.094 A 
ATOM     13  C   UNL d   1     -44.658-122.404 -50.137  0.00  0.00     0.024 A 
ATOM     14  C   UNL d   1     -43.954-122.850 -50.140  0.00  0.00     0.002 A 
BRANCH  12  15
ATOM     15  O   UNL d   1     -45.323-121.150 -50.069  0.00  0.00    -0.328 OA
ATOM     16  C   UNL d   1     -45.938-121.366 -50.572  0.00  0.00     0.181 C 
ENDBRANCH  12  15
ENDBRANCH   3   9
BRANCH   2  17
ATOM     17  C   UNL d   1     -42.537-122.899 -51.516  0.00  0.00     0.302 C 
ATOM     18  O   UNL d   1     -43.277-123.194 -51.719  0.00  0.00    -0.259 OA
BRANCH  17  19
ATOM     19  O   UNL d   1     -42.141-122.373 -52.021  0.00  0.00    -0.271 OA
BRANCH  19  20
ATOM     20  C   UNL d   1     -42.278-122.394 -52.833  0.00  0.00     0.126 C 
ATOM     21  C   UNL d   1     -41.774-122.000 -53.350  0.00  0.00     0.029 C 
ENDBRANCH  19  20
ENDBRANCH  17  19
ENDBRANCH   2  17
BRANCH   1  22
ATOM     22  C   UNL d   1     -42.537-122.916 -48.642  0.00  0.00     0.302 C 
ATOM     23  O   UNL d   1     -43.358-123.037 -48.532  0.00  0.00    -0.259 OA
BRANCH  22  24
ATOM     24  O   UNL d   1     -42.074-122.579 -48.049  0.00  0.00    -0.271 OA
BRANCH  24  25
ATOM     25  C   UNL d   1     -42.184-122.811 -47.265  0.00  0.00     0.126 C 
ATOM     26  C   UNL d   1     -42.307-122.238 -46.681  0.00  0.00     0.029 C 
ENDBRANCH  24  25
ENDBRANCH  22  24
ENDBRANCH   1  22
TORSDOF 8
ENDMDL
