MODEL 1
REMARK VINA RESULT:      -7.0      0.000      0.000
REMARK  6 active torsions:
REMARK  status: ('A' for Active; 'I' for Inactive)
REMARK    1  A    between atoms: C_2  and  S_1 
REMARK    2  A    between atoms: N_4  and  S_1 
REMARK    3  A    between atoms: C_9  and  C_17 
REMARK       I    between atoms: N_20  and  C_9 
REMARK    4  A    between atoms: C_18  and  C_25 
REMARK    5  A    between atoms: C_24  and  N_20 
REMARK    6  A    between atoms: C_25  and  C_24 
ROOT
ATOM      1  N   UNL d   1     -48.845  14.414  23.012  0.00  0.00    -0.229 N 
ATOM      2  C   UNL d   1     -48.319  14.775  22.483  0.00  0.00     0.092 A 
ATOM      3  C   UNL d   1     -48.566  13.844  23.538  0.00  0.00     0.092 A 
ATOM      4  C   UNL d   1     -47.243  13.991  23.013  0.00  0.00     0.061 A 
ATOM      5  C   UNL d   1     -47.768  13.633  23.538  0.00  0.00     0.025 A 
ATOM      6  C   UNL d   1     -47.522  14.565  22.484  0.00  0.00     0.025 A 
ENDROOT
BRANCH   1   7
ATOM      7  S   UNL d   1     -49.647  14.625  23.012  0.00  0.00     0.273 S 
ATOM      8  O   UNL d   1     -50.442  14.835  23.012  0.00  0.00    -0.200 OA
ATOM      9  O   UNL d   1     -49.475  15.276  23.490  0.00  0.00    -0.200 OA
BRANCH   7  10
ATOM     10  C   UNL d   1     -49.819  13.972  22.532  0.00  0.00     0.125 A 
ATOM     11  C   UNL d   1     -50.291  13.359  22.817  0.00  0.00     0.142 A 
ATOM     12  C   UNL d   1     -50.462  12.710  22.339  0.00  0.00     0.131 A 
ATOM     13  N   UNL d   1     -50.662  13.248  23.549  0.00  0.00    -0.101 NA
ATOM     14  N   UNL d   1     -50.940  12.192  22.772  0.00  0.00    -0.102 NA
ATOM     15  C   UNL d   1     -50.163  12.667  21.572  0.00  0.00     0.023 A 
ATOM     16  O   UNL d   1     -51.064  12.521  23.514  0.00  0.00    -0.106 OA
ATOM     17  C   UNL d   1     -49.687  13.284  21.280  0.00  0.00     0.002 A 
ATOM     18  C   UNL d   1     -49.516  13.934  21.757  0.00  0.00     0.015 A 
ENDBRANCH   7  10
ENDBRANCH   1   7
BRANCH   4  19
ATOM     19  C   UNL d   1     -46.451  13.778  23.018  0.00  0.00     0.279 C 
ATOM     20  O   UNL d   1     -45.999  13.884  23.690  0.00  0.00    -0.265 OA
ATOM     21  N   UNL d   1     -46.103  13.451  22.336  0.00  0.00    -0.206 NA
BRANCH  21  22
ATOM     22  C   UNL d   1     -45.297  13.233  22.338  0.00  0.00     0.102 C 
BRANCH  22  23
ATOM     23  C   UNL d   1     -44.954  12.890  21.665  0.00  0.00     0.021 C 
BRANCH  23  24
ATOM     24  C   UNL d   1     -44.131  12.802  21.623  0.00  0.00     0.002 A 
ATOM     25  C   UNL d   1     -43.687  13.301  21.149  0.00  0.00     0.000 A 
ATOM     26  C   UNL d   1     -42.863  13.213  21.107  0.00  0.00     0.000 A 
ATOM     27  C   UNL d   1     -42.486  12.626  21.539  0.00  0.00     0.000 A 
ATOM     28  C   UNL d   1     -42.934  12.117  22.021  0.00  0.00     0.000 A 
ATOM     29  C   UNL d   1     -43.758  12.205  22.063  0.00  0.00     0.000 A 
ENDBRANCH  23  24
ENDBRANCH  22  23
ENDBRANCH  21  22
ENDBRANCH   4  19
TORSDOF 6
ENDMDL
MODEL 2
REMARK VINA RESULT:      -6.3      1.851      2.596
REMARK  6 active torsions:
REMARK  status: ('A' for Active; 'I' for Inactive)
REMARK    1  A    between atoms: C_2  and  S_1 
REMARK    2  A    between atoms: N_4  and  S_1 
REMARK    3  A    between atoms: C_9  and  C_17 
REMARK       I    between atoms: N_20  and  C_9 
REMARK    4  A    between atoms: C_18  and  C_25 
REMARK    5  A    between atoms: C_24  and  N_20 
REMARK    6  A    between atoms: C_25  and  C_24 
ROOT
ATOM      1  N   UNL d   1     -49.649  12.701  22.691  0.00  0.00    -0.229 N 
ATOM      2  C   UNL d   1     -49.339  12.829  23.449  0.00  0.00     0.092 A 
ATOM      3  C   UNL d   1     -49.286  12.158  22.190  0.00  0.00     0.092 A 
ATOM      4  C   UNL d   1     -48.306  11.869  23.191  0.00  0.00     0.061 A 
ATOM      5  C   UNL d   1     -48.617  11.744  22.439  0.00  0.00     0.025 A 
ATOM      6  C   UNL d   1     -48.670  12.415  23.698  0.00  0.00     0.025 A 
ENDROOT
BRANCH   1   7
ATOM      7  S   UNL d   1     -50.321  13.117  22.441  0.00  0.00     0.273 S 
ATOM      8  O   UNL d   1     -50.987  13.530  22.193  0.00  0.00    -0.200 OA
ATOM      9  O   UNL d   1     -50.795  12.472  22.643  0.00  0.00    -0.200 OA
BRANCH   7  10
ATOM     10  C   UNL d   1     -49.845  13.765  22.239  0.00  0.00     0.125 A 
ATOM     11  C   UNL d   1     -49.965  14.497  22.598  0.00  0.00     0.142 A 
ATOM     12  C   UNL d   1     -49.491  15.141  22.397  0.00  0.00     0.131 A 
ATOM     13  N   UNL d   1     -50.510  14.744  23.170  0.00  0.00    -0.101 NA
ATOM     14  N   UNL d   1     -49.740  15.791  22.843  0.00  0.00    -0.102 NA
ATOM     15  C   UNL d   1     -48.893  15.059  21.836  0.00  0.00     0.023 A 
ATOM     16  O   UNL d   1     -50.365  15.550  23.318  0.00  0.00    -0.106 OA
ATOM     17  C   UNL d   1     -48.769  14.321  21.471  0.00  0.00     0.002 A 
ATOM     18  C   UNL d   1     -49.242  13.677  21.672  0.00  0.00     0.015 A 
ENDBRANCH   7  10
ENDBRANCH   1   7
BRANCH   4  19
ATOM     19  C   UNL d   1     -47.641  11.455  23.433  0.00  0.00     0.279 C 
ATOM     20  O   UNL d   1     -47.702  10.671  23.657  0.00  0.00    -0.265 OA
ATOM     21  N   UNL d   1     -46.899  11.831  23.452  0.00  0.00    -0.206 NA
BRANCH  21  22
ATOM     22  C   UNL d   1     -46.220  11.411  23.698  0.00  0.00     0.102 C 
BRANCH  22  23
ATOM     23  C   UNL d   1     -45.487  11.549  23.334  0.00  0.00     0.021 C 
BRANCH  23  24
ATOM     24  C   UNL d   1     -44.888  10.979  23.387  0.00  0.00     0.002 A 
ATOM     25  C   UNL d   1     -45.062  10.221  23.644  0.00  0.00     0.000 A 
ATOM     26  C   UNL d   1     -44.463   9.651  23.698  0.00  0.00     0.000 A 
ATOM     27  C   UNL d   1     -43.691   9.840  23.494  0.00  0.00     0.000 A 
ATOM     28  C   UNL d   1     -43.510  10.609  23.232  0.00  0.00     0.000 A 
ATOM     29  C   UNL d   1     -44.110  11.179  23.179  0.00  0.00     0.000 A 
ENDBRANCH  23  24
ENDBRANCH  22  23
ENDBRANCH  21  22
ENDBRANCH   4  19
TORSDOF 6
ENDMDL
MODEL 3
REMARK VINA RESULT:      -6.3      1.303      1.944
REMARK  6 active torsions:
REMARK  status: ('A' for Active; 'I' for Inactive)
REMARK    1  A    between atoms: C_2  and  S_1 
REMARK    2  A    between atoms: N_4  and  S_1 
REMARK    3  A    between atoms: C_9  and  C_17 
REMARK       I    between atoms: N_20  and  C_9 
REMARK    4  A    between atoms: C_18  and  C_25 
REMARK    5  A    between atoms: C_24  and  N_20 
REMARK    6  A    between atoms: C_25  and  C_24 
ROOT
ATOM      1  N   UNL d   1     -49.429  12.118  23.104  0.00  0.00    -0.229 N 
ATOM      2  C   UNL d   1     -48.961  12.460  23.696  0.00  0.00     0.092 A 
ATOM      3  C   UNL d   1     -49.072  11.662  22.517  0.00  0.00     0.092 A 
ATOM      4  C   UNL d   1     -47.788  11.886  23.106  0.00  0.00     0.061 A 
ATOM      5  C   UNL d   1     -48.255  11.547  22.519  0.00  0.00     0.025 A 
ATOM      6  C   UNL d   1     -48.145  12.345  23.698  0.00  0.00     0.025 A 
ENDROOT
BRANCH   1   7
ATOM      7  S   UNL d   1     -50.250  12.234  23.102  0.00  0.00     0.273 S 
ATOM      8  O   UNL d   1     -51.064  12.349  23.101  0.00  0.00    -0.200 OA
ATOM      9  O   UNL d   1     -50.336  11.628  23.656  0.00  0.00    -0.200 OA
BRANCH   7  10
ATOM     10  C   UNL d   1     -50.163  12.842  22.546  0.00  0.00     0.125 A 
ATOM     11  C   UNL d   1     -50.361  13.618  22.744  0.00  0.00     0.142 A 
ATOM     12  C   UNL d   1     -50.274  14.223  22.191  0.00  0.00     0.131 A 
ATOM     13  N   UNL d   1     -50.655  13.946  23.444  0.00  0.00    -0.101 NA
ATOM     14  N   UNL d   1     -50.514  14.930  22.545  0.00  0.00    -0.102 NA
ATOM     15  C   UNL d   1     -49.989  14.058  21.435  0.00  0.00     0.023 A 
ATOM     16  O   UNL d   1     -50.748  14.763  23.314  0.00  0.00    -0.106 OA
ATOM     17  C   UNL d   1     -49.788  13.276  21.231  0.00  0.00     0.002 A 
ATOM     18  C   UNL d   1     -49.875  12.671  21.784  0.00  0.00     0.015 A 
ENDBRANCH   7  10
ENDBRANCH   1   7
BRANCH   4  19
ATOM     19  C   UNL d   1     -46.977  11.768  23.103  0.00  0.00     0.279 C 
ATOM     20  O   UNL d   1     -46.653  11.116  23.473  0.00  0.00    -0.265 OA
ATOM     21  N   UNL d   1     -46.477  12.313  22.721  0.00  0.00    -0.206 NA
BRANCH  21  22
ATOM     22  C   UNL d   1     -45.651  12.195  22.716  0.00  0.00     0.102 C 
BRANCH  22  23
ATOM     23  C   UNL d   1     -45.138  12.831  22.567  0.00  0.00     0.021 C 
BRANCH  23  24
ATOM     24  C   UNL d   1     -44.411  12.693  22.194  0.00  0.00     0.002 A 
ATOM     25  C   UNL d   1     -43.876  12.163  22.517  0.00  0.00     0.000 A 
ATOM     26  C   UNL d   1     -43.149  12.026  22.143  0.00  0.00     0.000 A 
ATOM     27  C   UNL d   1     -42.958  12.418  21.448  0.00  0.00     0.000 A 
ATOM     28  C   UNL d   1     -43.499  12.956  21.117  0.00  0.00     0.000 A 
ATOM     29  C   UNL d   1     -44.227  13.094  21.490  0.00  0.00     0.000 A 
ENDBRANCH  23  24
ENDBRANCH  22  23
ENDBRANCH  21  22
ENDBRANCH   4  19
TORSDOF 6
ENDMDL
MODEL 4
REMARK VINA RESULT:      -6.2      1.402      1.884
REMARK  6 active torsions:
REMARK  status: ('A' for Active; 'I' for Inactive)
REMARK    1  A    between atoms: C_2  and  S_1 
REMARK    2  A    between atoms: N_4  and  S_1 
REMARK    3  A    between atoms: C_9  and  C_17 
REMARK       I    between atoms: N_20  and  C_9 
REMARK    4  A    between atoms: C_18  and  C_25 
REMARK    5  A    between atoms: C_24  and  N_20 
REMARK    6  A    between atoms: C_25  and  C_24 
ROOT
ATOM      1  N   UNL d   1     -48.835  14.199  23.140  0.00  0.00    -0.229 N 
ATOM      2  C   UNL d   1     -48.613  13.578  23.642  0.00  0.00     0.092 A 
ATOM      3  C   UNL d   1     -48.305  14.470  22.571  0.00  0.00     0.092 A 
ATOM      4  C   UNL d   1     -47.335  13.510  22.997  0.00  0.00     0.061 A 
ATOM      5  C   UNL d   1     -47.558  14.127  22.499  0.00  0.00     0.025 A 
ATOM      6  C   UNL d   1     -47.866  13.235  23.571  0.00  0.00     0.025 A 
ENDROOT
BRANCH   1   7
ATOM      7  S   UNL d   1     -49.585  14.543  23.212  0.00  0.00     0.273 S 
ATOM      8  O   UNL d   1     -50.330  14.885  23.283  0.00  0.00    -0.200 OA
ATOM      9  O   UNL d   1     -49.239  15.241  23.483  0.00  0.00    -0.200 OA
BRANCH   7  10
ATOM     10  C   UNL d   1     -49.934  13.842  22.940  0.00  0.00     0.125 A 
ATOM     11  C   UNL d   1     -50.341  13.831  22.223  0.00  0.00     0.142 A 
ATOM     12  C   UNL d   1     -50.687  13.134  21.952  0.00  0.00     0.131 A 
ATOM     13  N   UNL d   1     -50.488  14.427  21.667  0.00  0.00    -0.101 NA
ATOM     14  N   UNL d   1     -51.050  13.293  21.227  0.00  0.00    -0.102 NA
ATOM     15  C   UNL d   1     -50.629  12.441  22.396  0.00  0.00     0.023 A 
ATOM     16  O   UNL d   1     -50.930  14.086  21.050  0.00  0.00    -0.106 OA
ATOM     17  C   UNL d   1     -50.219  12.448  23.121  0.00  0.00     0.002 A 
ATOM     18  C   UNL d   1     -49.873  13.145  23.391  0.00  0.00     0.015 A 
ENDBRANCH   7  10
ENDBRANCH   1   7
BRANCH   4  19
ATOM     19  C   UNL d   1     -46.591  13.173  22.921  0.00  0.00     0.279 C 
ATOM     20  O   UNL d   1     -46.015  13.540  22.474  0.00  0.00    -0.265 OA
ATOM     21  N   UNL d   1     -46.419  12.452  23.301  0.00  0.00    -0.206 NA
BRANCH  21  22
ATOM     22  C   UNL d   1     -45.663  12.107  23.226  0.00  0.00     0.102 C 
BRANCH  22  23
ATOM     23  C   UNL d   1     -45.559  11.293  23.355  0.00  0.00     0.021 C 
BRANCH  23  24
ATOM     24  C   UNL d   1     -44.797  10.968  23.333  0.00  0.00     0.002 A 
ATOM     25  C   UNL d   1     -44.649  10.242  23.682  0.00  0.00     0.000 A 
ATOM     26  C   UNL d   1     -43.887   9.916  23.661  0.00  0.00     0.000 A 
ATOM     27  C   UNL d   1     -43.274  10.318  23.291  0.00  0.00     0.000 A 
ATOM     28  C   UNL d   1     -43.421  11.056  22.936  0.00  0.00     0.000 A 
ATOM     29  C   UNL d   1     -44.183  11.381  22.957  0.00  0.00     0.000 A 
ENDBRANCH  23  24
ENDBRANCH  22  23
ENDBRANCH  21  22
ENDBRANCH   4  19
TORSDOF 6
ENDMDL
MODEL 5
REMARK VINA RESULT:      -5.8      1.362      1.829
REMARK  6 active torsions:
REMARK  status: ('A' for Active; 'I' for Inactive)
REMARK    1  A    between atoms: C_2  and  S_1 
REMARK    2  A    between atoms: N_4  and  S_1 
REMARK    3  A    between atoms: C_9  and  C_17 
REMARK       I    between atoms: N_20  and  C_9 
REMARK    4  A    between atoms: C_18  and  C_25 
REMARK    5  A    between atoms: C_24  and  N_20 
REMARK    6  A    between atoms: C_25  and  C_24 
ROOT
ATOM      1  N   UNL d   1     -47.473  13.724  22.655  0.00  0.00    -0.229 N 
ATOM      2  C   UNL d   1     -47.182  13.517  21.907  0.00  0.00     0.092 A 
ATOM      3  C   UNL d   1     -46.991  13.635  23.318  0.00  0.00     0.092 A 
ATOM      4  C   UNL d   1     -45.931  13.138  22.496  0.00  0.00     0.061 A 
ATOM      5  C   UNL d   1     -46.223  13.343  23.238  0.00  0.00     0.025 A 
ATOM      6  C   UNL d   1     -46.414  13.226  21.828  0.00  0.00     0.025 A 
ENDROOT
BRANCH   1   7
ATOM      7  S   UNL d   1     -48.244  14.017  22.735  0.00  0.00     0.273 S 
ATOM      8  O   UNL d   1     -49.009  14.308  22.814  0.00  0.00    -0.200 OA
ATOM      9  O   UNL d   1     -47.963  14.786  22.633  0.00  0.00    -0.200 OA
BRANCH   7  10
ATOM     10  C   UNL d   1     -48.527  13.245  22.838  0.00  0.00     0.125 A 
ATOM     11  C   UNL d   1     -49.057  12.920  22.295  0.00  0.00     0.142 A 
ATOM     12  C   UNL d   1     -49.339  12.153  22.397  0.00  0.00     0.131 A 
ATOM     13  N   UNL d   1     -49.397  13.233  21.608  0.00  0.00    -0.101 NA
ATOM     14  N   UNL d   1     -49.854  11.984  21.773  0.00  0.00    -0.102 NA
ATOM     15  C   UNL d   1     -49.093  11.702  23.042  0.00  0.00     0.023 A 
ATOM     16  O   UNL d   1     -49.892  12.645  21.288  0.00  0.00    -0.106 OA
ATOM     17  C   UNL d   1     -48.558  12.025  23.592  0.00  0.00     0.002 A 
ATOM     18  C   UNL d   1     -48.276  12.793  23.490  0.00  0.00     0.015 A 
ENDBRANCH   7  10
ENDBRANCH   1   7
BRANCH   4  19
ATOM     19  C   UNL d   1     -45.168  12.848  22.423  0.00  0.00     0.279 C 
ATOM     20  O   UNL d   1     -44.920  12.216  22.878  0.00  0.00    -0.265 OA
ATOM     21  N   UNL d   1     -44.639  13.198  21.884  0.00  0.00    -0.206 NA
BRANCH  21  22
ATOM     22  C   UNL d   1     -43.860  12.905  21.808  0.00  0.00     0.102 C 
BRANCH  22  23
ATOM     23  C   UNL d   1     -43.436  13.021  21.104  0.00  0.00     0.021 C 
BRANCH  23  24
ATOM     24  C   UNL d   1     -42.667  13.330  21.134  0.00  0.00     0.002 A 
ATOM     25  C   UNL d   1     -42.508  14.071  20.822  0.00  0.00     0.000 A 
ATOM     26  C   UNL d   1     -41.740  14.380  20.852  0.00  0.00     0.000 A 
ATOM     27  C   UNL d   1     -41.132  13.948  21.195  0.00  0.00     0.000 A 
ATOM     28  C   UNL d   1     -41.290  13.195  21.513  0.00  0.00     0.000 A 
ATOM     29  C   UNL d   1     -42.058  12.886  21.483  0.00  0.00     0.000 A 
ENDBRANCH  23  24
ENDBRANCH  22  23
ENDBRANCH  21  22
ENDBRANCH   4  19
TORSDOF 6
ENDMDL
MODEL 6
REMARK VINA RESULT:      -4.7      4.410      7.987
REMARK  6 active torsions:
REMARK  status: ('A' for Active; 'I' for Inactive)
REMARK    1  A    between atoms: C_2  and  S_1 
REMARK    2  A    between atoms: N_4  and  S_1 
REMARK    3  A    between atoms: C_9  and  C_17 
REMARK       I    between atoms: N_20  and  C_9 
REMARK    4  A    between atoms: C_18  and  C_25 
REMARK    5  A    between atoms: C_24  and  N_20 
REMARK    6  A    between atoms: C_25  and  C_24 
ROOT
ATOM      1  N   UNL d   1     -40.828  14.551  20.842  0.00  0.00    -0.229 N 
ATOM      2  C   UNL d   1     -41.592  14.844  20.706  0.00  0.00     0.092 A 
ATOM      3  C   UNL d   1     -40.733  13.794  21.153  0.00  0.00     0.092 A 
ATOM      4  C   UNL d   1     -42.152  13.619  21.195  0.00  0.00     0.061 A 
ATOM      5  C   UNL d   1     -41.392  13.330  21.329  0.00  0.00     0.025 A 
ATOM      6  C   UNL d   1     -42.251  14.380  20.882  0.00  0.00     0.025 A 
ENDROOT
BRANCH   1   7
ATOM      7  S   UNL d   1     -40.166  15.017  20.665  0.00  0.00     0.273 S 
ATOM      8  O   UNL d   1     -39.509  15.479  20.490  0.00  0.00    -0.200 OA
ATOM      9  O   UNL d   1     -40.158  15.299  21.440  0.00  0.00    -0.200 OA
BRANCH   7  10
ATOM     10  C   UNL d   1     -40.174  14.734  19.886  0.00  0.00     0.125 A 
ATOM     11  C   UNL d   1     -39.544  14.285  19.600  0.00  0.00     0.142 A 
ATOM     12  C   UNL d   1     -39.553  14.004  18.825  0.00  0.00     0.131 A 
ATOM     13  N   UNL d   1     -38.841  14.036  19.959  0.00  0.00    -0.101 NA
ATOM     14  N   UNL d   1     -38.855  13.578  18.700  0.00  0.00    -0.102 NA
ATOM     15  C   UNL d   1     -40.191  14.167  18.330  0.00  0.00     0.023 A 
ATOM     16  O   UNL d   1     -38.417  13.597  19.394  0.00  0.00    -0.106 OA
ATOM     17  C   UNL d   1     -40.829  14.619  18.615  0.00  0.00     0.002 A 
ATOM     18  C   UNL d   1     -40.821  14.901  19.389  0.00  0.00     0.015 A 
ENDBRANCH   7  10
ENDBRANCH   1   7
BRANCH   4  19
ATOM     19  C   UNL d   1     -42.803  13.153  21.372  0.00  0.00     0.279 C 
ATOM     20  O   UNL d   1     -42.763  12.341  21.295  0.00  0.00    -0.265 OA
ATOM     21  N   UNL d   1     -43.511  13.507  21.632  0.00  0.00    -0.206 NA
BRANCH  21  22
ATOM     22  C   UNL d   1     -44.176  13.035  21.813  0.00  0.00     0.102 C 
BRANCH  22  23
ATOM     23  C   UNL d   1     -44.942  13.330  21.698  0.00  0.00     0.021 C 
BRANCH  23  24
ATOM     24  C   UNL d   1     -45.520  13.210  22.279  0.00  0.00     0.002 A 
ATOM     25  C   UNL d   1     -45.966  13.840  22.555  0.00  0.00     0.000 A 
ATOM     26  C   UNL d   1     -46.544  13.719  23.137  0.00  0.00     0.000 A 
ATOM     27  C   UNL d   1     -46.675  12.969  23.442  0.00  0.00     0.000 A 
ATOM     28  C   UNL d   1     -46.225  12.327  23.165  0.00  0.00     0.000 A 
ATOM     29  C   UNL d   1     -45.647  12.447  22.583  0.00  0.00     0.000 A 
ENDBRANCH  23  24
ENDBRANCH  22  23
ENDBRANCH  21  22
ENDBRANCH   4  19
TORSDOF 6
ENDMDL
MODEL 7
REMARK VINA RESULT:      -4.6      5.692      8.973
REMARK  6 active torsions:
REMARK  status: ('A' for Active; 'I' for Inactive)
REMARK    1  A    between atoms: C_2  and  S_1 
REMARK    2  A    between atoms: N_4  and  S_1 
REMARK    3  A    between atoms: C_9  and  C_17 
REMARK       I    between atoms: N_20  and  C_9 
REMARK    4  A    between atoms: C_18  and  C_25 
REMARK    5  A    between atoms: C_24  and  N_20 
REMARK    6  A    between atoms: C_25  and  C_24 
ROOT
ATOM      1  N   UNL d   1     -39.461  15.253  19.334  0.00  0.00    -0.229 N 
ATOM      2  C   UNL d   1     -39.374  14.462  19.566  0.00  0.00     0.092 A 
ATOM      3  C   UNL d   1     -40.077  15.703  19.645  0.00  0.00     0.092 A 
ATOM      4  C   UNL d   1     -40.522  14.583  20.416  0.00  0.00     0.061 A 
ATOM      5  C   UNL d   1     -40.605  15.369  20.184  0.00  0.00     0.025 A 
ATOM      6  C   UNL d   1     -39.902  14.128  20.104  0.00  0.00     0.025 A 
ENDROOT
BRANCH   1   7
ATOM      7  S   UNL d   1     -38.930  15.589  18.793  0.00  0.00     0.273 S 
ATOM      8  O   UNL d   1     -38.403  15.922  18.256  0.00  0.00    -0.200 OA
ATOM      9  O   UNL d   1     -38.395  15.730  19.405  0.00  0.00    -0.200 OA
BRANCH   7  10
ATOM     10  C   UNL d   1     -39.467  15.447  18.178  0.00  0.00     0.125 A 
ATOM     11  C   UNL d   1     -39.279  14.918  17.574  0.00  0.00     0.142 A 
ATOM     12  C   UNL d   1     -39.813  14.777  16.963  0.00  0.00     0.131 A 
ATOM     13  N   UNL d   1     -38.604  14.456  17.442  0.00  0.00    -0.101 NA
ATOM     14  N   UNL d   1     -39.473  14.227  16.448  0.00  0.00    -0.102 NA
ATOM     15  C   UNL d   1     -40.541  15.164  16.949  0.00  0.00     0.023 A 
ATOM     16  O   UNL d   1     -38.731  14.029  16.739  0.00  0.00    -0.106 OA
ATOM     17  C   UNL d   1     -40.735  15.699  17.556  0.00  0.00     0.002 A 
ATOM     18  C   UNL d   1     -40.201  15.840  18.167  0.00  0.00     0.015 A 
ENDBRANCH   7  10
ENDBRANCH   1   7
BRANCH   4  19
ATOM     19  C   UNL d   1     -41.050  14.256  20.951  0.00  0.00     0.279 C 
ATOM     20  O   UNL d   1     -40.922  14.331  21.755  0.00  0.00    -0.265 OA
ATOM     21  N   UNL d   1     -41.720  13.845  20.679  0.00  0.00    -0.206 NA
BRANCH  21  22
ATOM     22  C   UNL d   1     -42.259  13.511  21.222  0.00  0.00     0.102 C 
BRANCH  22  23
ATOM     23  C   UNL d   1     -42.822  12.958  20.967  0.00  0.00     0.021 C 
BRANCH  23  24
ATOM     24  C   UNL d   1     -43.447  12.746  21.469  0.00  0.00     0.002 A 
ATOM     25  C   UNL d   1     -43.358  12.127  21.998  0.00  0.00     0.000 A 
ATOM     26  C   UNL d   1     -43.983  11.915  22.500  0.00  0.00     0.000 A 
ATOM     27  C   UNL d   1     -44.695  12.323  22.472  0.00  0.00     0.000 A 
ATOM     28  C   UNL d   1     -44.788  12.952  21.936  0.00  0.00     0.000 A 
ATOM     29  C   UNL d   1     -44.163  13.164  21.434  0.00  0.00     0.000 A 
ENDBRANCH  23  24
ENDBRANCH  22  23
ENDBRANCH  21  22
ENDBRANCH   4  19
TORSDOF 6
ENDMDL
