MODEL 1
REMARK VINA RESULT:     118.4      0.000      0.000
REMARK  6 active torsions:
REMARK  status: ('A' for Active; 'I' for Inactive)
REMARK       I    between atoms: C_4  and  N_1 
REMARK    1  A    between atoms: C_8  and  C_3 
REMARK    2  A    between atoms: C_16  and  C_4 
REMARK    3  A    between atoms: C_13  and  C_5 
REMARK    4  A    between atoms: N_6  and  C_9 
REMARK    5  A    between atoms: O_24  and  C_11 
REMARK    6  A    between atoms: O_25  and  C_17 
ROOT
ATOM      1  N   UNL d   1     -55.465-101.622 -42.908  0.00  0.00    -0.195 N 
ATOM      2  N   UNL d   1     -55.246-102.040 -42.214  0.00  0.00    -0.163 NA
ATOM      3  C   UNL d   1     -55.971-101.009 -42.667  0.00  0.00     0.088 A 
ATOM      4  C   UNL d   1     -55.213-101.795 -43.711  0.00  0.00     0.280 C 
ATOM      5  C   UNL d   1     -55.625-101.671 -41.570  0.00  0.00     0.103 A 
ATOM      6  C   UNL d   1     -56.061-101.050 -41.849  0.00  0.00     0.040 A 
ATOM      7  O   UNL d   1     -54.712-102.418 -43.864  0.00  0.00    -0.265 OA
ENDROOT
BRANCH   3   8
ATOM      8  C   UNL d   1     -56.300-100.476 -43.213  0.00  0.00     0.020 A 
ATOM      9  C   UNL d   1     -56.925-100.125 -42.823  0.00  0.00     0.028 A 
ATOM     10  C   UNL d   1     -57.383 -99.561 -43.200  0.00  0.00     0.116 A 
ATOM     11  C   UNL d   1     -57.215 -99.342 -43.979  0.00  0.00     0.116 A 
ATOM     12  C   UNL d   1     -56.563 -99.719 -44.364  0.00  0.00     0.026 A 
ATOM     13  C   UNL d   1     -56.106-100.282 -43.987  0.00  0.00     0.004 A 
BRANCH  10  14
ATOM     14  O   UNL d   1     -58.025 -99.202 -42.795  0.00  0.00    -0.326 OA
ATOM     15  C   UNL d   1     -58.743 -99.007 -43.201  0.00  0.00     0.181 C 
ENDBRANCH  10  14
BRANCH  11  16
ATOM     16  O   UNL d   1     -57.681 -98.763 -44.372  0.00  0.00    -0.326 OA
ATOM     17  C   UNL d   1     -58.480 -98.761 -44.282  0.00  0.00     0.181 C 
ENDBRANCH  11  16
ENDBRANCH   3   8
BRANCH   4  18
ATOM     18  C   UNL d   1     -55.498-101.302 -44.347  0.00  0.00     0.058 A 
ATOM     19  C   UNL d   1     -55.208-100.537 -44.444  0.00  0.00     0.005 A 
ATOM     20  C   UNL d   1     -55.475-100.050 -45.055  0.00  0.00     0.000 A 
ATOM     21  C   UNL d   1     -56.044-100.338 -45.578  0.00  0.00     0.000 A 
ATOM     22  C   UNL d   1     -56.333-101.103 -45.480  0.00  0.00     0.000 A 
ATOM     23  C   UNL d   1     -56.065-101.594 -44.864  0.00  0.00     0.005 A 
ENDBRANCH   4  18
BRANCH   5  24
ATOM     24  C   UNL d   1     -55.598-101.860 -40.771  0.00  0.00     0.019 A 
ATOM     25  C   UNL d   1     -55.403-102.647 -40.574  0.00  0.00     0.003 A 
ATOM     26  C   UNL d   1     -55.366-102.873 -39.793  0.00  0.00     0.024 A 
ATOM     27  C   UNL d   1     -55.523-102.318 -39.189  0.00  0.00     0.127 A 
ATOM     28  C   UNL d   1     -55.718-101.531 -39.387  0.00  0.00     0.024 A 
ATOM     29  C   UNL d   1     -55.752-101.315 -40.195  0.00  0.00     0.003 A 
BRANCH  27  30
ATOM     30  N   UNL d   1     -55.483-102.558 -38.378  0.00  0.00    -0.114 N 
ATOM     31  O   UNL d   1     -54.745-102.677 -38.010  0.00  0.00    -0.532 OA
ATOM     32  O   UNL d   1     -56.189-102.676 -37.947  0.00  0.00    -0.532 OA
ENDBRANCH  27  30
ENDBRANCH   5  24
TORSDOF 6
ENDMDL
