MODEL 1
REMARK VINA RESULT:      66.7      0.000      0.000
REMARK  4 active torsions:
REMARK  status: ('A' for Active; 'I' for Inactive)
REMARK    1  A    between atoms: N_5  and  C_2 
REMARK    2  A    between atoms: C_9  and  C_3 
REMARK       I    between atoms: C_7  and  N_5 
REMARK    3  A    between atoms: C_8  and  C_7 
REMARK    4  A    between atoms: O_16  and  C_13 
ROOT
ATOM      1  N   UNL d   1      57.742  49.543  53.530  0.00  0.00    -0.200 NA
ATOM      2  C   UNL d   1      57.631  49.623  52.721  0.00  0.00     0.216 A 
ATOM      3  C   UNL d   1      57.005  49.475  53.888  0.00  0.00     0.172 A 
ATOM      4  N   UNL d   1      56.433  49.513  53.295  0.00  0.00    -0.187 NA
ATOM      5  S   UNL d   1      56.824  49.604  52.577  0.00  0.00     0.054 SA
ENDROOT
BRANCH   2   6
ATOM      6  N   UNL d   1      58.225  49.706  52.155  0.00  0.00    -0.181 NA
ATOM      7  C   UNL d   1      58.916  49.272  52.226  0.00  0.00     0.281 C 
ATOM      8  O   UNL d   1      59.018  48.754  52.859  0.00  0.00    -0.265 OA
BRANCH   7   9
ATOM      9  C   UNL d   1      59.509  49.356  51.659  0.00  0.00     0.058 A 
ATOM     10  C   UNL d   1      60.276  49.545  51.891  0.00  0.00     0.007 A 
ATOM     11  C   UNL d   1      60.870  49.629  51.325  0.00  0.00     0.024 A 
ATOM     12  C   UNL d   1      60.697  49.523  50.526  0.00  0.00     0.094 A 
ATOM     13  C   UNL d   1      59.930  49.333  50.296  0.00  0.00     0.024 A 
ATOM     14  C   UNL d   1      59.336  49.250  50.862  0.00  0.00     0.007 A 
BRANCH  12  15
ATOM     15  O   UNL d   1      61.291  49.606  49.959  0.00  0.00    -0.328 OA
ATOM     16  C   UNL d   1      61.158  49.365  49.184  0.00  0.00     0.181 C 
ENDBRANCH  12  15
ENDBRANCH   7   9
ENDBRANCH   2   6
BRANCH   3  17
ATOM     17  C   UNL d   1      56.861  49.386  54.689  0.00  0.00     0.036 A 
ATOM     18  C   UNL d   1      57.388  49.703  55.238  0.00  0.00     0.003 A 
ATOM     19  C   UNL d   1      57.240  49.612  56.053  0.00  0.00     0.000 A 
ATOM     20  C   UNL d   1      56.565  49.203  56.311  0.00  0.00     0.000 A 
ATOM     21  C   UNL d   1      56.040  48.888  55.752  0.00  0.00     0.000 A 
ATOM     22  C   UNL d   1      56.185  48.978  54.946  0.00  0.00     0.003 A 
ENDBRANCH   3  17
TORSDOF 4
ENDMDL
