MODEL 1
REMARK VINA RESULT:      -9.0      0.000      0.000
REMARK  5 active torsions:
REMARK  status: ('A' for Active; 'I' for Inactive)
REMARK    1  A    between atoms: N_7  and  C_1 
REMARK    2  A    between atoms: C_6  and  N_2 
REMARK    3  A    between atoms: C_11  and  C_6 
REMARK    4  A    between atoms: C_12  and  N_7 
REMARK    5  A    between atoms: C_13  and  C_12 
ROOT
ATOM      1  C   UNL d   1      53.114  32.116  53.392  0.00  0.00     0.735 A 
ATOM      2  N   UNL d   1      53.533  32.810  53.562  0.00  0.00    -0.138 N 
ATOM      3  N   UNL d   1      52.369  32.323  53.092  0.00  0.00    -0.059 NA
ATOM      4  C   UNL d   1      53.049  33.452  53.368  0.00  0.00     0.100 A 
ATOM      5  C   UNL d   1      52.330  33.145  53.077  0.00  0.00     0.116 A 
ATOM      6  C   UNL d   1      53.161  34.267  53.415  0.00  0.00     0.020 A 
ATOM      7  C   UNL d   1      51.734  33.668  52.838  0.00  0.00     0.021 A 
ATOM      8  C   UNL d   1      52.566  34.780  53.176  0.00  0.00     0.002 A 
ATOM      9  C   UNL d   1      51.847  34.483  52.885  0.00  0.00     0.002 A 
ENDROOT
BRANCH   1  10
ATOM     10  N   UNL d   1      53.389  31.345  53.501  0.00  0.00    -0.056 NA
BRANCH  10  11
ATOM     11  C   UNL d   1      52.968  30.703  53.201  0.00  0.00     0.163 C 
BRANCH  11  12
ATOM     12  C   UNL d   1      53.221  29.932  53.335  0.00  0.00     0.255 C 
ATOM     13  O   UNL d   1      52.674  29.320  53.398  0.00  0.00    -0.281 OA
ENDBRANCH  11  12
ENDBRANCH  10  11
ENDBRANCH   1  10
BRANCH   2  14
ATOM     14  C   UNL d   1      54.296  32.852  53.870  0.00  0.00     0.098 C 
BRANCH  14  15
ATOM     15  C   UNL d   1      54.408  33.030  54.674  0.00  0.00     0.018 C 
ATOM     16  C   UNL d   1      54.023  32.595  55.252  0.00  0.00     0.002 C 
ATOM     17  C   UNL d   1      54.911  33.650  54.889  0.00  0.00     0.002 C 
ENDBRANCH  14  15
ENDBRANCH   2  14
TORSDOF 5
ENDMDL
MODEL 2
REMARK VINA RESULT:      -8.3      0.629      2.172
REMARK  5 active torsions:
REMARK  status: ('A' for Active; 'I' for Inactive)
REMARK    1  A    between atoms: N_7  and  C_1 
REMARK    2  A    between atoms: C_6  and  N_2 
REMARK    3  A    between atoms: C_11  and  C_6 
REMARK    4  A    between atoms: C_12  and  N_7 
REMARK    5  A    between atoms: C_13  and  C_12 
ROOT
ATOM      1  C   UNL d   1      53.193  31.991  53.588  0.00  0.00     0.735 A 
ATOM      2  N   UNL d   1      53.093  32.798  53.427  0.00  0.00    -0.138 N 
ATOM      3  N   UNL d   1      53.691  31.912  54.248  0.00  0.00    -0.059 NA
ATOM      4  C   UNL d   1      53.529  33.223  53.987  0.00  0.00     0.100 A 
ATOM      5  C   UNL d   1      53.897  32.671  54.492  0.00  0.00     0.116 A 
ATOM      6  C   UNL d   1      53.642  34.031  54.106  0.00  0.00     0.020 A 
ATOM      7  C   UNL d   1      54.374  32.944  55.112  0.00  0.00     0.021 A 
ATOM      8  C   UNL d   1      54.117  34.295  54.723  0.00  0.00     0.002 A 
ATOM      9  C   UNL d   1      54.486  33.751  55.231  0.00  0.00     0.002 A 
ENDROOT
BRANCH   1  10
ATOM     10  N   UNL d   1      52.856  31.367  53.166  0.00  0.00    -0.056 NA
BRANCH  10  11
ATOM     11  C   UNL d   1      53.097  30.591  53.300  0.00  0.00     0.163 C 
BRANCH  11  12
ATOM     12  C   UNL d   1      52.752  29.965  52.894  0.00  0.00     0.255 C 
ATOM     13  O   UNL d   1      52.549  29.273  53.292  0.00  0.00    -0.281 OA
ENDBRANCH  11  12
ENDBRANCH  10  11
ENDBRANCH   1  10
BRANCH   2  14
ATOM     14  C   UNL d   1      52.641  33.117  52.819  0.00  0.00     0.098 C 
BRANCH  14  15
ATOM     15  C   UNL d   1      51.906  33.466  52.989  0.00  0.00     0.018 C 
ATOM     16  C   UNL d   1      51.316  33.031  53.355  0.00  0.00     0.002 C 
ATOM     17  C   UNL d   1      51.773  34.257  52.787  0.00  0.00     0.002 C 
ENDBRANCH  14  15
ENDBRANCH   2  14
TORSDOF 5
ENDMDL
MODEL 3
REMARK VINA RESULT:      -8.1      1.548      3.008
REMARK  5 active torsions:
REMARK  status: ('A' for Active; 'I' for Inactive)
REMARK    1  A    between atoms: N_7  and  C_1 
REMARK    2  A    between atoms: C_6  and  N_2 
REMARK    3  A    between atoms: C_11  and  C_6 
REMARK    4  A    between atoms: C_12  and  N_7 
REMARK    5  A    between atoms: C_13  and  C_12 
ROOT
ATOM      1  C   UNL d   1      52.759  32.551  53.192  0.00  0.00     0.735 A 
ATOM      2  N   UNL d   1      53.239  32.229  53.786  0.00  0.00    -0.138 N 
ATOM      3  N   UNL d   1      52.505  31.937  52.695  0.00  0.00    -0.059 NA
ATOM      4  C   UNL d   1      53.284  31.413  53.660  0.00  0.00     0.100 A 
ATOM      5  C   UNL d   1      52.828  31.237  52.983  0.00  0.00     0.116 A 
ATOM      6  C   UNL d   1      53.673  30.808  54.064  0.00  0.00     0.020 A 
ATOM      7  C   UNL d   1      52.773  30.453  52.725  0.00  0.00     0.021 A 
ATOM      8  C   UNL d   1      53.614  30.032  53.801  0.00  0.00     0.002 A 
ATOM      9  C   UNL d   1      53.163  29.849  53.129  0.00  0.00     0.002 A 
ENDROOT
BRANCH   1  10
ATOM     10  N   UNL d   1      52.565  33.349  53.105  0.00  0.00    -0.056 NA
BRANCH  10  11
ATOM     11  C   UNL d   1      51.845  33.571  52.774  0.00  0.00     0.163 C 
BRANCH  11  12
ATOM     12  C   UNL d   1      51.629  34.363  52.723  0.00  0.00     0.255 C 
ATOM     13  O   UNL d   1      50.835  34.580  52.740  0.00  0.00    -0.281 OA
ENDBRANCH  11  12
ENDBRANCH  10  11
ENDBRANCH   1  10
BRANCH   2  14
ATOM     14  C   UNL d   1      53.604  32.648  54.393  0.00  0.00     0.098 C 
BRANCH  14  15
ATOM     15  C   UNL d   1      54.368  32.956  54.282  0.00  0.00     0.018 C 
ATOM     16  C   UNL d   1      54.736  32.895  53.552  0.00  0.00     0.002 C 
ATOM     17  C   UNL d   1      54.755  33.325  54.912  0.00  0.00     0.002 C 
ENDBRANCH  14  15
ENDBRANCH   2  14
TORSDOF 5
ENDMDL
MODEL 4
REMARK VINA RESULT:      -7.8      1.714      3.110
REMARK  5 active torsions:
REMARK  status: ('A' for Active; 'I' for Inactive)
REMARK    1  A    between atoms: N_7  and  C_1 
REMARK    2  A    between atoms: C_6  and  N_2 
REMARK    3  A    between atoms: C_11  and  C_6 
REMARK    4  A    between atoms: C_12  and  N_7 
REMARK    5  A    between atoms: C_13  and  C_12 
ROOT
ATOM      1  C   UNL d   1      52.331  33.437  53.501  0.00  0.00     0.735 A 
ATOM      2  N   UNL d   1      52.949  32.897  53.381  0.00  0.00    -0.138 N 
ATOM      3  N   UNL d   1      52.550  33.959  54.108  0.00  0.00    -0.059 NA
ATOM      4  C   UNL d   1      53.552  33.082  53.915  0.00  0.00     0.100 A 
ATOM      5  C   UNL d   1      53.301  33.739  54.363  0.00  0.00     0.116 A 
ATOM      6  C   UNL d   1      54.292  32.745  54.055  0.00  0.00     0.020 A 
ATOM      7  C   UNL d   1      53.801  34.046  54.946  0.00  0.00     0.021 A 
ATOM      8  C   UNL d   1      54.783  33.056  54.636  0.00  0.00     0.002 A 
ATOM      9  C   UNL d   1      54.540  33.710  55.086  0.00  0.00     0.002 A 
ENDROOT
BRANCH   1  10
ATOM     10  N   UNL d   1      51.617  33.457  53.086  0.00  0.00    -0.056 NA
BRANCH  10  11
ATOM     11  C   UNL d   1      51.150  34.135  53.089  0.00  0.00     0.163 C 
BRANCH  11  12
ATOM     12  C   UNL d   1      50.498  34.200  52.592  0.00  0.00     0.255 C 
ATOM     13  O   UNL d   1      49.828  34.613  52.837  0.00  0.00    -0.281 OA
ENDBRANCH  11  12
ENDBRANCH  10  11
ENDBRANCH   1  10
BRANCH   2  14
ATOM     14  C   UNL d   1      52.957  32.287  52.829  0.00  0.00     0.098 C 
BRANCH  14  15
ATOM     15  C   UNL d   1      52.782  31.510  53.069  0.00  0.00     0.018 C 
ATOM     16  C   UNL d   1      52.020  31.308  53.295  0.00  0.00     0.002 C 
ATOM     17  C   UNL d   1      53.381  30.941  53.078  0.00  0.00     0.002 C 
ENDBRANCH  14  15
ENDBRANCH   2  14
TORSDOF 5
ENDMDL
MODEL 5
REMARK VINA RESULT:      -7.7      1.589      3.352
REMARK  5 active torsions:
REMARK  status: ('A' for Active; 'I' for Inactive)
REMARK    1  A    between atoms: N_7  and  C_1 
REMARK    2  A    between atoms: C_6  and  N_2 
REMARK    3  A    between atoms: C_11  and  C_6 
REMARK    4  A    between atoms: C_12  and  N_7 
REMARK    5  A    between atoms: C_13  and  C_12 
ROOT
ATOM      1  C   UNL d   1      53.693  32.413  54.008  0.00  0.00     0.735 A 
ATOM      2  N   UNL d   1      53.221  32.283  53.339  0.00  0.00    -0.138 N 
ATOM      3  N   UNL d   1      53.873  31.680  54.352  0.00  0.00    -0.059 NA
ATOM      4  C   UNL d   1      53.106  31.468  53.267  0.00  0.00     0.100 A 
ATOM      5  C   UNL d   1      53.512  31.099  53.895  0.00  0.00     0.116 A 
ATOM      6  C   UNL d   1      52.691  31.011  52.719  0.00  0.00     0.020 A 
ATOM      7  C   UNL d   1      53.492  30.274  53.961  0.00  0.00     0.021 A 
ATOM      8  C   UNL d   1      52.677  30.193  52.790  0.00  0.00     0.002 A 
ATOM      9  C   UNL d   1      53.078  29.819  53.413  0.00  0.00     0.002 A 
ENDROOT
BRANCH   1  10
ATOM     10  N   UNL d   1      53.945  33.149  54.288  0.00  0.00    -0.056 NA
BRANCH  10  11
ATOM     11  C   UNL d   1      54.605  33.208  54.776  0.00  0.00     0.163 C 
BRANCH  11  12
ATOM     12  C   UNL d   1      54.782  33.910  55.165  0.00  0.00     0.255 C 
ATOM     13  O   UNL d   1      55.560  34.091  55.366  0.00  0.00    -0.281 OA
ENDBRANCH  11  12
ENDBRANCH  10  11
ENDBRANCH   1  10
BRANCH   2  14
ATOM     14  C   UNL d   1      52.920  32.863  52.839  0.00  0.00     0.098 C 
BRANCH  14  15
ATOM     15  C   UNL d   1      52.234  33.279  53.054  0.00  0.00     0.018 C 
ATOM     16  C   UNL d   1      51.588  32.881  53.365  0.00  0.00     0.002 C 
ATOM     17  C   UNL d   1      52.205  34.100  52.953  0.00  0.00     0.002 C 
ENDBRANCH  14  15
ENDBRANCH   2  14
TORSDOF 5
ENDMDL
MODEL 6
REMARK VINA RESULT:      -7.3      1.725      2.678
REMARK  5 active torsions:
REMARK  status: ('A' for Active; 'I' for Inactive)
REMARK    1  A    between atoms: N_7  and  C_1 
REMARK    2  A    between atoms: C_6  and  N_2 
REMARK    3  A    between atoms: C_11  and  C_6 
REMARK    4  A    between atoms: C_12  and  N_7 
REMARK    5  A    between atoms: C_13  and  C_12 
ROOT
ATOM      1  C   UNL d   1      53.323  33.374  54.030  0.00  0.00     0.735 A 
ATOM      2  N   UNL d   1      53.031  32.961  53.373  0.00  0.00    -0.138 N 
ATOM      3  N   UNL d   1      52.818  34.014  54.185  0.00  0.00    -0.059 NA
ATOM      4  C   UNL d   1      52.344  33.343  53.119  0.00  0.00     0.100 A 
ATOM      5  C   UNL d   1      52.216  33.994  53.624  0.00  0.00     0.116 A 
ATOM      6  C   UNL d   1      51.819  33.190  52.501  0.00  0.00     0.020 A 
ATOM      7  C   UNL d   1      51.559  34.482  53.498  0.00  0.00     0.021 A 
ATOM      8  C   UNL d   1      51.169  33.679  52.382  0.00  0.00     0.002 A 
ATOM      9  C   UNL d   1      51.035  34.329  52.880  0.00  0.00     0.002 A 
ENDROOT
BRANCH   1  10
ATOM     10  N   UNL d   1      54.002  33.184  54.460  0.00  0.00    -0.056 NA
BRANCH  10  11
ATOM     11  C   UNL d   1      54.401  33.762  54.889  0.00  0.00     0.163 C 
BRANCH  11  12
ATOM     12  C   UNL d   1      55.128  33.603  55.239  0.00  0.00     0.255 C 
ATOM     13  O   UNL d   1      55.606  34.218  55.505  0.00  0.00    -0.281 OA
ENDBRANCH  11  12
ENDBRANCH  10  11
ENDBRANCH   1  10
BRANCH   2  14
ATOM     14  C   UNL d   1      53.367  32.289  53.036  0.00  0.00     0.098 C 
BRANCH  14  15
ATOM     15  C   UNL d   1      53.125  31.535  53.287  0.00  0.00     0.018 C 
ATOM     16  C   UNL d   1      53.375  31.239  54.009  0.00  0.00     0.002 C 
ATOM     17  C   UNL d   1      52.629  31.084  52.803  0.00  0.00     0.002 C 
ENDBRANCH  14  15
ENDBRANCH   2  14
TORSDOF 5
ENDMDL
