MODEL 1
REMARK VINA RESULT:      80.6      0.000      0.000
REMARK  8 active torsions:
REMARK  status: ('A' for Active; 'I' for Inactive)
REMARK    1  A    between atoms: O_10  and  C_1 
REMARK    2  A    between atoms: C_12  and  C_4 
REMARK    3  A    between atoms: N_7  and  C_12 
REMARK    4  A    between atoms: C_15  and  N_8 
REMARK    5  A    between atoms: C_9  and  C_16 
REMARK       I    between atoms: N_11  and  C_9 
REMARK    6  A    between atoms: C_16  and  O_10 
REMARK    7  A    between atoms: C_22  and  N_11 
REMARK    8  A    between atoms: C_21  and  C_15 
ROOT
ATOM      1  C   UNL d   1      61.651  45.868  49.884  0.00  0.00     0.164 A 
ATOM      2  C   UNL d   1      62.036  47.181  49.771  0.00  0.00     0.070 A 
ATOM      3  C   UNL d   1      62.082  46.424  49.507  0.00  0.00     0.222 A 
ATOM      4  C   UNL d   1      61.571  47.371  50.393  0.00  0.00     0.121 A 
ATOM      5  C   UNL d   1      61.186  46.058  50.506  0.00  0.00     0.150 A 
ATOM      6  O   UNL d   1      61.147  46.806  50.758  0.00  0.00    -0.301 OA
ATOM      7  O   UNL d   1      62.542  46.236  48.892  0.00  0.00    -0.284 OA
ENDROOT
BRANCH   4   8
ATOM      8  C   UNL d   1      61.532  48.127  50.648  0.00  0.00     0.105 C 
BRANCH   8   9
ATOM      9  N   UNL d   1      60.816  48.535  50.623  0.00  0.00    -0.298 N 
ATOM     10  C   UNL d   1      60.547  48.877  49.916  0.00  0.00     0.100 A 
ATOM     11  C   UNL d   1      59.824  49.288  49.895  0.00  0.00     0.100 A 
ATOM     12  N   UNL d   1      59.367  49.358  50.579  0.00  0.00    -0.300 N 
ATOM     13  C   UNL d   1      59.631  49.016  51.294  0.00  0.00     0.100 A 
ATOM     14  C   UNL d   1      60.352  48.608  51.311  0.00  0.00     0.100 A 
BRANCH  12  15
ATOM     15  C   UNL d   1      58.648  49.707  50.776  0.00  0.00     0.080 C 
BRANCH  15  16
ATOM     16  C   UNL d   1      57.861  49.615  50.518  0.00  0.00     0.018 A 
ATOM     17  C   UNL d   1      57.258  49.453  51.064  0.00  0.00     0.002 A 
ATOM     18  C   UNL d   1      56.482  49.363  50.801  0.00  0.00     0.000 A 
ATOM     19  C   UNL d   1      56.301  49.433  50.001  0.00  0.00     0.000 A 
ATOM     20  C   UNL d   1      56.911  49.596  49.449  0.00  0.00     0.000 A 
ATOM     21  C   UNL d   1      57.688  49.686  49.716  0.00  0.00     0.002 A 
ENDBRANCH  15  16
ENDBRANCH  12  15
ENDBRANCH   8   9
ENDBRANCH   4   8
BRANCH   1  22
ATOM     22  O   UNL d   1      61.427  45.104  49.950  0.00  0.00    -0.295 OA
BRANCH  22  23
ATOM     23  C   UNL d   1      61.621  44.667  50.631  0.00  0.00     0.185 C 
BRANCH  23  24
ATOM     24  C   UNL d   1      61.616  43.846  50.591  0.00  0.00     0.304 C 
ATOM     25  N   UNL d   1      61.989  43.120  50.753  0.00  0.00    -0.206 NA
ATOM     26  O   UNL d   1      60.992  43.435  50.246  0.00  0.00    -0.263 OA
BRANCH  25  27
ATOM     27  C   UNL d   1      62.633  42.697  51.070  0.00  0.00     0.085 C 
ATOM     28  C   UNL d   1      63.157  43.073  51.584  0.00  0.00     0.021 C 
ATOM     29  C   UNL d   1      62.749  41.902  50.871  0.00  0.00     0.021 C 
ENDBRANCH  25  27
ENDBRANCH  23  24
ENDBRANCH  22  23
ENDBRANCH   1  22
TORSDOF 8
ENDMDL
