MODEL 1
REMARK VINA RESULT:      -3.6      0.000      0.000
REMARK  3 active torsions:
REMARK  status: ('A' for Active; 'I' for Inactive)
REMARK    1  A    between atoms: N_5  and  C_1 
REMARK    2  A    between atoms: C_8  and  C_2 
REMARK       I    between atoms: C_7  and  N_5 
REMARK    3  A    between atoms: C_9  and  C_7 
ROOT
ATOM      1  C   UNL d   1      58.255  -0.671  30.114  0.00  0.00     0.119 A 
ATOM      2  C   UNL d   1      58.618  -1.194  29.576  0.00  0.00     0.084 A 
ATOM      3  S   UNL d   1      58.510   0.086  29.937  0.00  0.00    -0.068 SA
ATOM      4  C   UNL d   1      59.094  -0.749  29.072  0.00  0.00     0.013 A 
ATOM      5  C   UNL d   1      59.027   0.048  29.297  0.00  0.00     0.031 A 
ATOM      6  C   UNL d   1      59.555  -1.036  28.456  0.00  0.00     0.001 C 
ATOM      7  C   UNL d   1      59.411   0.680  28.939  0.00  0.00     0.007 C 
ENDROOT
BRANCH   1   8
ATOM      8  N   UNL d   1      57.734  -0.884  30.714  0.00  0.00    -0.200 NA
ATOM      9  C   UNL d   1      57.405  -0.300  31.193  0.00  0.00     0.302 C 
ATOM     10  O   UNL d   1      57.590   0.496  31.079  0.00  0.00    -0.263 OA
BRANCH   9  11
ATOM     11  C   UNL d   1      56.879  -0.522  31.798  0.00  0.00     0.158 A 
ATOM     12  O   UNL d   1      56.514  -1.260  31.869  0.00  0.00    -0.300 OA
ATOM     13  C   UNL d   1      56.032  -1.242  32.557  0.00  0.00     0.123 A 
ATOM     14  C   UNL d   1      56.110  -0.499  32.892  0.00  0.00     0.029 A 
ATOM     15  C   UNL d   1      56.629  -0.043  32.436  0.00  0.00     0.032 A 
ENDBRANCH   9  11
ENDBRANCH   1   8
BRANCH   2  16
ATOM     16  C   UNL d   1      58.516  -2.009  29.555  0.00  0.00     0.299 C 
ATOM     17  O   UNL d   1      57.874  -2.337  29.137  0.00  0.00    -0.264 OA
ATOM     18  N   UNL d   1      59.046  -2.513  29.946  0.00  0.00    -0.102 N 
ENDBRANCH   2  16
TORSDOF 3
ENDMDL
MODEL 2
REMARK VINA RESULT:      -3.2      1.144      1.859
REMARK  3 active torsions:
REMARK  status: ('A' for Active; 'I' for Inactive)
REMARK    1  A    between atoms: N_5  and  C_1 
REMARK    2  A    between atoms: C_8  and  C_2 
REMARK       I    between atoms: C_7  and  N_5 
REMARK    3  A    between atoms: C_9  and  C_7 
ROOT
ATOM      1  C   UNL d   1      58.445  -0.885  29.981  0.00  0.00     0.119 A 
ATOM      2  C   UNL d   1      59.031  -0.591  29.465  0.00  0.00     0.084 A 
ATOM      3  S   UNL d   1      58.387  -1.692  29.858  0.00  0.00    -0.068 SA
ATOM      4  C   UNL d   1      59.327  -1.225  29.029  0.00  0.00     0.013 A 
ATOM      5  C   UNL d   1      58.925  -1.911  29.274  0.00  0.00     0.031 A 
ATOM      6  C   UNL d   1      59.912  -1.192  28.455  0.00  0.00     0.001 C 
ATOM      7  C   UNL d   1      59.049  -2.667  28.981  0.00  0.00     0.007 C 
ENDROOT
BRANCH   1   8
ATOM      8  N   UNL d   1      58.008  -0.438  30.515  0.00  0.00    -0.200 NA
ATOM      9  C   UNL d   1      57.410  -0.799  30.953  0.00  0.00     0.302 C 
ATOM     10  O   UNL d   1      57.243  -1.602  30.861  0.00  0.00    -0.263 OA
BRANCH   9  11
ATOM     11  C   UNL d   1      56.972  -0.341  31.491  0.00  0.00     0.158 A 
ATOM     12  O   UNL d   1      56.724   0.437  31.369  0.00  0.00    -0.300 OA
ATOM     13  C   UNL d   1      56.301   0.682  32.052  0.00  0.00     0.123 A 
ATOM     14  C   UNL d   1      56.297   0.053  32.577  0.00  0.00     0.029 A 
ATOM     15  C   UNL d   1      56.707  -0.586  32.245  0.00  0.00     0.032 A 
ENDBRANCH   9  11
ENDBRANCH   1   8
BRANCH   2  16
ATOM     16  C   UNL d   1      59.269   0.193  29.405  0.00  0.00     0.299 C 
ATOM     17  O   UNL d   1      59.816   0.504  29.951  0.00  0.00    -0.264 OA
ATOM     18  N   UNL d   1      58.971   0.682  28.805  0.00  0.00    -0.102 N 
ENDBRANCH   2  16
TORSDOF 3
ENDMDL
MODEL 3
REMARK VINA RESULT:      -3.0      1.273      1.393
REMARK  3 active torsions:
REMARK  status: ('A' for Active; 'I' for Inactive)
REMARK    1  A    between atoms: N_5  and  C_1 
REMARK    2  A    between atoms: C_8  and  C_2 
REMARK       I    between atoms: C_7  and  N_5 
REMARK    3  A    between atoms: C_9  and  C_7 
ROOT
ATOM      1  C   UNL d   1      58.729   0.132  30.311  0.00  0.00     0.119 A 
ATOM      2  C   UNL d   1      58.860   0.077  29.490  0.00  0.00     0.084 A 
ATOM      3  S   UNL d   1      59.433   0.363  30.660  0.00  0.00    -0.068 SA
ATOM      4  C   UNL d   1      59.646   0.276  29.343  0.00  0.00     0.013 A 
ATOM      5  C   UNL d   1      60.003   0.454  30.072  0.00  0.00     0.031 A 
ATOM      6  C   UNL d   1      60.017   0.296  28.611  0.00  0.00     0.001 C 
ATOM      7  C   UNL d   1      60.785   0.679  30.179  0.00  0.00     0.007 C 
ENDROOT
BRANCH   1   8
ATOM      8  N   UNL d   1      58.019  -0.020  30.695  0.00  0.00    -0.200 NA
ATOM      9  C   UNL d   1      57.912   0.240  31.471  0.00  0.00     0.302 C 
ATOM     10  O   UNL d   1      58.509   0.651  31.865  0.00  0.00    -0.263 OA
BRANCH   9  11
ATOM     11  C   UNL d   1      57.191   0.083  31.853  0.00  0.00     0.158 A 
ATOM     12  O   UNL d   1      56.842  -0.661  31.934  0.00  0.00    -0.300 OA
ATOM     13  C   UNL d   1      56.123  -0.563  32.355  0.00  0.00     0.123 A 
ATOM     14  C   UNL d   1      56.044   0.234  32.525  0.00  0.00     0.029 A 
ATOM     15  C   UNL d   1      56.695   0.646  32.221  0.00  0.00     0.032 A 
ENDBRANCH   9  11
ENDBRANCH   1   8
BRANCH   2  16
ATOM     16  C   UNL d   1      58.300  -0.139  28.927  0.00  0.00     0.299 C 
ATOM     17  O   UNL d   1      57.677   0.382  28.741  0.00  0.00    -0.264 OA
ATOM     18  N   UNL d   1      58.347  -0.870  28.540  0.00  0.00    -0.102 N 
ENDBRANCH   2  16
TORSDOF 3
ENDMDL
MODEL 4
REMARK VINA RESULT:      -2.2      1.683      3.963
REMARK  3 active torsions:
REMARK  status: ('A' for Active; 'I' for Inactive)
REMARK    1  A    between atoms: N_5  and  C_1 
REMARK    2  A    between atoms: C_8  and  C_2 
REMARK       I    between atoms: C_7  and  N_5 
REMARK    3  A    between atoms: C_9  and  C_7 
ROOT
ATOM      1  C   UNL d   1      56.913  -0.044  32.476  0.00  0.00     0.119 A 
ATOM      2  C   UNL d   1      56.390  -0.545  32.887  0.00  0.00     0.084 A 
ATOM      3  S   UNL d   1      57.244   0.470  33.020  0.00  0.00    -0.068 SA
ATOM      4  C   UNL d   1      56.406  -0.332  33.683  0.00  0.00     0.013 A 
ATOM      5  C   UNL d   1      56.938   0.300  33.766  0.00  0.00     0.031 A 
ATOM      6  C   UNL d   1      55.975  -0.679  34.291  0.00  0.00     0.001 C 
ATOM      7  C   UNL d   1      57.121   0.682  34.469  0.00  0.00     0.007 C 
ENDROOT
BRANCH   1   8
ATOM      8  N   UNL d   1      57.065  -0.066  31.668  0.00  0.00    -0.200 NA
ATOM      9  C   UNL d   1      57.743   0.296  31.372  0.00  0.00     0.302 C 
ATOM     10  O   UNL d   1      58.272   0.682  31.875  0.00  0.00    -0.263 OA
BRANCH   9  11
ATOM     11  C   UNL d   1      57.890   0.270  30.554  0.00  0.00     0.158 A 
ATOM     12  O   UNL d   1      57.383   0.549  29.965  0.00  0.00    -0.300 OA
ATOM     13  C   UNL d   1      57.750   0.411  29.223  0.00  0.00     0.123 A 
ATOM     14  C   UNL d   1      58.472   0.052  29.369  0.00  0.00     0.029 A 
ATOM     15  C   UNL d   1      58.573  -0.042  30.186  0.00  0.00     0.032 A 
ENDBRANCH   9  11
ENDBRANCH   1   8
BRANCH   2  16
ATOM     16  C   UNL d   1      55.938  -1.146  32.554  0.00  0.00     0.299 C 
ATOM     17  O   UNL d   1      56.300  -1.861  32.327  0.00  0.00    -0.264 OA
ATOM     18  N   UNL d   1      55.122  -1.050  32.439  0.00  0.00    -0.102 N 
ENDBRANCH   2  16
TORSDOF 3
ENDMDL
MODEL 5
REMARK VINA RESULT:      -1.8      2.060      3.635
REMARK  3 active torsions:
REMARK  status: ('A' for Active; 'I' for Inactive)
REMARK    1  A    between atoms: N_5  and  C_1 
REMARK    2  A    between atoms: C_8  and  C_2 
REMARK       I    between atoms: C_7  and  N_5 
REMARK    3  A    between atoms: C_9  and  C_7 
ROOT
ATOM      1  C   UNL d   1      59.543  -1.369  29.274  0.00  0.00     0.119 A 
ATOM      2  C   UNL d   1      59.139  -0.709  29.584  0.00  0.00     0.084 A 
ATOM      3  S   UNL d   1      60.332  -1.164  29.198  0.00  0.00    -0.068 SA
ATOM      4  C   UNL d   1      59.688  -0.104  29.695  0.00  0.00     0.013 A 
ATOM      5  C   UNL d   1      60.431  -0.388  29.455  0.00  0.00     0.031 A 
ATOM      6  C   UNL d   1      59.534   0.647  29.990  0.00  0.00     0.001 C 
ATOM      7  C   UNL d   1      61.133   0.036  29.474  0.00  0.00     0.007 C 
ENDROOT
BRANCH   1   8
ATOM      8  N   UNL d   1      59.205  -2.092  29.081  0.00  0.00    -0.200 NA
ATOM      9  C   UNL d   1      59.681  -2.764  29.031  0.00  0.00     0.302 C 
ATOM     10  O   UNL d   1      60.493  -2.719  29.172  0.00  0.00    -0.263 OA
BRANCH   9  11
ATOM     11  C   UNL d   1      59.331  -3.492  28.835  0.00  0.00     0.158 A 
ATOM     12  O   UNL d   1      58.522  -3.657  28.853  0.00  0.00    -0.300 OA
ATOM     13  C   UNL d   1      58.418  -4.455  28.615  0.00  0.00     0.123 A 
ATOM     14  C   UNL d   1      59.160  -4.764  28.456  0.00  0.00     0.029 A 
ATOM     15  C   UNL d   1      59.734  -4.182  28.587  0.00  0.00     0.032 A 
ENDBRANCH   9  11
ENDBRANCH   1   8
BRANCH   2  16
ATOM     16  C   UNL d   1      58.334  -0.672  29.748  0.00  0.00     0.299 C 
ATOM     17  O   UNL d   1      57.795  -0.489  29.140  0.00  0.00    -0.264 OA
ATOM     18  N   UNL d   1      58.051  -0.814  30.514  0.00  0.00    -0.102 N 
ENDBRANCH   2  16
TORSDOF 3
ENDMDL
MODEL 6
REMARK VINA RESULT:      -1.5      8.668      9.681
REMARK  3 active torsions:
REMARK  status: ('A' for Active; 'I' for Inactive)
REMARK    1  A    between atoms: N_5  and  C_1 
REMARK    2  A    between atoms: C_8  and  C_2 
REMARK       I    between atoms: C_7  and  N_5 
REMARK    3  A    between atoms: C_9  and  C_7 
ROOT
ATOM      1  C   UNL d   1      59.515  -9.017  34.722  0.00  0.00     0.119 A 
ATOM      2  C   UNL d   1      59.588  -8.348  35.214  0.00  0.00     0.084 A 
ATOM      3  S   UNL d   1      60.083  -9.559  34.952  0.00  0.00    -0.068 SA
ATOM      4  C   UNL d   1      60.204  -8.489  35.744  0.00  0.00     0.013 A 
ATOM      5  C   UNL d   1      60.512  -9.243  35.581  0.00  0.00     0.031 A 
ATOM      6  C   UNL d   1      60.470  -7.979  36.330  0.00  0.00     0.001 C 
ATOM      7  C   UNL d   1      61.133  -9.602  35.979  0.00  0.00     0.007 C 
ENDROOT
BRANCH   1   8
ATOM      8  N   UNL d   1      58.968  -9.109  34.115  0.00  0.00    -0.200 NA
ATOM      9  C   UNL d   1      59.194  -9.484  33.417  0.00  0.00     0.302 C 
ATOM     10  O   UNL d   1      59.963  -9.768  33.318  0.00  0.00    -0.263 OA
BRANCH   9  11
ATOM     11  C   UNL d   1      58.636  -9.574  32.808  0.00  0.00     0.158 A 
ATOM     12  O   UNL d   1      57.822  -9.451  32.880  0.00  0.00    -0.300 OA
ATOM     13  C   UNL d   1      57.472  -9.604  32.132  0.00  0.00     0.123 A 
ATOM     14  C   UNL d   1      58.073  -9.816  31.618  0.00  0.00     0.029 A 
ATOM     15  C   UNL d   1      58.797  -9.803  32.020  0.00  0.00     0.032 A 
ENDBRANCH   9  11
ENDBRANCH   1   8
BRANCH   2  16
ATOM     16  C   UNL d   1      59.126  -7.670  35.175  0.00  0.00     0.299 C 
ATOM     17  O   UNL d   1      59.336  -7.053  34.656  0.00  0.00    -0.264 OA
ATOM     18  N   UNL d   1      58.449  -7.590  35.648  0.00  0.00    -0.102 N 
ENDBRANCH   2  16
TORSDOF 3
ENDMDL
