MODEL 1
REMARK VINA RESULT:      -6.0      0.000      0.000
REMARK  3 active torsions:
REMARK  status: ('A' for Active; 'I' for Inactive)
REMARK    1  A    between atoms: C_10  and  N_2 
REMARK    2  A    between atoms: C_15  and  C_3 
REMARK    3  A    between atoms: C_6  and  C_4 
ROOT
ATOM      1  N   UNL d   1     -41.986-123.371 -52.172  0.00  0.00    -0.165 NA
ATOM      2  N   UNL d   1     -41.728-122.381 -53.165  0.00  0.00    -0.228 N 
ATOM      3  C   UNL d   1     -41.479-122.092 -51.793  0.00  0.00     0.081 A 
ATOM      4  C   UNL d   1     -41.734-122.848 -51.585  0.00  0.00     0.106 A 
ATOM      5  C   UNL d   1     -41.476-121.858 -52.579  0.00  0.00     0.105 A 
ENDROOT
BRANCH   4   6
ATOM      6  C   UNL d   1     -41.739-123.087 -50.794  0.00  0.00     0.022 A 
ATOM      7  C   UNL d   1     -42.355-122.855 -50.301  0.00  0.00     0.028 A 
ATOM      8  C   UNL d   1     -42.361-123.094 -49.509  0.00  0.00     0.123 A 
ATOM      9  O   UNL d   1     -42.980-122.861 -49.014  0.00  0.00    -0.301 OA
ATOM     10  C   UNL d   1     -41.738-123.571 -49.216  0.00  0.00     0.123 A 
ATOM     11  C   UNL d   1     -42.980-123.106 -48.212  0.00  0.00     0.149 A 
ATOM     12  C   UNL d   1     -42.363-123.578 -47.923  0.00  0.00     0.149 A 
ATOM     13  O   UNL d   1     -41.745-123.808 -48.427  0.00  0.00    -0.301 OA
ATOM     14  C   UNL d   1     -41.128-123.796 -49.720  0.00  0.00     0.027 A 
ATOM     15  C   UNL d   1     -41.123-123.559 -50.505  0.00  0.00     0.004 A 
ENDBRANCH   4   6
BRANCH   3  16
ATOM     16  C   UNL d   1     -41.216-121.546 -51.180  0.00  0.00     0.237 C 
ATOM     17  O   UNL d   1     -41.123-120.721 -51.367  0.00  0.00    -0.283 OA
ENDBRANCH   3  16
BRANCH   2  18
ATOM     18  C   UNL d   1     -41.803-122.351 -53.986  0.00  0.00     0.083 A 
ATOM     19  C   UNL d   1     -42.486-122.047 -54.332  0.00  0.00     0.019 A 
ATOM     20  C   UNL d   1     -42.552-122.021 -55.155  0.00  0.00     0.002 A 
ATOM     21  C   UNL d   1     -41.937-122.298 -55.628  0.00  0.00     0.000 A 
ATOM     22  C   UNL d   1     -41.251-122.603 -55.279  0.00  0.00     0.002 A 
ATOM     23  C   UNL d   1     -41.187-122.628 -54.458  0.00  0.00     0.019 A 
ENDBRANCH   2  18
TORSDOF 3
ENDMDL
MODEL 2
REMARK VINA RESULT:      -5.7      1.382      4.830
REMARK  3 active torsions:
REMARK  status: ('A' for Active; 'I' for Inactive)
REMARK    1  A    between atoms: C_10  and  N_2 
REMARK    2  A    between atoms: C_15  and  C_3 
REMARK    3  A    between atoms: C_6  and  C_4 
ROOT
ATOM      1  N   UNL d   1     -42.090-123.529 -51.667  0.00  0.00    -0.165 NA
ATOM      2  N   UNL d   1     -41.849-122.977 -50.375  0.00  0.00    -0.228 N 
ATOM      3  C   UNL d   1     -41.473-122.250 -51.540  0.00  0.00     0.081 A 
ATOM      4  C   UNL d   1     -41.758-122.859 -52.015  0.00  0.00     0.106 A 
ATOM      5  C   UNL d   1     -41.517-122.307 -50.723  0.00  0.00     0.105 A 
ENDROOT
BRANCH   4   6
ATOM      6  C   UNL d   1     -41.716-122.804 -52.839  0.00  0.00     0.022 A 
ATOM      7  C   UNL d   1     -42.220-122.294 -53.242  0.00  0.00     0.028 A 
ATOM      8  C   UNL d   1     -42.178-122.239 -54.066  0.00  0.00     0.123 A 
ATOM      9  O   UNL d   1     -42.685-121.727 -54.470  0.00  0.00    -0.301 OA
ATOM     10  C   UNL d   1     -41.620-122.704 -54.484  0.00  0.00     0.123 A 
ATOM     11  C   UNL d   1     -42.637-121.675 -55.306  0.00  0.00     0.149 A 
ATOM     12  C   UNL d   1     -42.085-122.136 -55.719  0.00  0.00     0.149 A 
ATOM     13  O   UNL d   1     -41.580-122.647 -55.305  0.00  0.00    -0.301 OA
ATOM     14  C   UNL d   1     -41.123-123.209 -54.069  0.00  0.00     0.027 A 
ATOM     15  C   UNL d   1     -41.164-123.264 -53.252  0.00  0.00     0.004 A 
ENDBRANCH   4   6
BRANCH   3  16
ATOM     16  C   UNL d   1     -41.126-121.550 -51.904  0.00  0.00     0.237 C 
ATOM     17  O   UNL d   1     -41.123-120.814 -51.476  0.00  0.00    -0.283 OA
ENDBRANCH   3  16
BRANCH   2  18
ATOM     18  C   UNL d   1     -41.987-123.230 -49.602  0.00  0.00     0.083 A 
ATOM     19  C   UNL d   1     -41.357-123.422 -49.107  0.00  0.00     0.019 A 
ATOM     20  C   UNL d   1     -41.505-123.674 -48.335  0.00  0.00     0.002 A 
ATOM     21  C   UNL d   1     -42.279-123.734 -48.060  0.00  0.00     0.000 A 
ATOM     22  C   UNL d   1     -42.911-123.541 -48.558  0.00  0.00     0.002 A 
ATOM     23  C   UNL d   1     -42.762-123.289 -49.328  0.00  0.00     0.019 A 
ENDBRANCH   2  18
TORSDOF 3
ENDMDL
