MODEL 1
REMARK VINA RESULT:      19.8      0.000      0.000
REMARK  2 active torsions:
REMARK  status: ('A' for Active; 'I' for Inactive)
REMARK       I    between atoms: N_2  and  C_1 
REMARK       I    between atoms: N_4  and  C_1 
REMARK    1  A    between atoms: C_3  and  N_2 
REMARK    2  A    between atoms: C_7  and  N_4 
ROOT
ATOM      1  C   UNL d   1     -56.830 -99.433 -44.461  0.00  0.00     0.370 C 
ATOM      2  N   UNL d   1     -57.253 -98.758 -44.693  0.00  0.00    -0.172 NA
ATOM      3  N   UNL d   1     -55.997 -99.430 -44.546  0.00  0.00    -0.191 NA
ATOM      4  O   UNL d   1     -57.190-100.079 -44.161  0.00  0.00    -0.242 OA
ENDROOT
BRANCH   2   5
ATOM      5  C   UNL d   1     -58.074 -98.758 -44.610  0.00  0.00     0.167 A 
ATOM      6  N   UNL d   1     -58.437 -98.759 -43.847  0.00  0.00    -0.225 NA
ATOM      7  C   UNL d   1     -59.253 -98.759 -43.779  0.00  0.00     0.101 A 
ATOM      8  C   UNL d   1     -59.718 -98.757 -44.465  0.00  0.00     0.021 A 
ATOM      9  C   UNL d   1     -59.358 -98.756 -45.208  0.00  0.00     0.005 A 
ATOM     10  C   UNL d   1     -58.553 -98.756 -45.274  0.00  0.00     0.039 A 
ENDBRANCH   2   5
BRANCH   3  11
ATOM     11  C   UNL d   1     -55.566-100.092 -44.320  0.00  0.00     0.086 A 
ATOM     12  C   UNL d   1     -55.146-100.086 -43.627  0.00  0.00     0.019 A 
ATOM     13  C   UNL d   1     -54.712-100.759 -43.404  0.00  0.00     0.002 A 
ATOM     14  C   UNL d   1     -54.711-101.439 -43.898  0.00  0.00     0.000 A 
ATOM     15  C   UNL d   1     -55.133-101.434 -44.586  0.00  0.00     0.002 A 
ATOM     16  C   UNL d   1     -55.564-100.776 -44.815  0.00  0.00     0.019 A 
ENDBRANCH   3  11
TORSDOF 2
ENDMDL
MODEL 2
REMARK VINA RESULT:      20.9      0.633      3.855
REMARK  2 active torsions:
REMARK  status: ('A' for Active; 'I' for Inactive)
REMARK       I    between atoms: N_2  and  C_1 
REMARK       I    between atoms: N_4  and  C_1 
REMARK    1  A    between atoms: C_3  and  N_2 
REMARK    2  A    between atoms: C_7  and  N_4 
ROOT
ATOM      1  C   UNL d   1     -56.822 -99.482 -44.152  0.00  0.00     0.370 C 
ATOM      2  N   UNL d   1     -55.993 -99.463 -44.170  0.00  0.00    -0.172 NA
ATOM      3  N   UNL d   1     -57.237 -98.756 -44.121  0.00  0.00    -0.191 NA
ATOM      4  O   UNL d   1     -57.232-100.167 -44.163  0.00  0.00    -0.242 OA
ENDROOT
BRANCH   2   5
ATOM      5  C   UNL d   1     -55.581-100.177 -44.201  0.00  0.00     0.167 A 
ATOM      6  N   UNL d   1     -55.623-100.735 -43.568  0.00  0.00    -0.225 NA
ATOM      7  C   UNL d   1     -55.209-101.440 -43.610  0.00  0.00     0.101 A 
ATOM      8  C   UNL d   1     -54.749-101.601 -44.280  0.00  0.00     0.021 A 
ATOM      9  C   UNL d   1     -54.711-101.053 -44.897  0.00  0.00     0.005 A 
ATOM     10  C   UNL d   1     -55.120-100.357 -44.853  0.00  0.00     0.039 A 
ENDBRANCH   2   5
BRANCH   3  11
ATOM     11  C   UNL d   1     -58.058 -98.761 -44.102  0.00  0.00     0.086 A 
ATOM     12  C   UNL d   1     -58.448 -98.767 -43.392  0.00  0.00     0.019 A 
ATOM     13  C   UNL d   1     -59.280 -98.772 -43.380  0.00  0.00     0.002 A 
ATOM     14  C   UNL d   1     -59.709 -98.771 -44.103  0.00  0.00     0.000 A 
ATOM     15  C   UNL d   1     -59.310 -98.765 -44.805  0.00  0.00     0.002 A 
ATOM     16  C   UNL d   1     -58.491 -98.760 -44.827  0.00  0.00     0.019 A 
ENDBRANCH   3  11
TORSDOF 2
ENDMDL
