MODEL 1
REMARK VINA RESULT:      -8.1      0.000      0.000
REMARK  9 active torsions:
REMARK  status: ('A' for Active; 'I' for Inactive)
REMARK    1  A    between atoms: N_2  and  S_1 
REMARK    2  A    between atoms: C_9  and  S_1 
REMARK    3  A    between atoms: C_4  and  N_2 
REMARK    4  A    between atoms: O_22  and  C_6 
REMARK    5  A    between atoms: O_23  and  C_7 
REMARK       I    between atoms: C_12  and  N_13 
REMARK    6  A    between atoms: C_20  and  C_12 
REMARK    7  A    between atoms: N_13  and  C_21 
REMARK    8  A    between atoms: O_14  and  C_20 
REMARK    9  A    between atoms: C_15  and  O_14 
ROOT
ATOM      1  C   UNL d   1      51.569  33.996  52.706  0.00  0.00     0.105 A 
ATOM      2  C   UNL d   1      51.100  33.995  53.376  0.00  0.00     0.015 A 
ATOM      3  C   UNL d   1      51.258  34.203  51.981  0.00  0.00     0.015 A 
ATOM      4  C   UNL d   1      49.987  34.415  52.587  0.00  0.00     0.085 A 
ATOM      5  C   UNL d   1      50.309  34.200  53.342  0.00  0.00     0.020 A 
ATOM      6  C   UNL d   1      50.469  34.410  51.936  0.00  0.00     0.020 A 
ENDROOT
BRANCH   1   7
ATOM      7  S   UNL d   1      52.376  33.784  52.755  0.00  0.00     0.287 S 
ATOM      8  O   UNL d   1      52.230  33.113  52.275  0.00  0.00    -0.198 OA
ATOM      9  O   UNL d   1      52.529  34.452  53.233  0.00  0.00    -0.198 OA
BRANCH   7  10
ATOM     10  N   UNL d   1      53.185  33.570  52.802  0.00  0.00    -0.139 NA
BRANCH  10  11
ATOM     11  C   UNL d   1      53.434  32.996  53.338  0.00  0.00     0.182 A 
ATOM     12  N   UNL d   1      53.660  33.214  54.089  0.00  0.00    -0.185 NA
ATOM     13  C   UNL d   1      53.918  32.628  54.646  0.00  0.00     0.274 A 
ATOM     14  N   UNL d   1      53.940  31.850  54.434  0.00  0.00    -0.181 NA
ATOM     15  C   UNL d   1      53.720  31.607  53.691  0.00  0.00     0.185 A 
ATOM     16  C   UNL d   1      53.454  32.198  53.112  0.00  0.00     0.084 A 
BRANCH  13  17
ATOM     17  O   UNL d   1      54.148  32.859  55.415  0.00  0.00    -0.297 OA
ATOM     18  C   UNL d   1      54.774  33.399  55.544  0.00  0.00     0.185 C 
ENDBRANCH  13  17
BRANCH  15  19
ATOM     19  O   UNL d   1      53.751  30.798  53.494  0.00  0.00    -0.312 OA
ATOM     20  C   UNL d   1      53.172  30.290  53.830  0.00  0.00     0.183 C 
ENDBRANCH  15  19
ENDBRANCH  10  11
ENDBRANCH   7  10
ENDBRANCH   1   7
BRANCH   4  21
ATOM     21  N   UNL d   1      49.188  34.628  52.518  0.00  0.00    -0.206 NA
ATOM     22  C   UNL d   1      48.925  35.336  52.840  0.00  0.00     0.304 C 
ATOM     23  O   UNL d   1      49.457  35.832  53.231  0.00  0.00    -0.263 OA
BRANCH  22  24
ATOM     24  C   UNL d   1      48.123  35.550  52.771  0.00  0.00     0.185 C 
BRANCH  24  25
ATOM     25  O   UNL d   1      47.759  35.964  53.378  0.00  0.00    -0.299 OA
BRANCH  25  26
ATOM     26  C   UNL d   1      46.944  36.218  53.308  0.00  0.00     0.111 A 
ATOM     27  C   UNL d   1      46.478  36.336  53.975  0.00  0.00     0.081 A 
ATOM     28 CL   UNL d   1      46.801  36.206  54.752  0.00  0.00    -0.080 Cl
ATOM     29  C   UNL d   1      45.699  36.579  53.893  0.00  0.00     0.013 A 
ATOM     30  C   UNL d   1      45.383  36.707  53.127  0.00  0.00     0.001 A 
ATOM     31  C   UNL d   1      45.853  36.588  52.460  0.00  0.00     0.002 A 
ATOM     32  C   UNL d   1      46.633  36.345  52.543  0.00  0.00     0.026 A 
ENDBRANCH  25  26
ENDBRANCH  24  25
ENDBRANCH  22  24
ENDBRANCH   4  21
TORSDOF 9
ENDMDL
MODEL 2
REMARK VINA RESULT:      -8.1      2.194      7.041
REMARK  9 active torsions:
REMARK  status: ('A' for Active; 'I' for Inactive)
REMARK    1  A    between atoms: N_2  and  S_1 
REMARK    2  A    between atoms: C_9  and  S_1 
REMARK    3  A    between atoms: C_4  and  N_2 
REMARK    4  A    between atoms: O_22  and  C_6 
REMARK    5  A    between atoms: O_23  and  C_7 
REMARK       I    between atoms: C_12  and  N_13 
REMARK    6  A    between atoms: C_20  and  C_12 
REMARK    7  A    between atoms: N_13  and  C_21 
REMARK    8  A    between atoms: O_14  and  C_20 
REMARK    9  A    between atoms: C_15  and  O_14 
ROOT
ATOM      1  C   UNL d   1      48.719  35.224  52.209  0.00  0.00     0.105 A 
ATOM      2  C   UNL d   1      49.054  34.715  51.663  0.00  0.00     0.015 A 
ATOM      3  C   UNL d   1      49.013  35.269  52.969  0.00  0.00     0.015 A 
ATOM      4  C   UNL d   1      49.994  34.289  52.649  0.00  0.00     0.085 A 
ATOM      5  C   UNL d   1      49.690  34.240  51.858  0.00  0.00     0.020 A 
ATOM      6  C   UNL d   1      49.648  34.799  53.175  0.00  0.00     0.020 A 
ENDROOT
BRANCH   1   7
ATOM      7  S   UNL d   1      48.069  35.704  51.996  0.00  0.00     0.287 S 
ATOM      8  O   UNL d   1      47.940  35.230  51.318  0.00  0.00    -0.198 OA
ATOM      9  O   UNL d   1      48.192  36.181  52.671  0.00  0.00    -0.198 OA
BRANCH   7  10
ATOM     10  N   UNL d   1      47.417  36.184  51.780  0.00  0.00    -0.139 NA
BRANCH  10  11
ATOM     11  C   UNL d   1      46.652  35.975  52.003  0.00  0.00     0.182 A 
ATOM     12  N   UNL d   1      46.195  35.521  51.504  0.00  0.00    -0.185 NA
ATOM     13  C   UNL d   1      45.407  35.302  51.727  0.00  0.00     0.274 A 
ATOM     14  N   UNL d   1      45.105  35.542  52.436  0.00  0.00    -0.181 NA
ATOM     15  C   UNL d   1      45.540  35.995  52.950  0.00  0.00     0.185 A 
ATOM     16  C   UNL d   1      46.349  36.226  52.733  0.00  0.00     0.084 A 
BRANCH  13  17
ATOM     17  O   UNL d   1      44.944  34.836  51.212  0.00  0.00    -0.297 OA
ATOM     18  C   UNL d   1      44.403  35.179  50.674  0.00  0.00     0.185 C 
ENDBRANCH  13  17
BRANCH  15  19
ATOM     19  O   UNL d   1      45.207  36.232  53.677  0.00  0.00    -0.312 OA
ATOM     20  C   UNL d   1      45.356  35.751  54.350  0.00  0.00     0.183 C 
ENDBRANCH  15  19
ENDBRANCH  10  11
ENDBRANCH   7  10
ENDBRANCH   1   7
BRANCH   4  21
ATOM     21  N   UNL d   1      50.639  33.820  52.880  0.00  0.00    -0.206 NA
ATOM     22  C   UNL d   1      51.404  34.100  52.777  0.00  0.00     0.304 C 
ATOM     23  O   UNL d   1      51.528  34.845  52.445  0.00  0.00    -0.263 OA
BRANCH  22  24
ATOM     24  C   UNL d   1      52.051  33.629  53.009  0.00  0.00     0.185 C 
BRANCH  24  25
ATOM     25  O   UNL d   1      52.652  33.957  53.462  0.00  0.00    -0.299 OA
BRANCH  25  26
ATOM     26  C   UNL d   1      53.259  33.463  53.808  0.00  0.00     0.111 A 
ATOM     27  C   UNL d   1      53.626  33.675  54.513  0.00  0.00     0.081 A 
ATOM     28 CL   UNL d   1      53.405  34.392  54.913  0.00  0.00    -0.080 Cl
ATOM     29  C   UNL d   1      54.207  33.191  54.834  0.00  0.00     0.013 A 
ATOM     30  C   UNL d   1      54.423  32.484  54.438  0.00  0.00     0.001 A 
ATOM     31  C   UNL d   1      54.053  32.276  53.731  0.00  0.00     0.002 A 
ATOM     32  C   UNL d   1      53.472  32.759  53.411  0.00  0.00     0.026 A 
ENDBRANCH  25  26
ENDBRANCH  24  25
ENDBRANCH  22  24
ENDBRANCH   4  21
TORSDOF 9
ENDMDL
MODEL 3
REMARK VINA RESULT:      -7.7      1.057      1.770
REMARK  9 active torsions:
REMARK  status: ('A' for Active; 'I' for Inactive)
REMARK    1  A    between atoms: N_2  and  S_1 
REMARK    2  A    between atoms: C_9  and  S_1 
REMARK    3  A    between atoms: C_4  and  N_2 
REMARK    4  A    between atoms: O_22  and  C_6 
REMARK    5  A    between atoms: O_23  and  C_7 
REMARK       I    between atoms: C_12  and  N_13 
REMARK    6  A    between atoms: C_20  and  C_12 
REMARK    7  A    between atoms: N_13  and  C_21 
REMARK    8  A    between atoms: O_14  and  C_20 
REMARK    9  A    between atoms: C_15  and  O_14 
ROOT
ATOM      1  C   UNL d   1      51.588  33.737  52.813  0.00  0.00     0.105 A 
ATOM      2  C   UNL d   1      50.883  33.322  52.844  0.00  0.00     0.015 A 
ATOM      3  C   UNL d   1      51.594  34.550  52.870  0.00  0.00     0.015 A 
ATOM      4  C   UNL d   1      50.176  34.553  52.991  0.00  0.00     0.085 A 
ATOM      5  C   UNL d   1      50.167  33.707  52.932  0.00  0.00     0.020 A 
ATOM      6  C   UNL d   1      50.884  34.944  52.959  0.00  0.00     0.020 A 
ENDROOT
BRANCH   1   7
ATOM      7  S   UNL d   1      52.313  33.331  52.723  0.00  0.00     0.287 S 
ATOM      8  O   UNL d   1      51.897  32.632  52.521  0.00  0.00    -0.198 OA
ATOM      9  O   UNL d   1      52.733  34.024  52.923  0.00  0.00    -0.198 OA
BRANCH   7  10
ATOM     10  N   UNL d   1      53.038  32.922  52.632  0.00  0.00    -0.139 NA
BRANCH  10  11
ATOM     11  C   UNL d   1      53.338  32.460  53.245  0.00  0.00     0.182 A 
ATOM     12  N   UNL d   1      53.372  31.650  53.161  0.00  0.00    -0.185 NA
ATOM     13  C   UNL d   1      53.679  31.168  53.789  0.00  0.00     0.274 A 
ATOM     14  N   UNL d   1      53.938  31.510  54.472  0.00  0.00    -0.181 NA
ATOM     15  C   UNL d   1      53.914  32.315  54.579  0.00  0.00     0.185 A 
ATOM     16  C   UNL d   1      53.602  32.819  53.943  0.00  0.00     0.084 A 
BRANCH  13  17
ATOM     17  O   UNL d   1      53.712  30.339  53.697  0.00  0.00    -0.297 OA
ATOM     18  C   UNL d   1      53.047  29.853  53.843  0.00  0.00     0.185 C 
ENDBRANCH  13  17
BRANCH  15  19
ATOM     19  O   UNL d   1      54.188  32.646  55.294  0.00  0.00    -0.312 OA
ATOM     20  C   UNL d   1      54.746  33.273  55.246  0.00  0.00     0.183 C 
ENDBRANCH  15  19
ENDBRANCH  10  11
ENDBRANCH   7  10
ENDBRANCH   1   7
BRANCH   4  21
ATOM     21  N   UNL d   1      49.466  34.974  53.081  0.00  0.00    -0.206 NA
ATOM     22  C   UNL d   1      48.989  35.114  52.428  0.00  0.00     0.304 C 
ATOM     23  O   UNL d   1      49.217  34.835  51.685  0.00  0.00    -0.263 OA
BRANCH  22  24
ATOM     24  C   UNL d   1      48.276  35.536  52.518  0.00  0.00     0.185 C 
BRANCH  24  25
ATOM     25  O   UNL d   1      47.692  35.477  51.945  0.00  0.00    -0.299 OA
BRANCH  25  26
ATOM     26  C   UNL d   1      46.927  35.844  52.059  0.00  0.00     0.111 A 
ATOM     27  C   UNL d   1      46.322  35.739  51.512  0.00  0.00     0.081 A 
ATOM     28 CL   UNL d   1      46.447  35.261  50.820  0.00  0.00    -0.080 Cl
ATOM     29  C   UNL d   1      45.593  36.097  51.635  0.00  0.00     0.013 A 
ATOM     30  C   UNL d   1      45.472  36.568  52.318  0.00  0.00     0.001 A 
ATOM     31  C   UNL d   1      46.081  36.670  52.864  0.00  0.00     0.002 A 
ATOM     32  C   UNL d   1      46.810  36.312  52.741  0.00  0.00     0.026 A 
ENDBRANCH  25  26
ENDBRANCH  24  25
ENDBRANCH  22  24
ENDBRANCH   4  21
TORSDOF 9
ENDMDL
