MODEL 1
REMARK VINA RESULT:      -7.6      0.000      0.000
REMARK  1 active torsions:
REMARK  status: ('A' for Active; 'I' for Inactive)
REMARK    1  A    between atoms: C_6  and  N_1 
ROOT
ATOM      1  N   UNL d   1     -47.832  13.981  22.823  0.00  0.00    -0.210 N 
ATOM      2  C   UNL d   1     -47.636  13.234  23.106  0.00  0.00     0.196 A 
ATOM      3  N   UNL d   1     -47.128  14.406  22.707  0.00  0.00    -0.161 NA
ATOM      4  C   UNL d   1     -46.816  13.193  23.165  0.00  0.00     0.127 A 
ATOM      5  C   UNL d   1     -46.499  13.909  22.921  0.00  0.00     0.134 A 
ATOM      6  C   UNL d   1     -46.382  12.536  23.428  0.00  0.00     0.106 C 
ATOM      7  N   UNL d   1     -45.943  11.881  23.691  0.00  0.00    -0.191 NA
ATOM      8  N   UNL d   1     -48.186  12.623  23.299  0.00  0.00    -0.126 N 
ENDROOT
BRANCH   1   9
ATOM      9  C   UNL d   1     -48.581  14.301  22.666  0.00  0.00     0.085 A 
ATOM     10  C   UNL d   1     -48.904  14.845  23.196  0.00  0.00     0.019 A 
ATOM     11  C   UNL d   1     -49.657  15.168  23.040  0.00  0.00     0.002 A 
ATOM     12  C   UNL d   1     -49.995  15.723  23.571  0.00  0.00     0.000 C 
ATOM     13  C   UNL d   1     -50.069  14.943  22.366  0.00  0.00     0.000 A 
ATOM     14  C   UNL d   1     -49.744  14.399  21.839  0.00  0.00     0.002 A 
ATOM     15  C   UNL d   1     -48.995  14.075  21.991  0.00  0.00     0.019 A 
ENDBRANCH   1   9
TORSDOF 1
ENDMDL
MODEL 2
REMARK VINA RESULT:      -7.5      1.660      2.019
REMARK  1 active torsions:
REMARK  status: ('A' for Active; 'I' for Inactive)
REMARK    1  A    between atoms: C_6  and  N_1 
ROOT
ATOM      1  N   UNL d   1     -48.574  12.119  23.108  0.00  0.00    -0.210 N 
ATOM      2  C   UNL d   1     -47.834  12.461  22.998  0.00  0.00     0.196 A 
ATOM      3  N   UNL d   1     -48.472  11.419  23.544  0.00  0.00    -0.161 NA
ATOM      4  C   UNL d   1     -47.275  11.979  23.362  0.00  0.00     0.127 A 
ATOM      5  C   UNL d   1     -47.661  11.338  23.698  0.00  0.00     0.134 A 
ATOM      6  C   UNL d   1     -46.457  12.118  23.384  0.00  0.00     0.106 C 
ATOM      7  N   UNL d   1     -45.637  12.252  23.410  0.00  0.00    -0.191 NA
ATOM      8  N   UNL d   1     -47.684  13.182  22.584  0.00  0.00    -0.126 N 
ENDROOT
BRANCH   1   9
ATOM      9  C   UNL d   1     -49.317  12.385  22.852  0.00  0.00     0.085 A 
ATOM     10  C   UNL d   1     -49.808  12.778  23.385  0.00  0.00     0.019 A 
ATOM     11  C   UNL d   1     -50.555  13.046  23.129  0.00  0.00     0.002 A 
ATOM     12  C   UNL d   1     -51.064  13.446  23.662  0.00  0.00     0.000 C 
ATOM     13  C   UNL d   1     -50.795  12.918  22.353  0.00  0.00     0.000 A 
ATOM     14  C   UNL d   1     -50.301  12.525  21.823  0.00  0.00     0.002 A 
ATOM     15  C   UNL d   1     -49.556  12.257  22.075  0.00  0.00     0.019 A 
ENDBRANCH   1   9
TORSDOF 1
ENDMDL
MODEL 3
REMARK VINA RESULT:      -7.5      1.274      3.467
REMARK  1 active torsions:
REMARK  status: ('A' for Active; 'I' for Inactive)
REMARK    1  A    between atoms: C_6  and  N_1 
ROOT
ATOM      1  N   UNL d   1     -48.507  13.630  22.317  0.00  0.00    -0.210 N 
ATOM      2  C   UNL d   1     -49.046  14.179  22.608  0.00  0.00     0.196 A 
ATOM      3  N   UNL d   1     -48.820  13.307  21.619  0.00  0.00    -0.161 NA
ATOM      4  C   UNL d   1     -49.690  14.199  22.097  0.00  0.00     0.127 A 
ATOM      5  C   UNL d   1     -49.557  13.665  21.488  0.00  0.00     0.134 A 
ATOM      6  C   UNL d   1     -50.362  14.678  22.181  0.00  0.00     0.106 C 
ATOM      7  N   UNL d   1     -51.038  15.155  22.262  0.00  0.00    -0.191 NA
ATOM      8  N   UNL d   1     -48.948  14.638  23.311  0.00  0.00    -0.126 N 
ENDROOT
BRANCH   1   9
ATOM      9  C   UNL d   1     -47.772  13.404  22.627  0.00  0.00     0.085 A 
ATOM     10  C   UNL d   1     -47.702  12.673  23.002  0.00  0.00     0.019 A 
ATOM     11  C   UNL d   1     -46.964  12.444  23.315  0.00  0.00     0.002 A 
ATOM     12  C   UNL d   1     -46.880  11.702  23.698  0.00  0.00     0.000 C 
ATOM     13  C   UNL d   1     -46.315  12.944  23.247  0.00  0.00     0.000 A 
ATOM     14  C   UNL d   1     -46.388  13.674  22.872  0.00  0.00     0.002 A 
ATOM     15  C   UNL d   1     -47.122  13.906  22.560  0.00  0.00     0.019 A 
ENDBRANCH   1   9
TORSDOF 1
ENDMDL
