MODEL 1
REMARK VINA RESULT:      -8.3      0.000      0.000
REMARK  4 active torsions:
REMARK  status: ('A' for Active; 'I' for Inactive)
REMARK    1  A    between atoms: N_6  and  C_1 
REMARK    2  A    between atoms: C_8  and  N_4 
REMARK    3  A    between atoms: C_9  and  N_6 
REMARK    4  A    between atoms: C_13  and  C_9 
ROOT
ATOM      1  C   UNL d   1      52.179  33.069  53.402  0.00  0.00     0.157 A 
ATOM      2  C   UNL d   1      52.722  33.485  53.862  0.00  0.00     0.298 A 
ATOM      3  N   UNL d   1      53.261  32.303  53.590  0.00  0.00    -0.238 N 
ATOM      4  N   UNL d   1      53.391  33.007  53.977  0.00  0.00    -0.209 N 
ATOM      5  C   UNL d   1      52.500  32.329  53.224  0.00  0.00     0.104 A 
ATOM      6  O   UNL d   1      52.614  34.271  54.168  0.00  0.00    -0.263 OA
ATOM      7  C   UNL d   1      53.807  31.610  53.546  0.00  0.00     0.120 C 
ATOM      8  C   UNL d   1      52.139  31.703  52.758  0.00  0.00     0.022 C 
ENDROOT
BRANCH   1   9
ATOM      9  N   UNL d   1      51.418  33.346  53.150  0.00  0.00    -0.238 NA
BRANCH   9  10
ATOM     10  C   UNL d   1      51.350  33.974  52.616  0.00  0.00     0.099 C 
BRANCH  10  11
ATOM     11  C   UNL d   1      50.592  34.230  52.373  0.00  0.00     0.022 A 
ATOM     12  C   UNL d   1      50.379  34.160  51.601  0.00  0.00     0.022 A 
ATOM     13  C   UNL d   1      49.625  34.414  51.356  0.00  0.00     0.099 A 
ATOM     14  N   UNL d   1      49.101  34.730  51.870  0.00  0.00    -0.242 NA
ATOM     15  C   UNL d   1      49.298  34.812  52.663  0.00  0.00     0.099 A 
ATOM     16  C   UNL d   1      50.069  34.553  52.922  0.00  0.00     0.022 A 
ENDBRANCH  10  11
ENDBRANCH   9  10
ENDBRANCH   1   9
BRANCH   4  17
ATOM     17  C   UNL d   1      54.067  33.249  54.424  0.00  0.00     0.085 A 
ATOM     18  C   UNL d   1      54.711  33.564  54.032  0.00  0.00     0.019 A 
ATOM     19  C   UNL d   1      55.392  33.807  54.482  0.00  0.00     0.002 A 
ATOM     20  C   UNL d   1      55.384  33.719  55.294  0.00  0.00     0.000 A 
ATOM     21  C   UNL d   1      54.738  33.402  55.689  0.00  0.00     0.002 A 
ATOM     22  C   UNL d   1      54.058  33.160  55.240  0.00  0.00     0.019 A 
ENDBRANCH   4  17
TORSDOF 4
ENDMDL
MODEL 2
REMARK VINA RESULT:      -7.5      1.254      2.175
REMARK  4 active torsions:
REMARK  status: ('A' for Active; 'I' for Inactive)
REMARK    1  A    between atoms: N_6  and  C_1 
REMARK    2  A    between atoms: C_8  and  N_4 
REMARK    3  A    between atoms: C_9  and  N_6 
REMARK    4  A    between atoms: C_13  and  C_9 
ROOT
ATOM      1  C   UNL d   1      51.881  33.448  53.236  0.00  0.00     0.157 A 
ATOM      2  C   UNL d   1      51.910  32.625  53.260  0.00  0.00     0.298 A 
ATOM      3  N   UNL d   1      53.160  33.065  53.327  0.00  0.00    -0.238 N 
ATOM      4  N   UNL d   1      52.704  32.391  53.316  0.00  0.00    -0.209 N 
ATOM      5  C   UNL d   1      52.652  33.739  53.278  0.00  0.00     0.104 A 
ATOM      6  O   UNL d   1      51.239  32.103  53.231  0.00  0.00    -0.263 OA
ATOM      7  C   UNL d   1      54.041  33.113  53.382  0.00  0.00     0.120 C 
ATOM      8  C   UNL d   1      52.900  34.562  53.271  0.00  0.00     0.022 C 
ENDROOT
BRANCH   1   9
ATOM      9  N   UNL d   1      51.180  33.924  53.180  0.00  0.00    -0.238 NA
BRANCH   9  10
ATOM     10  C   UNL d   1      50.868  34.134  52.444  0.00  0.00     0.099 C 
BRANCH  10  11
ATOM     11  C   UNL d   1      50.112  34.487  52.400  0.00  0.00     0.022 A 
ATOM     12  C   UNL d   1      49.680  34.418  51.725  0.00  0.00     0.022 A 
ATOM     13  C   UNL d   1      48.927  34.769  51.679  0.00  0.00     0.099 A 
ATOM     14  N   UNL d   1      48.616  35.178  52.292  0.00  0.00    -0.242 NA
ATOM     15  C   UNL d   1      49.039  35.261  52.990  0.00  0.00     0.099 A 
ATOM     16  C   UNL d   1      49.812  34.904  53.046  0.00  0.00     0.022 A 
ENDBRANCH  10  11
ENDBRANCH   9  10
ENDBRANCH   1   9
BRANCH   4  17
ATOM     17  C   UNL d   1      52.953  31.583  53.354  0.00  0.00     0.085 A 
ATOM     18  C   UNL d   1      52.893  31.117  52.686  0.00  0.00     0.019 A 
ATOM     19  C   UNL d   1      53.143  30.305  52.723  0.00  0.00     0.002 A 
ATOM     20  C   UNL d   1      53.438  30.011  53.426  0.00  0.00     0.000 A 
ATOM     21  C   UNL d   1      53.500  30.478  54.098  0.00  0.00     0.002 A 
ATOM     22  C   UNL d   1      53.250  31.290  54.061  0.00  0.00     0.019 A 
ENDBRANCH   4  17
TORSDOF 4
ENDMDL
MODEL 3
REMARK VINA RESULT:      -7.3      1.786      4.548
REMARK  4 active torsions:
REMARK  status: ('A' for Active; 'I' for Inactive)
REMARK    1  A    between atoms: N_6  and  C_1 
REMARK    2  A    between atoms: C_8  and  N_4 
REMARK    3  A    between atoms: C_9  and  N_6 
REMARK    4  A    between atoms: C_13  and  C_9 
ROOT
ATOM      1  C   UNL d   1      53.179  32.008  53.687  0.00  0.00     0.157 A 
ATOM      2  C   UNL d   1      52.553  32.270  53.219  0.00  0.00     0.298 A 
ATOM      3  N   UNL d   1      53.029  33.325  53.868  0.00  0.00    -0.238 N 
ATOM      4  N   UNL d   1      52.463  33.087  53.334  0.00  0.00    -0.209 N 
ATOM      5  C   UNL d   1      53.488  32.653  54.099  0.00  0.00     0.104 A 
ATOM      6  O   UNL d   1      52.080  31.785  52.706  0.00  0.00    -0.263 OA
ATOM      7  C   UNL d   1      53.163  34.143  54.174  0.00  0.00     0.120 C 
ATOM      8  C   UNL d   1      54.144  32.653  54.653  0.00  0.00     0.022 C 
ENDROOT
BRANCH   1   9
ATOM      9  N   UNL d   1      53.465  31.210  53.742  0.00  0.00    -0.238 NA
BRANCH   9  10
ATOM     10  C   UNL d   1      52.941  30.571  53.750  0.00  0.00     0.099 C 
BRANCH  10  11
ATOM     11  C   UNL d   1      53.182  29.843  54.082  0.00  0.00     0.022 A 
ATOM     12  C   UNL d   1      53.640  29.342  53.651  0.00  0.00     0.022 A 
ATOM     13  C   UNL d   1      53.881  28.616  53.979  0.00  0.00     0.099 A 
ATOM     14  N   UNL d   1      53.668  28.399  54.718  0.00  0.00    -0.242 NA
ATOM     15  C   UNL d   1      53.201  28.894  55.176  0.00  0.00     0.099 A 
ATOM     16  C   UNL d   1      52.949  29.640  54.847  0.00  0.00     0.022 A 
ENDBRANCH  10  11
ENDBRANCH   9  10
ENDBRANCH   1   9
BRANCH   4  17
ATOM     17  C   UNL d   1      51.873  33.552  52.945  0.00  0.00     0.085 A 
ATOM     18  C   UNL d   1      52.054  33.908  52.233  0.00  0.00     0.019 A 
ATOM     19  C   UNL d   1      51.461  34.376  51.841  0.00  0.00     0.002 A 
ATOM     20  C   UNL d   1      50.726  34.458  52.188  0.00  0.00     0.000 A 
ATOM     21  C   UNL d   1      50.542  34.101  52.904  0.00  0.00     0.002 A 
ATOM     22  C   UNL d   1      51.135  33.633  53.295  0.00  0.00     0.019 A 
ENDBRANCH   4  17
TORSDOF 4
ENDMDL
MODEL 4
REMARK VINA RESULT:      -5.7      2.320      3.509
REMARK  4 active torsions:
REMARK  status: ('A' for Active; 'I' for Inactive)
REMARK    1  A    between atoms: N_6  and  C_1 
REMARK    2  A    between atoms: C_8  and  N_4 
REMARK    3  A    between atoms: C_9  and  N_6 
REMARK    4  A    between atoms: C_13  and  C_9 
ROOT
ATOM      1  C   UNL d   1      53.212  32.086  53.647  0.00  0.00     0.157 A 
ATOM      2  C   UNL d   1      53.452  31.470  54.140  0.00  0.00     0.298 A 
ATOM      3  N   UNL d   1      52.800  30.927  53.120  0.00  0.00    -0.238 N 
ATOM      4  N   UNL d   1      53.196  30.754  53.810  0.00  0.00    -0.209 N 
ATOM      5  C   UNL d   1      52.803  31.765  53.006  0.00  0.00     0.104 A 
ATOM      6  O   UNL d   1      53.890  31.556  54.864  0.00  0.00    -0.263 OA
ATOM      7  C   UNL d   1      52.421  30.355  52.564  0.00  0.00     0.120 C 
ATOM      8  C   UNL d   1      52.448  32.189  52.348  0.00  0.00     0.022 C 
ENDROOT
BRANCH   1   9
ATOM      9  N   UNL d   1      53.355  32.914  53.772  0.00  0.00    -0.238 NA
BRANCH   9  10
ATOM     10  C   UNL d   1      52.791  33.392  54.141  0.00  0.00     0.099 C 
BRANCH  10  11
ATOM     11  C   UNL d   1      52.969  34.193  54.302  0.00  0.00     0.022 A 
ATOM     12  C   UNL d   1      52.821  34.751  53.743  0.00  0.00     0.022 A 
ATOM     13  C   UNL d   1      52.997  35.550  53.900  0.00  0.00     0.099 A 
ATOM     14  N   UNL d   1      53.312  35.781  54.598  0.00  0.00    -0.242 NA
ATOM     15  C   UNL d   1      53.471  35.227  55.183  0.00  0.00     0.099 A 
ATOM     16  C   UNL d   1      53.293  34.406  55.030  0.00  0.00     0.022 A 
ENDBRANCH  10  11
ENDBRANCH   9  10
ENDBRANCH   1   9
BRANCH   4  17
ATOM     17  C   UNL d   1      53.341  29.998  54.161  0.00  0.00     0.085 A 
ATOM     18  C   UNL d   1      52.890  29.763  54.799  0.00  0.00     0.019 A 
ATOM     19  C   UNL d   1      53.036  29.002  55.153  0.00  0.00     0.002 A 
ATOM     20  C   UNL d   1      53.623  28.526  54.844  0.00  0.00     0.000 A 
ATOM     21  C   UNL d   1      54.078  28.761  54.202  0.00  0.00     0.002 A 
ATOM     22  C   UNL d   1      53.932  29.521  53.849  0.00  0.00     0.019 A 
ENDBRANCH   4  17
TORSDOF 4
ENDMDL
MODEL 5
REMARK VINA RESULT:      -5.7      0.860      4.484
REMARK  4 active torsions:
REMARK  status: ('A' for Active; 'I' for Inactive)
REMARK    1  A    between atoms: N_6  and  C_1 
REMARK    2  A    between atoms: C_8  and  N_4 
REMARK    3  A    between atoms: C_9  and  N_6 
REMARK    4  A    between atoms: C_13  and  C_9 
ROOT
ATOM      1  C   UNL d   1      52.640  33.239  53.259  0.00  0.00     0.157 A 
ATOM      2  C   UNL d   1      52.127  33.864  53.096  0.00  0.00     0.298 A 
ATOM      3  N   UNL d   1      51.438  32.739  52.950  0.00  0.00    -0.238 N 
ATOM      4  N   UNL d   1      51.383  33.550  52.905  0.00  0.00    -0.209 N 
ATOM      5  C   UNL d   1      52.227  32.530  53.172  0.00  0.00     0.104 A 
ATOM      6  O   UNL d   1      52.327  34.690  53.120  0.00  0.00    -0.263 OA
ATOM      7  C   UNL d   1      50.796  32.151  52.797  0.00  0.00     0.120 C 
ATOM      8  C   UNL d   1      52.528  31.733  53.284  0.00  0.00     0.022 C 
ENDROOT
BRANCH   1   9
ATOM      9  N   UNL d   1      53.457  33.305  53.479  0.00  0.00    -0.238 NA
BRANCH   9  10
ATOM     10  C   UNL d   1      53.729  33.005  54.199  0.00  0.00     0.099 C 
BRANCH  10  11
ATOM     11  C   UNL d   1      54.404  33.340  54.560  0.00  0.00     0.022 A 
ATOM     12  C   UNL d   1      54.380  33.540  55.339  0.00  0.00     0.022 A 
ATOM     13  C   UNL d   1      55.050  33.875  55.701  0.00  0.00     0.099 A 
ATOM     14  N   UNL d   1      55.726  34.005  55.294  0.00  0.00    -0.242 NA
ATOM     15  C   UNL d   1      55.774  33.808  54.498  0.00  0.00     0.099 A 
ATOM     16  C   UNL d   1      55.090  33.465  54.119  0.00  0.00     0.022 A 
ENDBRANCH  10  11
ENDBRANCH   9  10
ENDBRANCH   1   9
BRANCH   4  17
ATOM     17  C   UNL d   1      50.712  34.024  52.705  0.00  0.00     0.085 A 
ATOM     18  C   UNL d   1      50.509  34.115  51.919  0.00  0.00     0.019 A 
ATOM     19  C   UNL d   1      49.834  34.593  51.718  0.00  0.00     0.002 A 
ATOM     20  C   UNL d   1      49.406  34.948  52.315  0.00  0.00     0.000 A 
ATOM     21  C   UNL d   1      49.608  34.858  53.106  0.00  0.00     0.002 A 
ATOM     22  C   UNL d   1      50.283  34.380  53.307  0.00  0.00     0.019 A 
ENDBRANCH   4  17
TORSDOF 4
ENDMDL
MODEL 6
REMARK VINA RESULT:      -5.6      1.754      3.761
REMARK  4 active torsions:
REMARK  status: ('A' for Active; 'I' for Inactive)
REMARK    1  A    between atoms: N_6  and  C_1 
REMARK    2  A    between atoms: C_8  and  N_4 
REMARK    3  A    between atoms: C_9  and  N_6 
REMARK    4  A    between atoms: C_13  and  C_9 
ROOT
ATOM      1  C   UNL d   1      52.527  32.516  53.262  0.00  0.00     0.157 A 
ATOM      2  C   UNL d   1      53.002  33.112  53.578  0.00  0.00     0.298 A 
ATOM      3  N   UNL d   1      51.794  33.628  53.390  0.00  0.00    -0.238 N 
ATOM      4  N   UNL d   1      52.544  33.799  53.656  0.00  0.00    -0.209 N 
ATOM      5  C   UNL d   1      51.771  32.821  53.139  0.00  0.00     0.104 A 
ATOM      6  O   UNL d   1      53.822  33.034  53.789  0.00  0.00    -0.263 OA
ATOM      7  C   UNL d   1      51.102  34.176  53.358  0.00  0.00     0.120 C 
ATOM      8  C   UNL d   1      51.088  32.409  52.819  0.00  0.00     0.022 C 
ENDROOT
BRANCH   1   9
ATOM      9  N   UNL d   1      52.769  31.721  53.090  0.00  0.00    -0.238 NA
BRANCH   9  10
ATOM     10  C   UNL d   1      53.241  31.296  53.619  0.00  0.00     0.099 C 
BRANCH  10  11
ATOM     11  C   UNL d   1      53.178  30.463  53.654  0.00  0.00     0.022 A 
ATOM     12  C   UNL d   1      53.300  30.086  54.354  0.00  0.00     0.022 A 
ATOM     13  C   UNL d   1      53.238  29.257  54.392  0.00  0.00     0.099 A 
ATOM     14  N   UNL d   1      53.059  28.819  53.747  0.00  0.00    -0.242 NA
ATOM     15  C   UNL d   1      52.930  29.184  53.023  0.00  0.00     0.099 A 
ATOM     16  C   UNL d   1      52.992  30.033  52.975  0.00  0.00     0.022 A 
ENDBRANCH  10  11
ENDBRANCH   9  10
ENDBRANCH   1   9
BRANCH   4  17
ATOM     17  C   UNL d   1      52.843  34.529  53.962  0.00  0.00     0.085 A 
ATOM     18  C   UNL d   1      53.119  35.096  53.443  0.00  0.00     0.019 A 
ATOM     19  C   UNL d   1      53.420  35.829  53.751  0.00  0.00     0.002 A 
ATOM     20  C   UNL d   1      53.426  35.949  54.559  0.00  0.00     0.000 A 
ATOM     21  C   UNL d   1      53.150  35.381  55.083  0.00  0.00     0.002 A 
ATOM     22  C   UNL d   1      52.849  34.647  54.775  0.00  0.00     0.019 A 
ENDBRANCH   4  17
TORSDOF 4
ENDMDL
MODEL 7
REMARK VINA RESULT:      -5.4      9.832     10.975
REMARK  4 active torsions:
REMARK  status: ('A' for Active; 'I' for Inactive)
REMARK    1  A    between atoms: N_6  and  C_1 
REMARK    2  A    between atoms: C_8  and  N_4 
REMARK    3  A    between atoms: C_9  and  N_6 
REMARK    4  A    between atoms: C_13  and  C_9 
ROOT
ATOM      1  C   UNL d   1      44.542  29.942  58.915  0.00  0.00     0.157 A 
ATOM      2  C   UNL d   1      44.619  29.137  58.753  0.00  0.00     0.298 A 
ATOM      3  N   UNL d   1      44.808  29.789  57.613  0.00  0.00    -0.238 N 
ATOM      4  N   UNL d   1      44.784  29.047  57.945  0.00  0.00    -0.209 N 
ATOM      5  C   UNL d   1      44.657  30.363  58.215  0.00  0.00     0.104 A 
ATOM      6  O   UNL d   1      44.542  28.507  59.318  0.00  0.00    -0.263 OA
ATOM      7  C   UNL d   1      44.965  29.990  56.766  0.00  0.00     0.120 C 
ATOM      8  C   UNL d   1      44.631  31.215  58.109  0.00  0.00     0.022 C 
ENDROOT
BRANCH   1   9
ATOM      9  N   UNL d   1      44.373  30.287  59.672  0.00  0.00    -0.238 NA
BRANCH   9  10
ATOM     10  C   UNL d   1      44.916  30.236  60.293  0.00  0.00     0.099 C 
BRANCH  10  11
ATOM     11  C   UNL d   1      44.717  30.545  61.044  0.00  0.00     0.022 A 
ATOM     12  C   UNL d   1      44.723  30.060  61.686  0.00  0.00     0.022 A 
ATOM     13  C   UNL d   1      44.526  30.365  62.435  0.00  0.00     0.099 A 
ATOM     14  N   UNL d   1      44.327  31.133  62.537  0.00  0.00    -0.242 NA
ATOM     15  C   UNL d   1      44.314  31.645  61.895  0.00  0.00     0.099 A 
ATOM     16  C   UNL d   1      44.516  31.340  61.124  0.00  0.00     0.022 A 
ENDBRANCH  10  11
ENDBRANCH   9  10
ENDBRANCH   1   9
BRANCH   4  17
ATOM     17  C   UNL d   1      44.900  28.296  57.572  0.00  0.00     0.085 A 
ATOM     18  C   UNL d   1      45.584  27.877  57.724  0.00  0.00     0.019 A 
ATOM     19  C   UNL d   1      45.701  27.122  57.349  0.00  0.00     0.002 A 
ATOM     20  C   UNL d   1      45.125  26.835  56.845  0.00  0.00     0.000 A 
ATOM     21  C   UNL d   1      44.437  27.254  56.691  0.00  0.00     0.002 A 
ATOM     22  C   UNL d   1      44.320  28.009  57.066  0.00  0.00     0.019 A 
ENDBRANCH   4  17
TORSDOF 4
ENDMDL
