MODEL 1
REMARK VINA RESULT:      -8.7      0.000      0.000
REMARK  7 active torsions:
REMARK  status: ('A' for Active; 'I' for Inactive)
REMARK    1  A    between atoms: S_3  and  N_12 
REMARK    2  A    between atoms: C_16  and  S_3 
REMARK    3  A    between atoms: C_17  and  C_7 
REMARK    4  A    between atoms: O_19  and  C_8 
REMARK    5  A    between atoms: O_20  and  C_11 
REMARK    6  A    between atoms: N_12  and  C_18 
REMARK    7  A    between atoms: C_18  and  C_17 
ROOT
ATOM      1  N   UNL d   1      53.879  33.822  54.466  0.00  0.00    -0.206 NA
ATOM      2  C   UNL d   1      52.866  33.675  53.471  0.00  0.00     0.042 A 
ATOM      3  C   UNL d   1      53.253  34.136  54.035  0.00  0.00     0.109 A 
ATOM      4  C   UNL d   1      53.105  32.897  53.334  0.00  0.00     0.008 A 
ATOM      5  C   UNL d   1      54.126  33.040  54.334  0.00  0.00     0.279 A 
ATOM      6  C   UNL d   1      53.740  32.579  53.769  0.00  0.00     0.060 A 
ATOM      7  C   UNL d   1      52.238  33.989  53.040  0.00  0.00     0.096 A 
ATOM      8  C   UNL d   1      53.011  34.912  54.169  0.00  0.00     0.112 A 
ATOM      9  O   UNL d   1      54.753  32.725  54.764  0.00  0.00    -0.265 OA
ATOM     10  C   UNL d   1      51.998  34.765  53.174  0.00  0.00     0.026 A 
ATOM     11  C   UNL d   1      52.384  35.226  53.739  0.00  0.00     0.028 A 
ENDROOT
BRANCH   6  12
ATOM     12  C   UNL d   1      53.983  31.799  53.636  0.00  0.00     0.026 C 
BRANCH  12  13
ATOM     13  C   UNL d   1      53.428  31.191  53.626  0.00  0.00     0.112 C 
BRANCH  13  14
ATOM     14  N   UNL d   1      53.671  30.417  53.482  0.00  0.00    -0.157 NA
BRANCH  14  15
ATOM     15  S   UNL d   1      53.139  29.796  53.605  0.00  0.00     0.286 S 
ATOM     16  O   UNL d   1      52.549  29.223  53.542  0.00  0.00    -0.198 OA
ATOM     17  O   UNL d   1      52.974  30.066  52.844  0.00  0.00    -0.198 OA
BRANCH  15  18
ATOM     18  C   UNL d   1      53.319  29.539  54.371  0.00  0.00     0.117 C 
ATOM     19  C   UNL d   1      53.315  28.735  54.550  0.00  0.00     0.014 C 
ENDBRANCH  15  18
ENDBRANCH  14  15
ENDBRANCH  13  14
ENDBRANCH  12  13
ENDBRANCH   6  12
BRANCH   7  20
ATOM     20  O   UNL d   1      51.856  33.533  52.481  0.00  0.00    -0.328 OA
ATOM     21  C   UNL d   1      51.191  33.831  52.090  0.00  0.00     0.181 C 
ENDBRANCH   7  20
BRANCH   8  22
ATOM     22  O   UNL d   1      53.397  35.373  54.733  0.00  0.00    -0.327 OA
ATOM     23  C   UNL d   1      53.168  36.163  54.848  0.00  0.00     0.181 C 
ENDBRANCH   8  22
TORSDOF 7
ENDMDL
MODEL 2
REMARK VINA RESULT:      -7.6      1.041      2.008
REMARK  7 active torsions:
REMARK  status: ('A' for Active; 'I' for Inactive)
REMARK    1  A    between atoms: S_3  and  N_12 
REMARK    2  A    between atoms: C_16  and  S_3 
REMARK    3  A    between atoms: C_17  and  C_7 
REMARK    4  A    between atoms: O_19  and  C_8 
REMARK    5  A    between atoms: O_20  and  C_11 
REMARK    6  A    between atoms: N_12  and  C_18 
REMARK    7  A    between atoms: C_18  and  C_17 
ROOT
ATOM      1  N   UNL d   1      52.551  33.165  53.034  0.00  0.00    -0.206 NA
ATOM      2  C   UNL d   1      53.520  33.140  54.082  0.00  0.00     0.042 A 
ATOM      3  C   UNL d   1      52.951  33.546  53.643  0.00  0.00     0.109 A 
ATOM      4  C   UNL d   1      53.690  32.350  53.914  0.00  0.00     0.008 A 
ATOM      5  C   UNL d   1      52.716  32.370  52.858  0.00  0.00     0.279 A 
ATOM      6  C   UNL d   1      53.285  31.964  53.297  0.00  0.00     0.060 A 
ATOM      7  C   UNL d   1      53.921  33.522  54.692  0.00  0.00     0.096 A 
ATOM      8  C   UNL d   1      52.784  34.334  53.814  0.00  0.00     0.112 A 
ATOM      9  O   UNL d   1      52.316  31.988  52.249  0.00  0.00    -0.265 OA
ATOM     10  C   UNL d   1      53.753  34.309  54.862  0.00  0.00     0.026 A 
ATOM     11  C   UNL d   1      53.185  34.715  54.423  0.00  0.00     0.028 A 
ENDROOT
BRANCH   6  12
ATOM     12  C   UNL d   1      53.452  31.172  53.124  0.00  0.00     0.026 C 
BRANCH  12  13
ATOM     13  C   UNL d   1      53.153  30.575  53.605  0.00  0.00     0.112 C 
BRANCH  13  14
ATOM     14  N   UNL d   1      53.468  29.815  53.557  0.00  0.00    -0.157 NA
BRANCH  14  15
ATOM     15  S   UNL d   1      53.126  29.206  54.001  0.00  0.00     0.286 S 
ATOM     16  O   UNL d   1      52.666  28.581  54.283  0.00  0.00    -0.198 OA
ATOM     17  O   UNL d   1      52.698  29.219  53.296  0.00  0.00    -0.198 OA
BRANCH  15  18
ATOM     18  C   UNL d   1      53.567  29.209  54.701  0.00  0.00     0.117 C 
ATOM     19  C   UNL d   1      53.560  28.552  55.198  0.00  0.00     0.014 C 
ENDBRANCH  15  18
ENDBRANCH  14  15
ENDBRANCH  13  14
ENDBRANCH  12  13
ENDBRANCH   6  12
BRANCH   7  20
ATOM     20  O   UNL d   1      54.484  33.119  55.126  0.00  0.00    -0.328 OA
ATOM     21  C   UNL d   1      54.998  33.537  55.621  0.00  0.00     0.181 C 
ENDBRANCH   7  20
BRANCH   8  22
ATOM     22  O   UNL d   1      52.216  34.740  53.376  0.00  0.00    -0.327 OA
ATOM     23  C   UNL d   1      51.746  35.319  53.743  0.00  0.00     0.181 C 
ENDBRANCH   8  22
TORSDOF 7
ENDMDL
MODEL 3
REMARK VINA RESULT:      -7.2      2.148      4.150
REMARK  7 active torsions:
REMARK  status: ('A' for Active; 'I' for Inactive)
REMARK    1  A    between atoms: S_3  and  N_12 
REMARK    2  A    between atoms: C_16  and  S_3 
REMARK    3  A    between atoms: C_17  and  C_7 
REMARK    4  A    between atoms: O_19  and  C_8 
REMARK    5  A    between atoms: O_20  and  C_11 
REMARK    6  A    between atoms: N_12  and  C_18 
REMARK    7  A    between atoms: C_18  and  C_17 
ROOT
ATOM      1  N   UNL d   1      53.133  34.293  53.853  0.00  0.00    -0.206 NA
ATOM      2  C   UNL d   1      52.902  32.985  53.331  0.00  0.00     0.042 A 
ATOM      3  C   UNL d   1      53.321  33.493  53.828  0.00  0.00     0.109 A 
ATOM      4  C   UNL d   1      52.293  33.275  52.857  0.00  0.00     0.008 A 
ATOM      5  C   UNL d   1      52.521  34.593  53.378  0.00  0.00     0.279 A 
ATOM      6  C   UNL d   1      52.102  34.085  52.881  0.00  0.00     0.060 A 
ATOM      7  C   UNL d   1      53.090  32.183  53.306  0.00  0.00     0.096 A 
ATOM      8  C   UNL d   1      53.929  33.199  54.300  0.00  0.00     0.112 A 
ATOM      9  O   UNL d   1      52.333  35.394  53.403  0.00  0.00    -0.265 OA
ATOM     10  C   UNL d   1      53.698  31.890  53.778  0.00  0.00     0.026 A 
ATOM     11  C   UNL d   1      54.117  32.398  54.275  0.00  0.00     0.028 A 
ENDROOT
BRANCH   6  12
ATOM     12  C   UNL d   1      51.492  34.382  52.408  0.00  0.00     0.026 C 
BRANCH  12  13
ATOM     13  C   UNL d   1      50.709  34.307  52.652  0.00  0.00     0.112 C 
BRANCH  13  14
ATOM     14  N   UNL d   1      50.118  34.165  52.095  0.00  0.00    -0.157 NA
BRANCH  14  15
ATOM     15  S   UNL d   1      49.411  34.591  52.137  0.00  0.00     0.286 S 
ATOM     16  O   UNL d   1      48.734  34.998  52.377  0.00  0.00    -0.198 OA
ATOM     17  O   UNL d   1      49.624  34.458  52.923  0.00  0.00    -0.198 OA
BRANCH  15  18
ATOM     18  C   UNL d   1      49.214  34.715  51.343  0.00  0.00     0.117 C 
ATOM     19  C   UNL d   1      48.426  34.799  51.119  0.00  0.00     0.014 C 
ENDBRANCH  15  18
ENDBRANCH  14  15
ENDBRANCH  13  14
ENDBRANCH  12  13
ENDBRANCH   6  12
BRANCH   7  20
ATOM     20  O   UNL d   1      52.675  31.680  52.814  0.00  0.00    -0.328 OA
ATOM     21  C   UNL d   1      52.775  30.862  52.882  0.00  0.00     0.181 C 
ENDBRANCH   7  20
BRANCH   8  22
ATOM     22  O   UNL d   1      54.348  33.707  54.797  0.00  0.00    -0.327 OA
ATOM     23  C   UNL d   1      54.890  33.395  55.344  0.00  0.00     0.181 C 
ENDBRANCH   8  22
TORSDOF 7
ENDMDL
MODEL 4
REMARK VINA RESULT:      -6.1      2.233      4.294
REMARK  7 active torsions:
REMARK  status: ('A' for Active; 'I' for Inactive)
REMARK    1  A    between atoms: S_3  and  N_12 
REMARK    2  A    between atoms: C_16  and  S_3 
REMARK    3  A    between atoms: C_17  and  C_7 
REMARK    4  A    between atoms: O_19  and  C_8 
REMARK    5  A    between atoms: O_20  and  C_11 
REMARK    6  A    between atoms: N_12  and  C_18 
REMARK    7  A    between atoms: C_18  and  C_17 
ROOT
ATOM      1  N   UNL d   1      52.711  32.922  53.503  0.00  0.00    -0.206 NA
ATOM      2  C   UNL d   1      52.703  34.299  53.878  0.00  0.00     0.042 A 
ATOM      3  C   UNL d   1      53.001  33.535  53.968  0.00  0.00     0.109 A 
ATOM      4  C   UNL d   1      52.114  34.454  53.322  0.00  0.00     0.008 A 
ATOM      5  C   UNL d   1      52.118  33.069  52.940  0.00  0.00     0.279 A 
ATOM      6  C   UNL d   1      51.820  33.833  52.850  0.00  0.00     0.060 A 
ATOM      7  C   UNL d   1      52.993  34.913  54.345  0.00  0.00     0.096 A 
ATOM      8  C   UNL d   1      53.589  33.385  54.525  0.00  0.00     0.112 A 
ATOM      9  O   UNL d   1      51.827  32.456  52.474  0.00  0.00    -0.265 OA
ATOM     10  C   UNL d   1      53.581  34.762  54.900  0.00  0.00     0.026 A 
ATOM     11  C   UNL d   1      53.879  33.998  54.991  0.00  0.00     0.028 A 
ENDROOT
BRANCH   6  12
ATOM     12  C   UNL d   1      51.229  33.983  52.291  0.00  0.00     0.026 C 
BRANCH  12  13
ATOM     13  C   UNL d   1      50.540  34.374  52.515  0.00  0.00     0.112 C 
BRANCH  13  14
ATOM     14  N   UNL d   1      49.825  34.185  52.152  0.00  0.00    -0.157 NA
BRANCH  14  15
ATOM     15  S   UNL d   1      49.236  34.762  52.092  0.00  0.00     0.286 S 
ATOM     16  O   UNL d   1      48.679  35.355  52.230  0.00  0.00    -0.198 OA
ATOM     17  O   UNL d   1      49.438  34.749  52.891  0.00  0.00    -0.198 OA
BRANCH  15  18
ATOM     18  C   UNL d   1      49.048  34.761  51.285  0.00  0.00     0.117 C 
ATOM     19  C   UNL d   1      48.267  34.858  51.042  0.00  0.00     0.014 C 
ENDBRANCH  15  18
ENDBRANCH  14  15
ENDBRANCH  13  14
ENDBRANCH  12  13
ENDBRANCH   6  12
BRANCH   7  20
ATOM     20  O   UNL d   1      52.698  35.670  54.255  0.00  0.00    -0.328 OA
ATOM     21  C   UNL d   1      52.954  36.274  54.759  0.00  0.00     0.181 C 
ENDBRANCH   7  20
BRANCH   8  22
ATOM     22  O   UNL d   1      53.887  32.621  54.615  0.00  0.00    -0.327 OA
ATOM     23  C   UNL d   1      54.296  32.416  55.309  0.00  0.00     0.181 C 
ENDBRANCH   8  22
TORSDOF 7
ENDMDL
