MODEL 1
REMARK VINA RESULT:      84.2      0.000      0.000
REMARK  3 active torsions:
REMARK  status: ('A' for Active; 'I' for Inactive)
REMARK    1  A    between atoms: N_10  and  C_3 
REMARK    2  A    between atoms: C_11  and  C_5 
REMARK    3  A    between atoms: C_12  and  N_10 
ROOT
ATOM      1  N   UNL d   1     -50.279  26.312  33.848  0.00  0.00    -0.184 N 
ATOM      2  C   UNL d   1     -50.929  25.802  33.700  0.00  0.00     0.168 A 
ATOM      3  C   UNL d   1     -50.385  27.131  33.807  0.00  0.00     0.217 A 
ATOM      4  N   UNL d   1     -49.446  25.185  34.071  0.00  0.00    -0.162 NA
ATOM      5  C   UNL d   1     -50.828  25.002  33.740  0.00  0.00     0.055 A 
ATOM      6  N   UNL d   1     -51.661  26.130  33.516  0.00  0.00    -0.227 NA
ATOM      7  C   UNL d   1     -51.113  27.439  33.624  0.00  0.00     0.066 A 
ATOM      8  C   UNL d   1     -50.086  24.683  33.925  0.00  0.00     0.104 A 
ATOM      9  C   UNL d   1     -51.768  26.937  33.475  0.00  0.00     0.087 A 
ATOM     10  C   UNL d   1     -51.381  28.201  33.545  0.00  0.00     0.006 A 
ATOM     11  C   UNL d   1     -49.992  23.871  33.964  0.00  0.00     0.023 C 
ATOM     12  C   UNL d   1     -52.422  27.401  33.308  0.00  0.00     0.019 A 
ATOM     13  C   UNL d   1     -52.176  28.193  33.353  0.00  0.00     0.002 A 
ENDROOT
BRANCH   3  14
ATOM     14  N   UNL d   1     -49.731  27.649  33.955  0.00  0.00    -0.383 NA
BRANCH  14  15
ATOM     15  C   UNL d   1     -49.082  28.168  34.100  0.00  0.00     0.134 A 
ATOM     16  C   UNL d   1     -48.946  28.834  33.588  0.00  0.00     0.034 A 
ATOM     17  C   UNL d   1     -48.296  29.351  33.736  0.00  0.00     0.032 A 
ATOM     18  C   UNL d   1     -47.783  29.211  34.387  0.00  0.00     0.140 A 
ATOM     19  C   UNL d   1     -47.923  28.545  34.895  0.00  0.00     0.032 A 
ATOM     20  F   UNL d   1     -47.130  29.731  34.536  0.00  0.00    -0.204 F 
ATOM     21  C   UNL d   1     -48.566  28.024  34.757  0.00  0.00     0.034 A 
ENDBRANCH  14  15
ENDBRANCH   3  14
BRANCH   5  22
ATOM     22  C   UNL d   1     -51.464  24.504  33.595  0.00  0.00     0.004 A 
ATOM     23  C   UNL d   1     -52.216  24.814  33.487  0.00  0.00     0.000 A 
ATOM     24  C   UNL d   1     -52.852  24.321  33.343  0.00  0.00     0.000 A 
ATOM     25  C   UNL d   1     -52.737  23.505  33.306  0.00  0.00     0.000 A 
ATOM     26  C   UNL d   1     -51.997  23.190  33.411  0.00  0.00     0.000 A 
ATOM     27  C   UNL d   1     -51.354  23.695  33.557  0.00  0.00     0.000 A 
ENDBRANCH   5  22
TORSDOF 3
ENDMDL
