MODEL 1
REMARK VINA RESULT:      45.9      0.000      0.000
REMARK  2 active torsions:
REMARK  status: ('A' for Active; 'I' for Inactive)
REMARK    1  A    between atoms: N_2  and  S_1 
REMARK    2  A    between atoms: C_3  and  S_1 
ROOT
ATOM      1  S   UNL d   1      58.960  49.390  50.882  0.00  0.00     0.274 S 
ATOM      2  O   UNL d   1      58.960  49.070  51.652  0.00  0.00    -0.200 OA
ATOM      3  O   UNL d   1      58.967  49.708  50.114  0.00  0.00    -0.200 OA
ENDROOT
BRANCH   1   4
ATOM      4  N   UNL d   1      58.131  49.471  50.917  0.00  0.00    -0.212 N 
ATOM      5  C   UNL d   1      57.625  49.706  51.516  0.00  0.00     0.193 A 
ATOM      6  N   UNL d   1      56.846  49.679  51.224  0.00  0.00    -0.223 NA
ATOM      7  C   UNL d   1      56.883  49.423  50.433  0.00  0.00     0.100 A 
ATOM      8  C   UNL d   1      57.674  49.300  50.257  0.00  0.00     0.094 A 
ATOM      9  C   UNL d   1      56.295  49.294  49.872  0.00  0.00     0.021 A 
ATOM     10  C   UNL d   1      57.885  49.036  49.489  0.00  0.00     0.020 A 
ATOM     11  C   UNL d   1      57.295  48.903  48.913  0.00  0.00     0.002 A 
ATOM     12  C   UNL d   1      56.502  49.037  49.122  0.00  0.00     0.002 A 
ENDBRANCH   1   4
BRANCH   1  13
ATOM     13  C   UNL d   1      59.787  49.305  50.855  0.00  0.00     0.122 A 
ATOM     14  C   UNL d   1      60.234  49.410  51.528  0.00  0.00     0.093 A 
ATOM     15  N   UNL d   1      59.869  49.602  52.244  0.00  0.00    -0.243 NA
ATOM     16  C   UNL d   1      61.061  49.326  51.501  0.00  0.00     0.018 A 
ATOM     17  C   UNL d   1      60.315  49.707  52.914  0.00  0.00     0.099 A 
ATOM     18  C   UNL d   1      61.149  49.626  52.908  0.00  0.00     0.021 A 
ATOM     19  C   UNL d   1      61.507  49.436  52.194  0.00  0.00     0.003 A 
ATOM     20  C   UNL d   1      61.427  49.139  50.809  0.00  0.00     0.002 A 
ATOM     21  C   UNL d   1      60.986  49.033  50.134  0.00  0.00     0.001 A 
ATOM     22  C   UNL d   1      60.154  49.114  50.143  0.00  0.00     0.014 A 
ENDBRANCH   1  13
TORSDOF 2
ENDMDL
