MODEL 1
REMARK VINA RESULT:      -8.5      0.000      0.000
REMARK  4 active torsions:
REMARK  status: ('A' for Active; 'I' for Inactive)
REMARK    1  A    between atoms: C_10  and  C_1 
REMARK    2  A    between atoms: N_7  and  C_4 
REMARK    3  A    between atoms: N_16  and  C_9 
REMARK    4  A    between atoms: C_15  and  C_10 
ROOT
ATOM      1  C   UNL d   1     -48.874  12.323  22.948  0.00  0.00     0.143 A 
ATOM      2  C   UNL d   1     -49.262  12.947  22.565  0.00  0.00     0.086 A 
ATOM      3  C   UNL d   1     -48.140  12.446  23.304  0.00  0.00     0.025 A 
ATOM      4  C   UNL d   1     -48.906  13.694  22.541  0.00  0.00     0.019 A 
ATOM      5  C   UNL d   1     -47.795  13.194  23.274  0.00  0.00     0.002 A 
ATOM      6  C   UNL d   1     -48.183  13.818  22.890  0.00  0.00     0.002 A 
ENDROOT
BRANCH   5   7
ATOM      7  C   UNL d   1     -47.063  13.316  23.629  0.00  0.00     0.010 C 
BRANCH   7   8
ATOM      8  C   UNL d   1     -46.371  13.223  23.168  0.00  0.00     0.116 A 
ATOM      9  C   UNL d   1     -45.967  12.513  23.211  0.00  0.00     0.288 A 
ATOM     10  N   UNL d   1     -45.284  12.414  22.760  0.00  0.00    -0.152 NA
ATOM     11  O   UNL d   1     -46.235  11.909  23.695  0.00  0.00    -0.265 OA
ATOM     12  C   UNL d   1     -45.014  13.024  22.271  0.00  0.00     0.374 A 
ATOM     13  N   UNL d   1     -45.429  13.727  22.239  0.00  0.00    -0.152 NA
ATOM     14  O   UNL d   1     -44.330  12.932  21.815  0.00  0.00    -0.242 OA
ATOM     15  C   UNL d   1     -46.100  13.833  22.679  0.00  0.00     0.288 A 
ATOM     16  O   UNL d   1     -46.513  14.556  22.635  0.00  0.00    -0.265 OA
ENDBRANCH   7   8
ENDBRANCH   5   7
BRANCH   1  17
ATOM     17  N   UNL d   1     -49.220  11.584  22.975  0.00  0.00    -0.112 N 
ATOM     18  O   UNL d   1     -49.717  11.398  23.600  0.00  0.00    -0.532 OA
ATOM     19  O   UNL d   1     -49.060  11.054  22.378  0.00  0.00    -0.532 OA
ENDBRANCH   1  17
BRANCH   2  20
ATOM     20  N   UNL d   1     -49.989  12.821  22.214  0.00  0.00    -0.300 N 
ATOM     21  C   UNL d   1     -50.683  12.924  22.655  0.00  0.00     0.100 C 
ATOM     22  C   UNL d   1     -50.015  12.596  21.440  0.00  0.00     0.100 C 
ENDBRANCH   2  20
TORSDOF 4
ENDMDL
MODEL 2
REMARK VINA RESULT:      -8.4      0.991      1.246
REMARK  4 active torsions:
REMARK  status: ('A' for Active; 'I' for Inactive)
REMARK    1  A    between atoms: C_10  and  C_1 
REMARK    2  A    between atoms: N_7  and  C_4 
REMARK    3  A    between atoms: N_16  and  C_9 
REMARK    4  A    between atoms: C_15  and  C_10 
ROOT
ATOM      1  C   UNL d   1     -49.096  13.379  22.887  0.00  0.00     0.143 A 
ATOM      2  C   UNL d   1     -49.260  12.618  22.601  0.00  0.00     0.086 A 
ATOM      3  C   UNL d   1     -48.368  13.543  23.237  0.00  0.00     0.025 A 
ATOM      4  C   UNL d   1     -48.686  12.025  22.670  0.00  0.00     0.019 A 
ATOM      5  C   UNL d   1     -47.804  12.946  23.300  0.00  0.00     0.002 A 
ATOM      6  C   UNL d   1     -47.968  12.185  23.014  0.00  0.00     0.002 A 
ENDROOT
BRANCH   5   7
ATOM      7  C   UNL d   1     -47.077  13.110  23.650  0.00  0.00     0.010 C 
BRANCH   7   8
ATOM      8  C   UNL d   1     -46.386  13.070  23.180  0.00  0.00     0.116 A 
ATOM      9  C   UNL d   1     -45.957  12.374  23.178  0.00  0.00     0.288 A 
ATOM     10  N   UNL d   1     -45.275  12.327  22.718  0.00  0.00    -0.152 NA
ATOM     11  O   UNL d   1     -46.200  11.732  23.626  0.00  0.00    -0.265 OA
ATOM     12  C   UNL d   1     -45.030  12.975  22.266  0.00  0.00     0.374 A 
ATOM     13  N   UNL d   1     -45.469  13.663  22.279  0.00  0.00    -0.152 NA
ATOM     14  O   UNL d   1     -44.346  12.934  21.802  0.00  0.00    -0.242 OA
ATOM     15  C   UNL d   1     -46.141  13.717  22.728  0.00  0.00     0.288 A 
ATOM     16  O   UNL d   1     -46.579  14.427  22.731  0.00  0.00    -0.265 OA
ENDBRANCH   7   8
ENDBRANCH   5   7
BRANCH   1  17
ATOM     17  N   UNL d   1     -49.659  13.968  22.823  0.00  0.00    -0.112 N 
ATOM     18  O   UNL d   1     -50.173  14.099  23.447  0.00  0.00    -0.532 OA
ATOM     19  O   UNL d   1     -49.690  14.407  22.138  0.00  0.00    -0.532 OA
ENDBRANCH   1  17
BRANCH   2  20
ATOM     20  N   UNL d   1     -49.983  12.460  22.256  0.00  0.00    -0.300 N 
ATOM     21  C   UNL d   1     -50.616  12.200  22.723  0.00  0.00     0.100 C 
ATOM     22  C   UNL d   1     -50.065  12.561  21.460  0.00  0.00     0.100 C 
ENDBRANCH   2  20
TORSDOF 4
ENDMDL
MODEL 3
REMARK VINA RESULT:      -6.4      8.433      9.488
REMARK  4 active torsions:
REMARK  status: ('A' for Active; 'I' for Inactive)
REMARK    1  A    between atoms: C_10  and  C_1 
REMARK    2  A    between atoms: N_7  and  C_4 
REMARK    3  A    between atoms: N_16  and  C_9 
REMARK    4  A    between atoms: C_15  and  C_10 
ROOT
ATOM      1  C   UNL d   1     -39.333  14.591  20.542  0.00  0.00     0.143 A 
ATOM      2  C   UNL d   1     -39.211  15.399  20.682  0.00  0.00     0.086 A 
ATOM      3  C   UNL d   1     -39.371  14.304  19.770  0.00  0.00     0.025 A 
ATOM      4  C   UNL d   1     -39.128  15.915  20.039  0.00  0.00     0.019 A 
ATOM      5  C   UNL d   1     -39.286  14.826  19.139  0.00  0.00     0.002 A 
ATOM      6  C   UNL d   1     -39.164  15.634  19.278  0.00  0.00     0.002 A 
ENDROOT
BRANCH   5   7
ATOM      7  C   UNL d   1     -39.324  14.538  18.368  0.00  0.00     0.010 C 
BRANCH   7   8
ATOM      8  C   UNL d   1     -39.927  14.821  17.861  0.00  0.00     0.116 A 
ATOM      9  C   UNL d   1     -39.757  15.450  17.368  0.00  0.00     0.288 A 
ATOM     10  N   UNL d   1     -40.346  15.734  16.866  0.00  0.00    -0.152 NA
ATOM     11  O   UNL d   1     -39.014  15.795  17.371  0.00  0.00    -0.265 OA
ATOM     12  C   UNL d   1     -41.096  15.386  16.863  0.00  0.00     0.374 A 
ATOM     13  N   UNL d   1     -41.250  14.758  17.362  0.00  0.00    -0.152 NA
ATOM     14  O   UNL d   1     -41.692  15.665  16.362  0.00  0.00    -0.242 OA
ATOM     15  C   UNL d   1     -40.677  14.473  17.858  0.00  0.00     0.288 A 
ATOM     16  O   UNL d   1     -40.850  13.831  18.362  0.00  0.00    -0.265 OA
ENDBRANCH   7   8
ENDBRANCH   5   7
BRANCH   1  17
ATOM     17  N   UNL d   1     -39.417  14.078  21.172  0.00  0.00    -0.112 N 
ATOM     18  O   UNL d   1     -40.163  13.951  21.488  0.00  0.00    -0.532 OA
ATOM     19  O   UNL d   1     -38.754  13.707  21.467  0.00  0.00    -0.532 OA
ENDBRANCH   1  17
BRANCH   2  20
ATOM     20  N   UNL d   1     -39.175  15.679  21.448  0.00  0.00    -0.300 N 
ATOM     21  C   UNL d   1     -39.868  15.919  21.833  0.00  0.00     0.100 C 
ATOM     22  C   UNL d   1     -38.459  15.716  21.816  0.00  0.00     0.100 C 
ENDBRANCH   2  20
TORSDOF 4
ENDMDL
MODEL 4
REMARK VINA RESULT:      -6.3      1.371      4.039
REMARK  4 active torsions:
REMARK  status: ('A' for Active; 'I' for Inactive)
REMARK    1  A    between atoms: C_10  and  C_1 
REMARK    2  A    between atoms: N_7  and  C_4 
REMARK    3  A    between atoms: N_16  and  C_9 
REMARK    4  A    between atoms: C_15  and  C_10 
ROOT
ATOM      1  C   UNL d   1     -47.061  13.223  23.097  0.00  0.00     0.143 A 
ATOM      2  C   UNL d   1     -46.792  12.453  22.949  0.00  0.00     0.086 A 
ATOM      3  C   UNL d   1     -47.861  13.361  23.246  0.00  0.00     0.025 A 
ATOM      4  C   UNL d   1     -47.332  11.825  22.953  0.00  0.00     0.019 A 
ATOM      5  C   UNL d   1     -48.388  12.729  23.248  0.00  0.00     0.002 A 
ATOM      6  C   UNL d   1     -48.119  11.959  23.100  0.00  0.00     0.002 A 
ENDROOT
BRANCH   5   7
ATOM      7  C   UNL d   1     -49.186  12.869  23.397  0.00  0.00     0.010 C 
BRANCH   7   8
ATOM      8  C   UNL d   1     -49.662  13.182  22.784  0.00  0.00     0.116 A 
ATOM      9  C   UNL d   1     -49.850  13.978  22.807  0.00  0.00     0.288 A 
ATOM     10  N   UNL d   1     -50.319  14.294  22.207  0.00  0.00    -0.152 NA
ATOM     11  O   UNL d   1     -49.578  14.454  23.415  0.00  0.00    -0.265 OA
ATOM     12  C   UNL d   1     -50.593  13.812  21.593  0.00  0.00     0.374 A 
ATOM     13  N   UNL d   1     -50.397  13.019  21.585  0.00  0.00    -0.152 NA
ATOM     14  O   UNL d   1     -51.064  14.123  20.987  0.00  0.00    -0.242 OA
ATOM     15  C   UNL d   1     -49.937  12.701  22.171  0.00  0.00     0.288 A 
ATOM     16  O   UNL d   1     -49.744  11.889  22.148  0.00  0.00    -0.265 OA
ENDBRANCH   7   8
ENDBRANCH   5   7
BRANCH   1  17
ATOM     17  N   UNL d   1     -46.533  13.846  23.095  0.00  0.00    -0.112 N 
ATOM     18  O   UNL d   1     -46.567  14.395  22.487  0.00  0.00    -0.532 OA
ATOM     19  O   UNL d   1     -45.990  13.902  23.698  0.00  0.00    -0.532 OA
ENDBRANCH   1  17
BRANCH   2  20
ATOM     20  N   UNL d   1     -46.000  12.320  22.801  0.00  0.00    -0.300 N 
ATOM     21  C   UNL d   1     -45.648  12.636  22.121  0.00  0.00     0.100 C 
ATOM     22  C   UNL d   1     -45.573  11.880  23.326  0.00  0.00     0.100 C 
ENDBRANCH   2  20
TORSDOF 4
ENDMDL
MODEL 5
REMARK VINA RESULT:      -6.0      7.806      9.139
REMARK  4 active torsions:
REMARK  status: ('A' for Active; 'I' for Inactive)
REMARK    1  A    between atoms: C_10  and  C_1 
REMARK    2  A    between atoms: N_7  and  C_4 
REMARK    3  A    between atoms: N_16  and  C_9 
REMARK    4  A    between atoms: C_15  and  C_10 
ROOT
ATOM      1  C   UNL d   1     -40.348  15.139  18.197  0.00  0.00     0.143 A 
ATOM      2  C   UNL d   1     -39.607  15.402  17.934  0.00  0.00     0.086 A 
ATOM      3  C   UNL d   1     -40.561  15.224  18.989  0.00  0.00     0.025 A 
ATOM      4  C   UNL d   1     -39.084  15.751  18.473  0.00  0.00     0.019 A 
ATOM      5  C   UNL d   1     -40.034  15.573  19.516  0.00  0.00     0.002 A 
ATOM      6  C   UNL d   1     -39.293  15.836  19.253  0.00  0.00     0.002 A 
ENDROOT
BRANCH   5   7
ATOM      7  C   UNL d   1     -40.248  15.658  20.307  0.00  0.00     0.010 C 
BRANCH   7   8
ATOM      8  C   UNL d   1     -39.941  15.118  20.868  0.00  0.00     0.116 A 
ATOM      9  C   UNL d   1     -40.387  14.460  21.057  0.00  0.00     0.288 A 
ATOM     10  N   UNL d   1     -40.092  13.924  21.609  0.00  0.00    -0.152 NA
ATOM     11  O   UNL d   1     -41.116  14.334  20.706  0.00  0.00    -0.265 OA
ATOM     12  C   UNL d   1     -39.356  14.051  21.964  0.00  0.00     0.374 A 
ATOM     13  N   UNL d   1     -38.923  14.714  21.764  0.00  0.00    -0.152 NA
ATOM     14  O   UNL d   1     -39.054  13.517  22.519  0.00  0.00    -0.242 OA
ATOM     15  C   UNL d   1     -39.205  15.246  21.223  0.00  0.00     0.288 A 
ATOM     16  O   UNL d   1     -38.751  15.918  21.029  0.00  0.00    -0.265 OA
ENDBRANCH   7   8
ENDBRANCH   5   7
BRANCH   1  17
ATOM     17  N   UNL d   1     -40.868  14.793  17.670  0.00  0.00    -0.112 N 
ATOM     18  O   UNL d   1     -41.383  15.270  17.247  0.00  0.00    -0.532 OA
ATOM     19  O   UNL d   1     -40.857  13.984  17.582  0.00  0.00    -0.532 OA
ENDBRANCH   1  17
BRANCH   2  20
ATOM     20  N   UNL d   1     -39.400  15.315  17.149  0.00  0.00    -0.300 N 
ATOM     21  C   UNL d   1     -39.579  15.915  16.605  0.00  0.00     0.100 C 
ATOM     22  C   UNL d   1     -39.021  14.642  16.917  0.00  0.00     0.100 C 
ENDBRANCH   2  20
TORSDOF 4
ENDMDL
