MODEL 1
REMARK VINA RESULT:      -2.0      0.000      0.000
REMARK  7 active torsions:
REMARK  status: ('A' for Active; 'I' for Inactive)
REMARK    1  A    between atoms: N_4  and  S_1 
REMARK    2  A    between atoms: C_8  and  S_1 
REMARK    3  A    between atoms: N_2  and  C_3 
REMARK    4  A    between atoms: C_3  and  C_6 
REMARK    5  A    between atoms: C_7  and  C_3 
REMARK    6  A    between atoms: C_6  and  N_4 
REMARK    7  A    between atoms: C_17  and  N_5 
ROOT
ATOM      1  C   UNL d   1     -41.320-121.936 -51.879  0.00  0.00     0.107 C 
ENDROOT
BRANCH   1   2
ATOM      2  N   UNL d   1     -41.580-122.235 -51.156  0.00  0.00    -0.298 N 
ATOM      3  C   UNL d   1     -42.239-121.905 -50.784  0.00  0.00     0.100 A 
ATOM      4  C   UNL d   1     -42.499-122.205 -50.060  0.00  0.00     0.100 A 
ATOM      5  N   UNL d   1     -42.100-122.834 -49.708  0.00  0.00    -0.301 N 
ATOM      6  C   UNL d   1     -41.442-123.161 -50.081  0.00  0.00     0.100 A 
ATOM      7  C   UNL d   1     -41.180-122.865 -50.803  0.00  0.00     0.100 A 
BRANCH   5   8
ATOM      8  C   UNL d   1     -42.358-123.131 -48.990  0.00  0.00     0.064 A 
ATOM      9  C   UNL d   1     -41.897-123.046 -48.317  0.00  0.00     0.018 A 
ATOM     10  C   UNL d   1     -42.155-123.343 -47.594  0.00  0.00     0.002 A 
ATOM     11  C   UNL d   1     -42.883-123.729 -47.547  0.00  0.00     0.000 A 
ATOM     12  C   UNL d   1     -43.349-123.815 -48.223  0.00  0.00     0.002 A 
ATOM     13  C   UNL d   1     -43.086-123.516 -48.942  0.00  0.00     0.018 A 
ENDBRANCH   5   8
ENDBRANCH   1   2
BRANCH   1  14
ATOM     14  C   UNL d   1     -41.123-122.438 -52.505  0.00  0.00     0.132 C 
BRANCH  14  15
ATOM     15  N   UNL d   1     -41.622-122.464 -53.180  0.00  0.00    -0.155 NA
BRANCH  15  16
ATOM     16  S   UNL d   1     -41.644-123.141 -53.644  0.00  0.00     0.285 S 
ATOM     17  O   UNL d   1     -41.671-123.817 -54.121  0.00  0.00    -0.198 OA
ATOM     18  O   UNL d   1     -41.413-123.601 -52.993  0.00  0.00    -0.198 OA
BRANCH  16  19
ATOM     19  C   UNL d   1     -41.876-122.677 -54.293  0.00  0.00     0.105 A 
ATOM     20  C   UNL d   1     -42.666-122.458 -54.384  0.00  0.00     0.015 A 
ATOM     21  C   UNL d   1     -42.905-121.996 -55.026  0.00  0.00     0.030 A 
ATOM     22  C   UNL d   1     -42.333-121.754 -55.584  0.00  0.00     0.140 A 
ATOM     23  C   UNL d   1     -41.543-121.973 -55.493  0.00  0.00     0.030 A 
ATOM     24  F   UNL d   1     -42.568-121.286 -56.238  0.00  0.00    -0.204 F 
ATOM     25  C   UNL d   1     -41.315-122.435 -54.848  0.00  0.00     0.015 A 
ENDBRANCH  16  19
ENDBRANCH  15  16
ENDBRANCH  14  15
ENDBRANCH   1  14
BRANCH   1  26
ATOM     26  C   UNL d   1     -41.252-121.106 -51.986  0.00  0.00     0.118 A 
ATOM     27  O   UNL d   1     -41.178-120.788 -52.740  0.00  0.00    -0.304 OA
ATOM     28  C   UNL d   1     -41.123-119.963 -52.667  0.00  0.00     0.123 A 
ATOM     29  C   UNL d   1     -41.163-119.779 -51.874  0.00  0.00     0.029 A 
ATOM     30  C   UNL d   1     -41.244-120.485 -51.450  0.00  0.00     0.028 A 
ENDBRANCH   1  26
TORSDOF 7
ENDMDL
