MODEL 1
REMARK VINA RESULT:      17.8      0.000      0.000
REMARK  3 active torsions:
REMARK  status: ('A' for Active; 'I' for Inactive)
REMARK    1  A    between atoms: C_13  and  C_3 
REMARK    2  A    between atoms: C_4  and  S_11 
REMARK    3  A    between atoms: S_11  and  C_13 
ROOT
ATOM      1  C   UNL d   1      13.524  12.071  -3.380  0.00  0.00     0.141 A 
ATOM      2  N   UNL d   1      14.098  12.398  -3.837  0.00  0.00    -0.232 NA
ATOM      3  S   UNL d   1      12.926  11.782  -3.861  0.00  0.00    -0.060 SA
ATOM      4  C   UNL d   1      13.869  12.319  -4.623  0.00  0.00     0.088 A 
ATOM      5  C   UNL d   1      13.144  11.938  -4.638  0.00  0.00     0.049 A 
ATOM      6  C   UNL d   1      14.237  12.550  -5.323  0.00  0.00     0.020 A 
ATOM      7  C   UNL d   1      12.770  11.779  -5.354  0.00  0.00     0.008 A 
ATOM      8  C   UNL d   1      13.136  12.009  -6.058  0.00  0.00     0.001 A 
ATOM      9  C   UNL d   1      13.861  12.390  -6.043  0.00  0.00     0.002 A 
ENDROOT
BRANCH   1  10
ATOM     10  S   UNL d   1      13.529  12.029  -2.539  0.00  0.00    -0.058 SA
BRANCH  10  11
ATOM     11  C   UNL d   1      14.223  11.839  -2.153  0.00  0.00     0.077 C 
BRANCH  11  12
ATOM     12  C   UNL d   1      14.345  12.113  -1.370  0.00  0.00     0.178 A 
ATOM     13  N   UNL d   1      14.807  12.773  -1.243  0.00  0.00    -0.262 N 
ATOM     14  C   UNL d   1      14.822  12.906  -0.415  0.00  0.00     0.227 A 
ATOM     15  C   UNL d   1      15.192  13.233  -1.818  0.00  0.00     0.103 C 
ATOM     16  N   UNL d   1      14.377  12.332  -0.071  0.00  0.00    -0.117 NA
ATOM     17  S   UNL d   1      15.232  13.530  -0.014  0.00  0.00    -0.036 SA
ATOM     18  N   UNL d   1      14.073  11.833  -0.629  0.00  0.00    -0.127 NA
ENDBRANCH  11  12
ENDBRANCH  10  11
ENDBRANCH   1  10
TORSDOF 3
ENDMDL
