MODEL 1
REMARK VINA RESULT:      -5.5      0.000      0.000
REMARK  6 active torsions:
REMARK  status: ('A' for Active; 'I' for Inactive)
REMARK    1  A    between atoms: C_10  and  N_1 
REMARK    2  A    between atoms: S_14  and  C_6 
REMARK       I    between atoms: N_7  and  C_11 
REMARK    3  A    between atoms: C_22  and  N_9 
REMARK    4  A    between atoms: C_13  and  C_10 
REMARK    5  A    between atoms: C_11  and  C_16 
REMARK    6  A    between atoms: C_16  and  S_14 
ROOT
ATOM      1  N   UNL d   1     -48.028  13.205  22.815  0.00  0.00    -0.192 N 
ATOM      2  N   UNL d   1     -47.839  12.444  22.585  0.00  0.00    -0.058 NA
ATOM      3  C   UNL d   1     -47.342  13.654  22.784  0.00  0.00     0.189 A 
ATOM      4  C   UNL d   1     -46.732  13.158  22.532  0.00  0.00     0.164 A 
ATOM      5  N   UNL d   1     -47.053  12.411  22.413  0.00  0.00    -0.125 NA
ATOM      6  C   UNL d   1     -45.975  13.445  22.446  0.00  0.00     0.135 A 
ATOM      7  N   UNL d   1     -47.194  14.437  22.948  0.00  0.00    -0.203 NA
ATOM      8  N   UNL d   1     -45.818  14.240  22.612  0.00  0.00    -0.216 NA
ATOM      9  C   UNL d   1     -46.427  14.736  22.863  0.00  0.00     0.201 A 
ENDROOT
BRANCH   6  10
ATOM     10  S   UNL d   1     -45.366  12.948  22.195  0.00  0.00    -0.061 SA
BRANCH  10  11
ATOM     11  C   UNL d   1     -44.669  13.261  21.914  0.00  0.00     0.098 C 
BRANCH  11  12
ATOM     12  C   UNL d   1     -44.007  12.776  21.826  0.00  0.00     0.272 C 
ATOM     13  N   UNL d   1     -43.300  13.102  21.546  0.00  0.00    -0.269 N 
ATOM     14  C   UNL d   1     -43.258  13.907  21.356  0.00  0.00     0.102 A 
ATOM     15  C   UNL d   1     -42.630  12.630  21.452  0.00  0.00     0.102 A 
ATOM     16  C   UNL d   1     -42.551  14.234  21.076  0.00  0.00     0.100 A 
ATOM     17  N   UNL d   1     -41.886  13.755  20.985  0.00  0.00    -0.301 N 
ATOM     18  C   UNL d   1     -41.927  12.950  21.174  0.00  0.00     0.100 A 
ATOM     19  O   UNL d   1     -44.045  11.978  22.013  0.00  0.00    -0.266 OA
BRANCH  17  20
ATOM     20  C   UNL d   1     -41.178  14.081  20.705  0.00  0.00     0.064 A 
ATOM     21  C   UNL d   1     -41.073  14.203  19.896  0.00  0.00     0.018 A 
ATOM     22  C   UNL d   1     -40.366  14.528  19.625  0.00  0.00     0.002 A 
ATOM     23  C   UNL d   1     -39.777  14.726  20.143  0.00  0.00     0.000 A 
ATOM     24  C   UNL d   1     -39.882  14.603  20.952  0.00  0.00     0.002 A 
ATOM     25  C   UNL d   1     -40.591  14.278  21.232  0.00  0.00     0.018 A 
ENDBRANCH  17  20
ENDBRANCH  11  12
ENDBRANCH  10  11
ENDBRANCH   6  10
BRANCH   1  26
ATOM     26  C   UNL d   1     -48.789  13.474  23.041  0.00  0.00     0.106 C 
BRANCH  26  27
ATOM     27  C   UNL d   1     -49.424  12.938  23.103  0.00  0.00     0.047 A 
ATOM     28  C   UNL d   1     -50.095  13.039  22.633  0.00  0.00     0.142 A 
ATOM     29  F   UNL d   1     -50.149  13.662  22.101  0.00  0.00    -0.204 F 
ATOM     30  C   UNL d   1     -50.718  12.518  22.691  0.00  0.00     0.030 A 
ATOM     31  C   UNL d   1     -50.677  11.885  23.223  0.00  0.00     0.002 A 
ATOM     32  C   UNL d   1     -50.004  11.780  23.698  0.00  0.00     0.000 A 
ATOM     33  C   UNL d   1     -49.393  12.307  23.629  0.00  0.00     0.004 A 
ENDBRANCH  26  27
ENDBRANCH   1  26
TORSDOF 6
ENDMDL
MODEL 2
REMARK VINA RESULT:      -5.1      2.646      7.727
REMARK  6 active torsions:
REMARK  status: ('A' for Active; 'I' for Inactive)
REMARK    1  A    between atoms: C_10  and  N_1 
REMARK    2  A    between atoms: S_14  and  C_6 
REMARK       I    between atoms: N_7  and  C_11 
REMARK    3  A    between atoms: C_22  and  N_9 
REMARK    4  A    between atoms: C_13  and  C_10 
REMARK    5  A    between atoms: C_11  and  C_16 
REMARK    6  A    between atoms: C_16  and  S_14 
ROOT
ATOM      1  N   UNL d   1     -40.578  14.697  18.824  0.00  0.00    -0.192 N 
ATOM      2  N   UNL d   1     -40.869  13.978  18.567  0.00  0.00    -0.058 NA
ATOM      3  C   UNL d   1     -40.831  14.807  19.598  0.00  0.00     0.189 A 
ATOM      4  C   UNL d   1     -41.278  14.146  19.808  0.00  0.00     0.164 A 
ATOM      5  N   UNL d   1     -41.294  13.641  19.161  0.00  0.00    -0.125 NA
ATOM      6  C   UNL d   1     -41.609  14.091  20.550  0.00  0.00     0.135 A 
ATOM      7  N   UNL d   1     -40.714  15.412  20.129  0.00  0.00    -0.203 NA
ATOM      8  N   UNL d   1     -41.494  14.703  21.096  0.00  0.00    -0.216 NA
ATOM      9  C   UNL d   1     -41.046  15.363  20.885  0.00  0.00     0.201 A 
ENDROOT
BRANCH   6  10
ATOM     10  S   UNL d   1     -42.057  13.431  20.761  0.00  0.00    -0.061 SA
BRANCH  10  11
ATOM     11  C   UNL d   1     -42.762  13.521  21.157  0.00  0.00     0.098 C 
BRANCH  11  12
ATOM     12  C   UNL d   1     -43.132  12.862  21.489  0.00  0.00     0.272 C 
ATOM     13  N   UNL d   1     -43.905  12.936  21.777  0.00  0.00    -0.269 N 
ATOM     14  C   UNL d   1     -44.300  13.661  21.732  0.00  0.00     0.102 A 
ATOM     15  C   UNL d   1     -44.289  12.287  22.112  0.00  0.00     0.102 A 
ATOM     16  C   UNL d   1     -45.073  13.734  22.019  0.00  0.00     0.100 A 
ATOM     17  N   UNL d   1     -45.451  13.081  22.353  0.00  0.00    -0.301 N 
ATOM     18  C   UNL d   1     -45.056  12.355  22.399  0.00  0.00     0.100 A 
ATOM     19  O   UNL d   1     -42.744  12.142  21.536  0.00  0.00    -0.266 OA
BRANCH  17  20
ATOM     20  C   UNL d   1     -46.223  13.153  22.641  0.00  0.00     0.064 A 
ATOM     21  C   UNL d   1     -46.592  12.506  22.995  0.00  0.00     0.018 A 
ATOM     22  C   UNL d   1     -47.362  12.585  23.279  0.00  0.00     0.002 A 
ATOM     23  C   UNL d   1     -47.755  13.289  23.214  0.00  0.00     0.000 A 
ATOM     24  C   UNL d   1     -47.386  13.936  22.860  0.00  0.00     0.002 A 
ATOM     25  C   UNL d   1     -46.613  13.864  22.572  0.00  0.00     0.018 A 
ENDBRANCH  17  20
ENDBRANCH  11  12
ENDBRANCH  10  11
ENDBRANCH   6  10
BRANCH   1  26
ATOM     26  C   UNL d   1     -40.107  15.224  18.374  0.00  0.00     0.106 C 
BRANCH  26  27
ATOM     27  C   UNL d   1     -39.650  14.943  17.737  0.00  0.00     0.047 A 
ATOM     28  C   UNL d   1     -39.757  15.260  16.983  0.00  0.00     0.142 A 
ATOM     29  F   UNL d   1     -40.308  15.853  16.847  0.00  0.00    -0.204 F 
ATOM     30  C   UNL d   1     -39.312  14.988  16.357  0.00  0.00     0.030 A 
ATOM     31  C   UNL d   1     -38.753  14.391  16.479  0.00  0.00     0.002 A 
ATOM     32  C   UNL d   1     -38.642  14.068  17.237  0.00  0.00     0.000 A 
ATOM     33  C   UNL d   1     -39.092  14.350  17.849  0.00  0.00     0.004 A 
ENDBRANCH  26  27
ENDBRANCH   1  26
TORSDOF 6
ENDMDL
MODEL 3
REMARK VINA RESULT:      -4.7      1.944      7.379
REMARK  6 active torsions:
REMARK  status: ('A' for Active; 'I' for Inactive)
REMARK    1  A    between atoms: C_10  and  N_1 
REMARK    2  A    between atoms: S_14  and  C_6 
REMARK       I    between atoms: N_7  and  C_11 
REMARK    3  A    between atoms: C_22  and  N_9 
REMARK    4  A    between atoms: C_13  and  C_10 
REMARK    5  A    between atoms: C_11  and  C_16 
REMARK    6  A    between atoms: C_16  and  S_14 
ROOT
ATOM      1  N   UNL d   1     -42.337  13.426  21.274  0.00  0.00    -0.192 N 
ATOM      2  N   UNL d   1     -42.723  14.118  21.071  0.00  0.00    -0.058 NA
ATOM      3  C   UNL d   1     -42.893  12.918  21.601  0.00  0.00     0.189 A 
ATOM      4  C   UNL d   1     -43.620  13.307  21.594  0.00  0.00     0.164 A 
ATOM      5  N   UNL d   1     -43.501  14.049  21.263  0.00  0.00    -0.125 NA
ATOM      6  C   UNL d   1     -44.287  12.941  21.884  0.00  0.00     0.135 A 
ATOM      7  N   UNL d   1     -42.832  12.162  21.898  0.00  0.00    -0.203 NA
ATOM      8  N   UNL d   1     -44.232  12.173  22.189  0.00  0.00    -0.216 NA
ATOM      9  C   UNL d   1     -43.505  11.784  22.196  0.00  0.00     0.201 A 
ENDROOT
BRANCH   6  10
ATOM     10  S   UNL d   1     -45.014  13.330  21.877  0.00  0.00    -0.061 SA
BRANCH  10  11
ATOM     11  C   UNL d   1     -45.618  13.084  22.365  0.00  0.00     0.098 C 
BRANCH  11  12
ATOM     12  C   UNL d   1     -46.195  13.622  22.606  0.00  0.00     0.272 C 
ATOM     13  N   UNL d   1     -46.975  13.361  22.705  0.00  0.00    -0.269 N 
ATOM     14  C   UNL d   1     -47.171  12.570  22.563  0.00  0.00     0.102 A 
ATOM     15  C   UNL d   1     -47.563  13.887  22.945  0.00  0.00     0.102 A 
ATOM     16  C   UNL d   1     -47.951  12.309  22.662  0.00  0.00     0.100 A 
ATOM     17  N   UNL d   1     -48.534  12.840  22.903  0.00  0.00    -0.301 N 
ATOM     18  C   UNL d   1     -48.338  13.632  23.045  0.00  0.00     0.100 A 
ATOM     19  O   UNL d   1     -46.005  14.407  22.747  0.00  0.00    -0.266 OA
BRANCH  17  20
ATOM     20  C   UNL d   1     -49.313  12.581  23.002  0.00  0.00     0.064 A 
ATOM     21  C   UNL d   1     -49.496  12.045  23.603  0.00  0.00     0.018 A 
ATOM     22  C   UNL d   1     -50.274  11.792  23.696  0.00  0.00     0.002 A 
ATOM     23  C   UNL d   1     -50.858  12.062  23.204  0.00  0.00     0.000 A 
ATOM     24  C   UNL d   1     -50.675  12.597  22.603  0.00  0.00     0.002 A 
ATOM     25  C   UNL d   1     -49.895  12.857  22.504  0.00  0.00     0.018 A 
ENDBRANCH  17  20
ENDBRANCH  11  12
ENDBRANCH  10  11
ENDBRANCH   6  10
BRANCH   1  26
ATOM     26  C   UNL d   1     -41.521  13.271  21.167  0.00  0.00     0.106 C 
BRANCH  26  27
ATOM     27  C   UNL d   1     -40.996  13.887  20.973  0.00  0.00     0.047 A 
ATOM     28  C   UNL d   1     -40.338  14.032  21.448  0.00  0.00     0.142 A 
ATOM     29  F   UNL d   1     -40.188  13.576  22.115  0.00  0.00    -0.204 F 
ATOM     30  C   UNL d   1     -39.821  14.634  21.262  0.00  0.00     0.030 A 
ATOM     31  C   UNL d   1     -39.959  15.101  20.593  0.00  0.00     0.002 A 
ATOM     32  C   UNL d   1     -40.621  14.959  20.111  0.00  0.00     0.000 A 
ATOM     33  C   UNL d   1     -41.124  14.357  20.310  0.00  0.00     0.004 A 
ENDBRANCH  26  27
ENDBRANCH   1  26
TORSDOF 6
ENDMDL
MODEL 4
REMARK VINA RESULT:      -4.0      2.057      3.555
REMARK  6 active torsions:
REMARK  status: ('A' for Active; 'I' for Inactive)
REMARK    1  A    between atoms: C_10  and  N_1 
REMARK    2  A    between atoms: S_14  and  C_6 
REMARK       I    between atoms: N_7  and  C_11 
REMARK    3  A    between atoms: C_22  and  N_9 
REMARK    4  A    between atoms: C_13  and  C_10 
REMARK    5  A    between atoms: C_11  and  C_16 
REMARK    6  A    between atoms: C_16  and  S_14 
ROOT
ATOM      1  N   UNL d   1     -44.871  12.864  22.188  0.00  0.00    -0.192 N 
ATOM      2  N   UNL d   1     -44.943  13.655  21.999  0.00  0.00    -0.058 NA
ATOM      3  C   UNL d   1     -44.103  12.634  22.011  0.00  0.00     0.189 A 
ATOM      4  C   UNL d   1     -43.709  13.295  21.713  0.00  0.00     0.164 A 
ATOM      5  N   UNL d   1     -44.241  13.921  21.710  0.00  0.00    -0.125 NA
ATOM      6  C   UNL d   1     -42.928  13.242  21.485  0.00  0.00     0.135 A 
ATOM      7  N   UNL d   1     -43.717  11.921  22.082  0.00  0.00    -0.203 NA
ATOM      8  N   UNL d   1     -42.530  12.520  21.555  0.00  0.00    -0.216 NA
ATOM      9  C   UNL d   1     -42.924  11.860  21.853  0.00  0.00     0.201 A 
ENDROOT
BRANCH   6  10
ATOM     10  S   UNL d   1     -42.534  13.903  21.187  0.00  0.00    -0.061 SA
BRANCH  10  11
ATOM     11  C   UNL d   1     -41.849  13.815  20.758  0.00  0.00     0.098 C 
BRANCH  11  12
ATOM     12  C   UNL d   1     -41.355  14.464  20.635  0.00  0.00     0.272 C 
ATOM     13  N   UNL d   1     -40.918  14.513  19.933  0.00  0.00    -0.269 N 
ATOM     14  C   UNL d   1     -40.976  13.916  19.363  0.00  0.00     0.102 A 
ATOM     15  C   UNL d   1     -40.421  15.156  19.796  0.00  0.00     0.102 A 
ATOM     16  C   UNL d   1     -40.539  13.965  18.661  0.00  0.00     0.100 A 
ATOM     17  N   UNL d   1     -40.044  14.611  18.531  0.00  0.00    -0.301 N 
ATOM     18  C   UNL d   1     -39.985  15.209  19.101  0.00  0.00     0.100 A 
ATOM     19  O   UNL d   1     -41.295  15.058  21.198  0.00  0.00    -0.266 OA
BRANCH  17  20
ATOM     20  C   UNL d   1     -39.606  14.661  17.830  0.00  0.00     0.064 A 
ATOM     21  C   UNL d   1     -39.857  15.160  17.223  0.00  0.00     0.018 A 
ATOM     22  C   UNL d   1     -39.416  15.204  16.528  0.00  0.00     0.002 A 
ATOM     23  C   UNL d   1     -38.743  14.765  16.438  0.00  0.00     0.000 A 
ATOM     24  C   UNL d   1     -38.492  14.266  17.045  0.00  0.00     0.002 A 
ATOM     25  C   UNL d   1     -38.930  14.216  17.746  0.00  0.00     0.018 A 
ENDBRANCH  17  20
ENDBRANCH  11  12
ENDBRANCH  10  11
ENDBRANCH   6  10
BRANCH   1  26
ATOM     26  C   UNL d   1     -45.476  12.378  22.504  0.00  0.00     0.106 C 
BRANCH  26  27
ATOM     27  C   UNL d   1     -46.203  12.709  22.738  0.00  0.00     0.047 A 
ATOM     28  C   UNL d   1     -46.649  12.347  23.330  0.00  0.00     0.142 A 
ATOM     29  F   UNL d   1     -46.387  11.661  23.698  0.00  0.00    -0.204 F 
ATOM     30  C   UNL d   1     -47.361  12.668  23.563  0.00  0.00     0.030 A 
ATOM     31  C   UNL d   1     -47.637  13.359  23.201  0.00  0.00     0.002 A 
ATOM     32  C   UNL d   1     -47.192  13.728  22.604  0.00  0.00     0.000 A 
ATOM     33  C   UNL d   1     -46.486  13.396  22.385  0.00  0.00     0.004 A 
ENDBRANCH  26  27
ENDBRANCH   1  26
TORSDOF 6
ENDMDL
MODEL 5
REMARK VINA RESULT:      -2.9      1.455      2.307
REMARK  6 active torsions:
REMARK  status: ('A' for Active; 'I' for Inactive)
REMARK    1  A    between atoms: C_10  and  N_1 
REMARK    2  A    between atoms: S_14  and  C_6 
REMARK       I    between atoms: N_7  and  C_11 
REMARK    3  A    between atoms: C_22  and  N_9 
REMARK    4  A    between atoms: C_13  and  C_10 
REMARK    5  A    between atoms: C_11  and  C_16 
REMARK    6  A    between atoms: C_16  and  S_14 
ROOT
ATOM      1  N   UNL d   1     -46.053  12.433  22.968  0.00  0.00    -0.192 N 
ATOM      2  N   UNL d   1     -46.175  13.094  22.504  0.00  0.00    -0.058 NA
ATOM      3  C   UNL d   1     -45.285  12.175  22.839  0.00  0.00     0.189 A 
ATOM      4  C   UNL d   1     -44.941  12.686  22.290  0.00  0.00     0.164 A 
ATOM      5  N   UNL d   1     -45.503  13.251  22.091  0.00  0.00    -0.125 NA
ATOM      6  C   UNL d   1     -44.172  12.573  22.046  0.00  0.00     0.135 A 
ATOM      7  N   UNL d   1     -44.860  11.551  23.143  0.00  0.00    -0.203 NA
ATOM      8  N   UNL d   1     -43.735  11.941  22.352  0.00  0.00    -0.216 NA
ATOM      9  C   UNL d   1     -44.079  11.430  22.901  0.00  0.00     0.201 A 
ENDROOT
BRANCH   6  10
ATOM     10  S   UNL d   1     -43.828  13.084  21.497  0.00  0.00    -0.061 SA
BRANCH  10  11
ATOM     11  C   UNL d   1     -43.029  13.238  21.522  0.00  0.00     0.098 C 
BRANCH  11  12
ATOM     12  C   UNL d   1     -42.745  13.971  21.274  0.00  0.00     0.272 C 
ATOM     13  N   UNL d   1     -41.943  14.051  21.083  0.00  0.00    -0.269 N 
ATOM     14  C   UNL d   1     -41.433  13.401  21.142  0.00  0.00     0.102 A 
ATOM     15  C   UNL d   1     -41.643  14.778  20.833  0.00  0.00     0.102 A 
ATOM     16  C   UNL d   1     -40.632  13.481  20.951  0.00  0.00     0.100 A 
ATOM     17  N   UNL d   1     -40.339  14.211  20.702  0.00  0.00    -0.301 N 
ATOM     18  C   UNL d   1     -40.849  14.862  20.643  0.00  0.00     0.100 A 
ATOM     19  O   UNL d   1     -43.246  14.618  21.215  0.00  0.00    -0.266 OA
BRANCH  17  20
ATOM     20  C   UNL d   1     -39.538  14.292  20.511  0.00  0.00     0.064 A 
ATOM     21  C   UNL d   1     -39.315  14.464  19.736  0.00  0.00     0.018 A 
ATOM     22  C   UNL d   1     -38.515  14.543  19.554  0.00  0.00     0.002 A 
ATOM     23  C   UNL d   1     -37.951  14.453  20.127  0.00  0.00     0.000 A 
ATOM     24  C   UNL d   1     -38.174  14.281  20.902  0.00  0.00     0.002 A 
ATOM     25  C   UNL d   1     -38.976  14.200  21.093  0.00  0.00     0.018 A 
ENDBRANCH  17  20
ENDBRANCH  11  12
ENDBRANCH  10  11
ENDBRANCH   6  10
BRANCH   1  26
ATOM     26  C   UNL d   1     -46.616  12.085  23.483  0.00  0.00     0.106 C 
BRANCH  26  27
ATOM     27  C   UNL d   1     -47.427  12.251  23.395  0.00  0.00     0.047 A 
ATOM     28  C   UNL d   1     -47.978  11.639  23.436  0.00  0.00     0.142 A 
ATOM     29  F   UNL d   1     -47.742  10.863  23.563  0.00  0.00    -0.204 F 
ATOM     30  C   UNL d   1     -48.774  11.796  23.351  0.00  0.00     0.030 A 
ATOM     31  C   UNL d   1     -49.026  12.573  23.222  0.00  0.00     0.002 A 
ATOM     32  C   UNL d   1     -48.475  13.193  23.180  0.00  0.00     0.000 A 
ATOM     33  C   UNL d   1     -47.689  13.020  23.267  0.00  0.00     0.004 A 
ENDBRANCH  26  27
ENDBRANCH   1  26
TORSDOF 6
ENDMDL
MODEL 6
REMARK VINA RESULT:      -2.5      2.488      7.523
REMARK  6 active torsions:
REMARK  status: ('A' for Active; 'I' for Inactive)
REMARK    1  A    between atoms: C_10  and  N_1 
REMARK    2  A    between atoms: S_14  and  C_6 
REMARK       I    between atoms: N_7  and  C_11 
REMARK    3  A    between atoms: C_22  and  N_9 
REMARK    4  A    between atoms: C_13  and  C_10 
REMARK    5  A    between atoms: C_11  and  C_16 
REMARK    6  A    between atoms: C_16  and  S_14 
ROOT
ATOM      1  N   UNL d   1     -40.484  14.470  21.138  0.00  0.00    -0.192 N 
ATOM      2  N   UNL d   1     -40.574  14.240  21.918  0.00  0.00    -0.058 NA
ATOM      3  C   UNL d   1     -41.087  14.119  20.704  0.00  0.00     0.189 A 
ATOM      4  C   UNL d   1     -41.543  13.674  21.228  0.00  0.00     0.164 A 
ATOM      5  N   UNL d   1     -41.215  13.758  21.976  0.00  0.00    -0.125 NA
ATOM      6  C   UNL d   1     -42.190  13.257  20.961  0.00  0.00     0.135 A 
ATOM      7  N   UNL d   1     -41.277  14.147  19.913  0.00  0.00    -0.203 NA
ATOM      8  N   UNL d   1     -42.388  13.281  20.158  0.00  0.00    -0.216 NA
ATOM      9  C   UNL d   1     -41.931  13.726  19.634  0.00  0.00     0.201 A 
ENDROOT
BRANCH   6  10
ATOM     10  S   UNL d   1     -42.646  12.812  21.484  0.00  0.00    -0.061 SA
BRANCH  10  11
ATOM     11  C   UNL d   1     -43.458  12.860  21.466  0.00  0.00     0.098 C 
BRANCH  11  12
ATOM     12  C   UNL d   1     -43.908  12.404  21.987  0.00  0.00     0.272 C 
ATOM     13  N   UNL d   1     -44.695  12.614  22.132  0.00  0.00    -0.269 N 
ATOM     14  C   UNL d   1     -45.027  13.274  21.757  0.00  0.00     0.102 A 
ATOM     15  C   UNL d   1     -45.158  12.169  22.650  0.00  0.00     0.102 A 
ATOM     16  C   UNL d   1     -45.815  13.484  21.901  0.00  0.00     0.100 A 
ATOM     17  N   UNL d   1     -46.271  13.034  22.421  0.00  0.00    -0.301 N 
ATOM     18  C   UNL d   1     -45.940  12.374  22.796  0.00  0.00     0.100 A 
ATOM     19  O   UNL d   1     -43.583  11.750  22.360  0.00  0.00    -0.266 OA
BRANCH  17  20
ATOM     20  C   UNL d   1     -47.058  13.242  22.566  0.00  0.00     0.064 A 
ATOM     21  C   UNL d   1     -47.668  12.839  22.184  0.00  0.00     0.018 A 
ATOM     22  C   UNL d   1     -48.450  13.053  22.334  0.00  0.00     0.002 A 
ATOM     23  C   UNL d   1     -48.622  13.652  22.850  0.00  0.00     0.000 A 
ATOM     24  C   UNL d   1     -48.012  14.055  23.232  0.00  0.00     0.002 A 
ATOM     25  C   UNL d   1     -47.224  13.846  23.086  0.00  0.00     0.018 A 
ENDBRANCH  17  20
ENDBRANCH  11  12
ENDBRANCH  10  11
ENDBRANCH   6  10
BRANCH   1  26
ATOM     26  C   UNL d   1     -39.884  14.973  20.841  0.00  0.00     0.106 C 
BRANCH  26  27
ATOM     27  C   UNL d   1     -39.307  15.287  21.352  0.00  0.00     0.047 A 
ATOM     28  C   UNL d   1     -38.512  15.278  21.131  0.00  0.00     0.142 A 
ATOM     29  F   UNL d   1     -38.277  14.961  20.411  0.00  0.00    -0.204 F 
ATOM     30  C   UNL d   1     -37.943  15.585  21.628  0.00  0.00     0.030 A 
ATOM     31  C   UNL d   1     -38.166  15.907  22.357  0.00  0.00     0.002 A 
ATOM     32  C   UNL d   1     -38.965  15.919  22.584  0.00  0.00     0.000 A 
ATOM     33  C   UNL d   1     -39.518  15.610  22.079  0.00  0.00     0.004 A 
ENDBRANCH  26  27
ENDBRANCH   1  26
TORSDOF 6
ENDMDL
