MODEL 1
REMARK VINA RESULT:      -9.7      0.000      0.000
REMARK  4 active torsions:
REMARK  status: ('A' for Active; 'I' for Inactive)
REMARK    1  A    between atoms: C_6  and  N_1 
REMARK    2  A    between atoms: C_12  and  C_6 
REMARK    3  A    between atoms: O_18  and  C_7 
REMARK    4  A    between atoms: O_19  and  C_10 
ROOT
ATOM      1  N   UNL d   1      53.400  31.658  53.196  0.00  0.00    -0.251 N 
ATOM      2  C   UNL d   1      52.828  31.860  52.622  0.00  0.00     0.378 A 
ATOM      3  C   UNL d   1      53.247  30.883  53.445  0.00  0.00     0.092 A 
ATOM      4  O   UNL d   1      52.325  31.210  52.519  0.00  0.00    -0.258 OA
ATOM      5  C   UNL d   1      52.584  30.607  53.027  0.00  0.00     0.121 A 
ATOM      6  O   UNL d   1      52.778  32.583  52.230  0.00  0.00    -0.237 OA
ATOM      7  C   UNL d   1      53.626  30.404  53.994  0.00  0.00     0.020 A 
ATOM      8  C   UNL d   1      52.307  29.839  53.170  0.00  0.00     0.026 A 
ATOM      9  C   UNL d   1      53.342  29.641  54.127  0.00  0.00     0.002 A 
ATOM     10  C   UNL d   1      52.686  29.360  53.717  0.00  0.00     0.002 A 
ATOM     11  C   UNL d   1      53.728  29.160  54.682  0.00  0.00     0.000 C 
ENDROOT
BRANCH   1  12
ATOM     12  C   UNL d   1      54.021  32.115  53.491  0.00  0.00     0.085 C 
BRANCH  12  13
ATOM     13  C   UNL d   1      53.856  32.793  53.932  0.00  0.00     0.020 A 
ATOM     14  C   UNL d   1      54.371  33.026  54.521  0.00  0.00     0.028 A 
ATOM     15  C   UNL d   1      54.217  33.698  54.965  0.00  0.00     0.116 A 
ATOM     16  C   UNL d   1      53.533  34.140  54.809  0.00  0.00     0.116 A 
ATOM     17  C   UNL d   1      53.016  33.904  54.216  0.00  0.00     0.026 A 
ATOM     18  C   UNL d   1      53.180  33.225  53.775  0.00  0.00     0.004 A 
BRANCH  15  19
ATOM     19  O   UNL d   1      54.730  33.934  55.555  0.00  0.00    -0.326 OA
ATOM     20  C   UNL d   1      55.483  33.772  55.261  0.00  0.00     0.181 C 
ENDBRANCH  15  19
BRANCH  16  21
ATOM     21  O   UNL d   1      53.374  34.815  55.251  0.00  0.00    -0.326 OA
ATOM     22  C   UNL d   1      52.829  35.360  54.979  0.00  0.00     0.181 C 
ENDBRANCH  16  21
ENDBRANCH  12  13
ENDBRANCH   1  12
TORSDOF 4
ENDMDL
MODEL 2
REMARK VINA RESULT:      -9.2      1.211      4.094
REMARK  4 active torsions:
REMARK  status: ('A' for Active; 'I' for Inactive)
REMARK    1  A    between atoms: C_6  and  N_1 
REMARK    2  A    between atoms: C_12  and  C_6 
REMARK    3  A    between atoms: O_18  and  C_7 
REMARK    4  A    between atoms: O_19  and  C_10 
ROOT
ATOM      1  N   UNL d   1      53.637  33.034  53.820  0.00  0.00    -0.251 N 
ATOM      2  C   UNL d   1      53.932  33.297  54.556  0.00  0.00     0.378 A 
ATOM      3  C   UNL d   1      53.025  33.544  53.595  0.00  0.00     0.092 A 
ATOM      4  O   UNL d   1      53.501  33.967  54.782  0.00  0.00    -0.258 OA
ATOM      5  C   UNL d   1      52.941  34.120  54.189  0.00  0.00     0.121 A 
ATOM      6  O   UNL d   1      54.545  32.945  54.979  0.00  0.00    -0.237 OA
ATOM      7  C   UNL d   1      52.541  33.554  52.931  0.00  0.00     0.020 A 
ATOM      8  C   UNL d   1      52.362  34.706  54.104  0.00  0.00     0.026 A 
ATOM      9  C   UNL d   1      51.968  34.142  52.858  0.00  0.00     0.002 A 
ATOM     10  C   UNL d   1      51.879  34.716  53.441  0.00  0.00     0.002 A 
ATOM     11  C   UNL d   1      51.482  34.148  52.186  0.00  0.00     0.000 C 
ENDROOT
BRANCH   1  12
ATOM     12  C   UNL d   1      53.881  32.390  53.365  0.00  0.00     0.085 C 
BRANCH  12  13
ATOM     13  C   UNL d   1      53.656  31.626  53.583  0.00  0.00     0.020 A 
ATOM     14  C   UNL d   1      53.237  31.163  53.058  0.00  0.00     0.028 A 
ATOM     15  C   UNL d   1      53.009  30.404  53.265  0.00  0.00     0.116 A 
ATOM     16  C   UNL d   1      53.209  30.109  54.013  0.00  0.00     0.116 A 
ATOM     17  C   UNL d   1      53.632  30.576  54.541  0.00  0.00     0.026 A 
ATOM     18  C   UNL d   1      53.856  31.340  54.323  0.00  0.00     0.004 A 
BRANCH  15  19
ATOM     19  O   UNL d   1      52.589  29.937  52.742  0.00  0.00    -0.326 OA
ATOM     20  C   UNL d   1      52.990  30.008  52.025  0.00  0.00     0.181 C 
ENDBRANCH  15  19
BRANCH  16  21
ATOM     21  O   UNL d   1      52.984  29.347  54.226  0.00  0.00    -0.326 OA
ATOM     22  C   UNL d   1      53.262  29.021  54.922  0.00  0.00     0.181 C 
ENDBRANCH  16  21
ENDBRANCH  12  13
ENDBRANCH   1  12
TORSDOF 4
ENDMDL
MODEL 3
REMARK VINA RESULT:      -9.0      1.068      4.011
REMARK  4 active torsions:
REMARK  status: ('A' for Active; 'I' for Inactive)
REMARK    1  A    between atoms: C_6  and  N_1 
REMARK    2  A    between atoms: C_12  and  C_6 
REMARK    3  A    between atoms: O_18  and  C_7 
REMARK    4  A    between atoms: O_19  and  C_10 
ROOT
ATOM      1  N   UNL d   1      53.200  32.624  53.587  0.00  0.00    -0.251 N 
ATOM      2  C   UNL d   1      52.405  32.862  53.494  0.00  0.00     0.378 A 
ATOM      3  C   UNL d   1      53.570  33.168  54.089  0.00  0.00     0.092 A 
ATOM      4  O   UNL d   1      52.288  33.551  53.938  0.00  0.00    -0.258 OA
ATOM      5  C   UNL d   1      53.008  33.740  54.305  0.00  0.00     0.121 A 
ATOM      6  O   UNL d   1      51.840  32.473  53.037  0.00  0.00    -0.237 OA
ATOM      7  C   UNL d   1      54.341  33.211  54.371  0.00  0.00     0.020 A 
ATOM      8  C   UNL d   1      53.232  34.357  54.810  0.00  0.00     0.026 A 
ATOM      9  C   UNL d   1      54.553  33.830  54.873  0.00  0.00     0.002 A 
ATOM     10  C   UNL d   1      54.001  34.400  55.092  0.00  0.00     0.002 A 
ATOM     11  C   UNL d   1      55.332  33.869  55.155  0.00  0.00     0.000 C 
ENDROOT
BRANCH   1  12
ATOM     12  C   UNL d   1      53.588  31.973  53.259  0.00  0.00     0.085 C 
BRANCH  12  13
ATOM     13  C   UNL d   1      53.435  31.216  53.550  0.00  0.00     0.020 A 
ATOM     14  C   UNL d   1      53.046  30.674  53.080  0.00  0.00     0.028 A 
ATOM     15  C   UNL d   1      52.889  29.920  53.359  0.00  0.00     0.116 A 
ATOM     16  C   UNL d   1      53.131  29.711  54.124  0.00  0.00     0.116 A 
ATOM     17  C   UNL d   1      53.523  30.258  54.596  0.00  0.00     0.026 A 
ATOM     18  C   UNL d   1      53.676  31.016  54.305  0.00  0.00     0.004 A 
BRANCH  15  19
ATOM     19  O   UNL d   1      52.500  29.374  52.892  0.00  0.00    -0.326 OA
ATOM     20  C   UNL d   1      52.770  29.518  52.127  0.00  0.00     0.181 C 
ENDBRANCH  15  19
BRANCH  16  21
ATOM     21  O   UNL d   1      52.977  28.955  54.410  0.00  0.00    -0.326 OA
ATOM     22  C   UNL d   1      53.349  28.694  55.090  0.00  0.00     0.181 C 
ENDBRANCH  16  21
ENDBRANCH  12  13
ENDBRANCH   1  12
TORSDOF 4
ENDMDL
MODEL 4
REMARK VINA RESULT:      -8.8      1.492      2.218
REMARK  4 active torsions:
REMARK  status: ('A' for Active; 'I' for Inactive)
REMARK    1  A    between atoms: C_6  and  N_1 
REMARK    2  A    between atoms: C_12  and  C_6 
REMARK    3  A    between atoms: O_18  and  C_7 
REMARK    4  A    between atoms: O_19  and  C_10 
ROOT
ATOM      1  N   UNL d   1      53.575  32.174  53.851  0.00  0.00    -0.251 N 
ATOM      2  C   UNL d   1      53.763  32.251  54.661  0.00  0.00     0.378 A 
ATOM      3  C   UNL d   1      53.424  31.375  53.700  0.00  0.00     0.092 A 
ATOM      4  O   UNL d   1      53.726  31.499  55.007  0.00  0.00    -0.258 OA
ATOM      5  C   UNL d   1      53.517  30.958  54.413  0.00  0.00     0.121 A 
ATOM      6  O   UNL d   1      53.950  32.955  55.044  0.00  0.00    -0.237 OA
ATOM      7  C   UNL d   1      53.215  30.981  53.009  0.00  0.00     0.020 A 
ATOM      8  C   UNL d   1      53.397  30.139  54.421  0.00  0.00     0.026 A 
ATOM      9  C   UNL d   1      53.098  30.165  53.029  0.00  0.00     0.002 A 
ATOM     10  C   UNL d   1      53.189  29.746  53.731  0.00  0.00     0.002 A 
ATOM     11  C   UNL d   1      52.888  29.772  52.330  0.00  0.00     0.000 C 
ENDROOT
BRANCH   1  12
ATOM     12  C   UNL d   1      53.536  32.761  53.271  0.00  0.00     0.085 C 
BRANCH  12  13
ATOM     13  C   UNL d   1      52.883  33.265  53.241  0.00  0.00     0.020 A 
ATOM     14  C   UNL d   1      52.941  34.019  53.547  0.00  0.00     0.028 A 
ATOM     15  C   UNL d   1      52.298  34.527  53.522  0.00  0.00     0.116 A 
ATOM     16  C   UNL d   1      51.588  34.267  53.184  0.00  0.00     0.116 A 
ATOM     17  C   UNL d   1      51.531  33.508  52.877  0.00  0.00     0.026 A 
ATOM     18  C   UNL d   1      52.184  33.004  52.906  0.00  0.00     0.004 A 
BRANCH  15  19
ATOM     19  O   UNL d   1      52.353  35.283  53.827  0.00  0.00    -0.326 OA
ATOM     20  C   UNL d   1      53.151  35.481  53.764  0.00  0.00     0.181 C 
ENDBRANCH  15  19
BRANCH  16  21
ATOM     21  O   UNL d   1      50.939  34.773  53.157  0.00  0.00    -0.326 OA
ATOM     22  C   UNL d   1      50.226  34.504  52.862  0.00  0.00     0.181 C 
ENDBRANCH  16  21
ENDBRANCH  12  13
ENDBRANCH   1  12
TORSDOF 4
ENDMDL
MODEL 5
REMARK VINA RESULT:      -8.3      2.149      3.606
REMARK  4 active torsions:
REMARK  status: ('A' for Active; 'I' for Inactive)
REMARK    1  A    between atoms: C_6  and  N_1 
REMARK    2  A    between atoms: C_12  and  C_6 
REMARK    3  A    between atoms: O_18  and  C_7 
REMARK    4  A    between atoms: O_19  and  C_10 
ROOT
ATOM      1  N   UNL d   1      52.945  33.096  53.152  0.00  0.00    -0.251 N 
ATOM      2  C   UNL d   1      52.749  32.296  53.011  0.00  0.00     0.378 A 
ATOM      3  C   UNL d   1      53.443  33.122  53.813  0.00  0.00     0.092 A 
ATOM      4  O   UNL d   1      53.126  31.833  53.584  0.00  0.00    -0.258 OA
ATOM      5  C   UNL d   1      53.555  32.342  54.080  0.00  0.00     0.121 A 
ATOM      6  O   UNL d   1      52.264  32.023  52.404  0.00  0.00    -0.237 OA
ATOM      7  C   UNL d   1      53.803  33.752  54.199  0.00  0.00     0.020 A 
ATOM      8  C   UNL d   1      54.035  32.206  54.741  0.00  0.00     0.026 A 
ATOM      9  C   UNL d   1      54.279  33.604  54.856  0.00  0.00     0.002 A 
ATOM     10  C   UNL d   1      54.394  32.835  55.126  0.00  0.00     0.002 A 
ATOM     11  C   UNL d   1      54.640  34.243  55.242  0.00  0.00     0.000 C 
ENDROOT
BRANCH   1  12
ATOM     12  C   UNL d   1      52.709  33.768  52.736  0.00  0.00     0.085 C 
BRANCH  12  13
ATOM     13  C   UNL d   1      51.921  34.012  52.765  0.00  0.00     0.020 A 
ATOM     14  C   UNL d   1      51.458  33.966  52.094  0.00  0.00     0.028 A 
ATOM     15  C   UNL d   1      50.675  34.206  52.113  0.00  0.00     0.116 A 
ATOM     16  C   UNL d   1      50.356  34.497  52.820  0.00  0.00     0.116 A 
ATOM     17  C   UNL d   1      50.823  34.543  53.495  0.00  0.00     0.026 A 
ATOM     18  C   UNL d   1      51.611  34.299  53.465  0.00  0.00     0.004 A 
BRANCH  15  19
ATOM     19  O   UNL d   1      50.209  34.161  51.443  0.00  0.00    -0.326 OA
ATOM     20  C   UNL d   1      50.672  34.480  50.841  0.00  0.00     0.181 C 
ENDBRANCH  15  19
BRANCH  16  21
ATOM     21  O   UNL d   1      49.570  34.739  52.845  0.00  0.00    -0.326 OA
ATOM     22  C   UNL d   1      49.312  35.219  53.454  0.00  0.00     0.181 C 
ENDBRANCH  16  21
ENDBRANCH  12  13
ENDBRANCH   1  12
TORSDOF 4
ENDMDL
MODEL 6
REMARK VINA RESULT:      -8.3      2.154      3.719
REMARK  4 active torsions:
REMARK  status: ('A' for Active; 'I' for Inactive)
REMARK    1  A    between atoms: C_6  and  N_1 
REMARK    2  A    between atoms: C_12  and  C_6 
REMARK    3  A    between atoms: O_18  and  C_7 
REMARK    4  A    between atoms: O_19  and  C_10 
ROOT
ATOM      1  N   UNL d   1      53.168  34.325  53.823  0.00  0.00    -0.251 N 
ATOM      2  C   UNL d   1      53.332  34.840  54.460  0.00  0.00     0.378 A 
ATOM      3  C   UNL d   1      53.439  33.571  54.029  0.00  0.00     0.092 A 
ATOM      4  O   UNL d   1      53.704  34.401  55.056  0.00  0.00    -0.258 OA
ATOM      5  C   UNL d   1      53.770  33.618  54.790  0.00  0.00     0.121 A 
ATOM      6  O   UNL d   1      53.153  35.643  54.484  0.00  0.00    -0.237 OA
ATOM      7  C   UNL d   1      53.425  32.857  53.622  0.00  0.00     0.020 A 
ATOM      8  C   UNL d   1      54.087  32.935  55.136  0.00  0.00     0.026 A 
ATOM      9  C   UNL d   1      53.744  32.184  53.976  0.00  0.00     0.002 A 
ATOM     10  C   UNL d   1      54.073  32.223  54.729  0.00  0.00     0.002 A 
ATOM     11  C   UNL d   1      53.728  31.466  53.561  0.00  0.00     0.000 C 
ENDROOT
BRANCH   1  12
ATOM     12  C   UNL d   1      52.804  34.494  53.101  0.00  0.00     0.085 C 
BRANCH  12  13
ATOM     13  C   UNL d   1      51.980  34.536  53.058  0.00  0.00     0.020 A 
ATOM     14  C   UNL d   1      51.598  34.281  52.383  0.00  0.00     0.028 A 
ATOM     15  C   UNL d   1      50.782  34.318  52.330  0.00  0.00     0.116 A 
ATOM     16  C   UNL d   1      50.346  34.617  52.968  0.00  0.00     0.116 A 
ATOM     17  C   UNL d   1      50.732  34.874  53.647  0.00  0.00     0.026 A 
ATOM     18  C   UNL d   1      51.556  34.832  53.690  0.00  0.00     0.004 A 
BRANCH  15  19
ATOM     19  O   UNL d   1      50.396  34.064  51.656  0.00  0.00    -0.326 OA
ATOM     20  C   UNL d   1      50.908  34.245  51.036  0.00  0.00     0.181 C 
ENDBRANCH  15  19
BRANCH  16  21
ATOM     21  O   UNL d   1      49.526  34.657  52.920  0.00  0.00    -0.326 OA
ATOM     22  C   UNL d   1      49.122  35.233  53.337  0.00  0.00     0.181 C 
ENDBRANCH  16  21
ENDBRANCH  12  13
ENDBRANCH   1  12
TORSDOF 4
ENDMDL
MODEL 7
REMARK VINA RESULT:      -7.8      1.944      3.392
REMARK  4 active torsions:
REMARK  status: ('A' for Active; 'I' for Inactive)
REMARK    1  A    between atoms: C_6  and  N_1 
REMARK    2  A    between atoms: C_12  and  C_6 
REMARK    3  A    between atoms: O_18  and  C_7 
REMARK    4  A    between atoms: O_19  and  C_10 
ROOT
ATOM      1  N   UNL d   1      51.856  33.319  53.185  0.00  0.00    -0.251 N 
ATOM      2  C   UNL d   1      52.268  32.986  52.539  0.00  0.00     0.378 A 
ATOM      3  C   UNL d   1      51.221  33.755  52.884  0.00  0.00     0.092 A 
ATOM      4  O   UNL d   1      51.885  33.219  51.842  0.00  0.00    -0.258 OA
ATOM      5  C   UNL d   1      51.239  33.694  52.055  0.00  0.00     0.121 A 
ATOM      6  O   UNL d   1      52.938  32.510  52.593  0.00  0.00    -0.237 OA
ATOM      7  C   UNL d   1      50.637  34.195  53.259  0.00  0.00     0.020 A 
ATOM      8  C   UNL d   1      50.660  34.083  51.609  0.00  0.00     0.026 A 
ATOM      9  C   UNL d   1      50.065  34.578  52.804  0.00  0.00     0.002 A 
ATOM     10  C   UNL d   1      50.076  34.522  51.983  0.00  0.00     0.002 A 
ATOM     11  C   UNL d   1      49.477  35.021  53.186  0.00  0.00     0.000 C 
ENDROOT
BRANCH   1  12
ATOM     12  C   UNL d   1      52.018  33.250  53.992  0.00  0.00     0.085 C 
BRANCH  12  13
ATOM     13  C   UNL d   1      52.742  33.514  54.289  0.00  0.00     0.020 A 
ATOM     14  C   UNL d   1      52.879  34.315  54.365  0.00  0.00     0.028 A 
ATOM     15  C   UNL d   1      53.594  34.587  54.658  0.00  0.00     0.116 A 
ATOM     16  C   UNL d   1      54.177  34.041  54.878  0.00  0.00     0.116 A 
ATOM     17  C   UNL d   1      54.038  33.235  54.801  0.00  0.00     0.026 A 
ATOM     18  C   UNL d   1      53.314  32.971  54.504  0.00  0.00     0.004 A 
BRANCH  15  19
ATOM     19  O   UNL d   1      53.735  35.388  54.735  0.00  0.00    -0.326 OA
ATOM     20  C   UNL d   1      53.008  35.713  54.948  0.00  0.00     0.181 C 
ENDBRANCH  15  19
BRANCH  16  21
ATOM     21  O   UNL d   1      54.897  34.308  55.173  0.00  0.00    -0.326 OA
ATOM     22  C   UNL d   1      55.536  33.800  55.208  0.00  0.00     0.181 C 
ENDBRANCH  16  21
ENDBRANCH  12  13
ENDBRANCH   1  12
TORSDOF 4
ENDMDL
MODEL 8
REMARK VINA RESULT:      -7.7      2.279      4.025
REMARK  4 active torsions:
REMARK  status: ('A' for Active; 'I' for Inactive)
REMARK    1  A    between atoms: C_6  and  N_1 
REMARK    2  A    between atoms: C_12  and  C_6 
REMARK    3  A    between atoms: O_18  and  C_7 
REMARK    4  A    between atoms: O_19  and  C_10 
ROOT
ATOM      1  N   UNL d   1      51.893  34.105  53.061  0.00  0.00    -0.251 N 
ATOM      2  C   UNL d   1      51.882  34.388  53.847  0.00  0.00     0.378 A 
ATOM      3  C   UNL d   1      51.148  34.247  52.729  0.00  0.00     0.092 A 
ATOM      4  O   UNL d   1      51.131  34.704  53.996  0.00  0.00    -0.258 OA
ATOM      5  C   UNL d   1      50.678  34.616  53.306  0.00  0.00     0.121 A 
ATOM      6  O   UNL d   1      52.512  34.356  54.375  0.00  0.00    -0.237 OA
ATOM      7  C   UNL d   1      50.846  34.086  51.982  0.00  0.00     0.020 A 
ATOM      8  C   UNL d   1      49.898  34.822  53.120  0.00  0.00     0.026 A 
ATOM      9  C   UNL d   1      50.068  34.296  51.808  0.00  0.00     0.002 A 
ATOM     10  C   UNL d   1      49.596  34.662  52.374  0.00  0.00     0.002 A 
ATOM     11  C   UNL d   1      49.767  34.132  51.053  0.00  0.00     0.000 C 
ENDROOT
BRANCH   1  12
ATOM     12  C   UNL d   1      52.511  33.743  52.651  0.00  0.00     0.085 C 
BRANCH  12  13
ATOM     13  C   UNL d   1      52.783  33.000  52.890  0.00  0.00     0.020 A 
ATOM     14  C   UNL d   1      53.530  32.928  53.210  0.00  0.00     0.028 A 
ATOM     15  C   UNL d   1      53.809  32.196  53.451  0.00  0.00     0.116 A 
ATOM     16  C   UNL d   1      53.325  31.529  53.366  0.00  0.00     0.116 A 
ATOM     17  C   UNL d   1      52.573  31.603  53.043  0.00  0.00     0.026 A 
ATOM     18  C   UNL d   1      52.301  32.345  52.804  0.00  0.00     0.004 A 
BRANCH  15  19
ATOM     19  O   UNL d   1      54.556  32.120  53.772  0.00  0.00    -0.326 OA
ATOM     20  C   UNL d   1      54.975  32.774  53.495  0.00  0.00     0.181 C 
ENDBRANCH  15  19
BRANCH  16  21
ATOM     21  O   UNL d   1      53.600  30.791  53.605  0.00  0.00    -0.326 OA
ATOM     22  C   UNL d   1      53.141  30.127  53.481  0.00  0.00     0.181 C 
ENDBRANCH  16  21
ENDBRANCH  12  13
ENDBRANCH   1  12
TORSDOF 4
ENDMDL
