MODEL 1
REMARK VINA RESULT:      51.2      0.000      0.000
REMARK  6 active torsions:
REMARK  status: ('A' for Active; 'I' for Inactive)
REMARK    1  A    between atoms: C_4  and  C_1 
REMARK    2  A    between atoms: C_3  and  C_7 
REMARK    3  A    between atoms: O_18  and  C_3 
REMARK    4  A    between atoms: C_9  and  C_4 
REMARK    5  A    between atoms: O_13  and  C_9 
REMARK    6  A    between atoms: C_15  and  O_13 
ROOT
ATOM      1  C   UNL d   1     -48.771  28.146  34.537  0.00  0.00     0.165 C 
ENDROOT
BRANCH   1   2
ATOM      2  C   UNL d   1     -47.998  28.364  34.679  0.00  0.00     0.223 C 
ATOM      3  O   UNL d   1     -47.380  27.838  34.529  0.00  0.00    -0.284 OA
BRANCH   2   4
ATOM      4  C   UNL d   1     -47.839  29.140  34.983  0.00  0.00     0.080 A 
ATOM      5  C   UNL d   1     -47.871  29.262  35.788  0.00  0.00     0.202 A 
ATOM      6  C   UNL d   1     -47.715  30.027  36.102  0.00  0.00     0.084 A 
ATOM      7  O   UNL d   1     -48.059  28.625  36.285  0.00  0.00    -0.286 OA
ATOM      8  C   UNL d   1     -47.531  30.637  35.579  0.00  0.00     0.199 A 
ATOM      9  C   UNL d   1     -47.500  30.505  34.762  0.00  0.00     0.042 A 
ATOM     10  O   UNL d   1     -47.375  31.402  35.893  0.00  0.00    -0.286 OA
ATOM     11  C   UNL d   1     -47.654  29.760  34.471  0.00  0.00     0.010 A 
ENDBRANCH   2   4
ENDBRANCH   1   2
BRANCH   1  12
ATOM     12  O   UNL d   1     -49.016  27.943  33.780  0.00  0.00    -0.302 OA
BRANCH  12  13
ATOM     13  C   UNL d   1     -49.650  27.420  33.676  0.00  0.00     0.100 A 
ATOM     14  C   UNL d   1     -50.392  27.709  33.464  0.00  0.00     0.025 A 
ATOM     15  C   UNL d   1     -51.013  27.202  33.361  0.00  0.00     0.007 A 
ATOM     16  C   UNL d   1     -50.913  26.374  33.469  0.00  0.00     0.063 A 
ATOM     17  C   UNL d   1     -50.170  26.085  33.681  0.00  0.00     0.007 A 
ATOM     18  C   UNL d   1     -49.530  26.625  33.785  0.00  0.00     0.025 A 
BRANCH  16  19
ATOM     19  C   UNL d   1     -51.561  25.857  33.361  0.00  0.00     0.296 C 
ATOM     20  O   UNL d   1     -52.331  26.147  33.308  0.00  0.00    -0.259 OA
BRANCH  19  21
ATOM     21  O   UNL d   1     -51.406  25.037  33.307  0.00  0.00    -0.296 OA
ATOM     22  C   UNL d   1     -51.816  24.496  33.776  0.00  0.00     0.185 C 
ENDBRANCH  19  21
ENDBRANCH  16  19
ENDBRANCH  12  13
ENDBRANCH   1  12
TORSDOF 6
ENDMDL
MODEL 2
REMARK VINA RESULT:      51.8      0.930      5.180
REMARK  6 active torsions:
REMARK  status: ('A' for Active; 'I' for Inactive)
REMARK    1  A    between atoms: C_4  and  C_1 
REMARK    2  A    between atoms: C_3  and  C_7 
REMARK    3  A    between atoms: O_18  and  C_3 
REMARK    4  A    between atoms: C_9  and  C_4 
REMARK    5  A    between atoms: O_13  and  C_9 
REMARK    6  A    between atoms: C_15  and  O_13 
ROOT
ATOM      1  C   UNL d   1     -49.194  27.993  34.381  0.00  0.00     0.165 C 
ENDROOT
BRANCH   1   2
ATOM      2  C   UNL d   1     -49.248  27.280  33.988  0.00  0.00     0.223 C 
ATOM      3  O   UNL d   1     -48.567  26.873  33.762  0.00  0.00    -0.284 OA
BRANCH   2   4
ATOM      4  C   UNL d   1     -50.016  26.963  33.815  0.00  0.00     0.080 A 
ATOM      5  C   UNL d   1     -50.086  26.168  33.650  0.00  0.00     0.202 A 
ATOM      6  C   UNL d   1     -50.842  25.842  33.477  0.00  0.00     0.084 A 
ATOM      7  O   UNL d   1     -49.406  25.693  33.657  0.00  0.00    -0.286 OA
ATOM      8  C   UNL d   1     -51.497  26.343  33.479  0.00  0.00     0.199 A 
ATOM      9  C   UNL d   1     -51.417  27.150  33.647  0.00  0.00     0.042 A 
ATOM     10  O   UNL d   1     -52.253  26.016  33.306  0.00  0.00    -0.286 OA
ATOM     11  C   UNL d   1     -50.680  27.453  33.813  0.00  0.00     0.010 A 
ENDBRANCH   2   4
ENDBRANCH   1   2
BRANCH   1  12
ATOM     12  O   UNL d   1     -48.592  28.127  34.923  0.00  0.00    -0.302 OA
BRANCH  12  13
ATOM     13  C   UNL d   1     -48.302  28.894  35.039  0.00  0.00     0.100 A 
ATOM     14  C   UNL d   1     -48.777  29.545  34.861  0.00  0.00     0.025 A 
ATOM     15  C   UNL d   1     -48.497  30.295  34.973  0.00  0.00     0.007 A 
ATOM     16  C   UNL d   1     -47.722  30.425  35.270  0.00  0.00     0.063 A 
ATOM     17  C   UNL d   1     -47.248  29.774  35.448  0.00  0.00     0.007 A 
ATOM     18  C   UNL d   1     -47.551  28.996  35.327  0.00  0.00     0.025 A 
BRANCH  16  19
ATOM     19  C   UNL d   1     -47.442  31.204  35.382  0.00  0.00     0.296 C 
ATOM     20  O   UNL d   1     -46.842  31.365  35.925  0.00  0.00    -0.259 OA
BRANCH  19  21
ATOM     21  O   UNL d   1     -47.787  31.816  34.929  0.00  0.00    -0.296 OA
ATOM     22  C   UNL d   1     -47.423  32.554  34.865  0.00  0.00     0.185 C 
ENDBRANCH  19  21
ENDBRANCH  16  19
ENDBRANCH  12  13
ENDBRANCH   1  12
TORSDOF 6
ENDMDL
MODEL 3
REMARK VINA RESULT:      52.4      0.884      1.351
REMARK  6 active torsions:
REMARK  status: ('A' for Active; 'I' for Inactive)
REMARK    1  A    between atoms: C_4  and  C_1 
REMARK    2  A    between atoms: C_3  and  C_7 
REMARK    3  A    between atoms: O_18  and  C_3 
REMARK    4  A    between atoms: C_9  and  C_4 
REMARK    5  A    between atoms: O_13  and  C_9 
REMARK    6  A    between atoms: C_15  and  O_13 
ROOT
ATOM      1  C   UNL d   1     -48.748  28.010  34.120  0.00  0.00     0.165 C 
ENDROOT
BRANCH   1   2
ATOM      2  C   UNL d   1     -48.771  28.797  34.331  0.00  0.00     0.223 C 
ATOM      3  O   UNL d   1     -49.250  29.328  33.918  0.00  0.00    -0.284 OA
BRANCH   2   4
ATOM      4  C   UNL d   1     -48.296  29.063  34.982  0.00  0.00     0.080 A 
ATOM      5  C   UNL d   1     -47.781  29.683  34.867  0.00  0.00     0.202 A 
ATOM      6  C   UNL d   1     -47.305  29.956  35.505  0.00  0.00     0.084 A 
ATOM      7  O   UNL d   1     -47.736  30.037  34.118  0.00  0.00    -0.286 OA
ATOM      8  C   UNL d   1     -47.375  29.581  36.237  0.00  0.00     0.199 A 
ATOM      9  C   UNL d   1     -47.902  28.951  36.346  0.00  0.00     0.042 A 
ATOM     10  O   UNL d   1     -46.899  29.854  36.874  0.00  0.00    -0.286 OA
ATOM     11  C   UNL d   1     -48.356  28.698  35.720  0.00  0.00     0.010 A 
ENDBRANCH   2   4
ENDBRANCH   1   2
BRANCH   1  12
ATOM     12  O   UNL d   1     -49.077  27.757  33.411  0.00  0.00    -0.302 OA
BRANCH  12  13
ATOM     13  C   UNL d   1     -49.642  27.152  33.410  0.00  0.00     0.100 A 
ATOM     14  C   UNL d   1     -49.403  26.363  33.433  0.00  0.00     0.025 A 
ATOM     15  C   UNL d   1     -49.952  25.771  33.432  0.00  0.00     0.007 A 
ATOM     16  C   UNL d   1     -50.773  25.946  33.407  0.00  0.00     0.063 A 
ATOM     17  C   UNL d   1     -51.013  26.736  33.385  0.00  0.00     0.007 A 
ATOM     18  C   UNL d   1     -50.430  27.345  33.386  0.00  0.00     0.025 A 
BRANCH  16  19
ATOM     19  C   UNL d   1     -51.334  25.327  33.407  0.00  0.00     0.296 C 
ATOM     20  O   UNL d   1     -52.140  25.483  33.495  0.00  0.00    -0.259 OA
BRANCH  19  21
ATOM     21  O   UNL d   1     -51.056  24.544  33.313  0.00  0.00    -0.296 OA
ATOM     22  C   UNL d   1     -51.554  23.898  33.441  0.00  0.00     0.185 C 
ENDBRANCH  19  21
ENDBRANCH  16  19
ENDBRANCH  12  13
ENDBRANCH   1  12
TORSDOF 6
ENDMDL
