MODEL 1
REMARK VINA RESULT:      50.4      0.000      0.000
REMARK  1 active torsions:
REMARK  status: ('A' for Active; 'I' for Inactive)
REMARK    1  A    between atoms: N_13  and  C_2 
ROOT
ATOM      1  C   UNL d   1     -57.675 -98.756 -44.852  0.00  0.00     0.024 A 
ATOM      2  C   UNL d   1     -57.783 -98.755 -45.671  0.00  0.00     0.138 A 
ATOM      3  C   UNL d   1     -58.547 -98.755 -45.986  0.00  0.00     0.282 A 
ATOM      4  C   UNL d   1     -58.327 -98.756 -44.351  0.00  0.00     0.021 A 
ATOM      5  N   UNL d   1     -59.195 -98.756 -45.478  0.00  0.00    -0.271 N 
ATOM      6  C   UNL d   1     -59.091 -98.756 -44.659  0.00  0.00     0.067 A 
ATOM      7  C   UNL d   1     -56.915 -98.756 -44.540  0.00  0.00     0.005 A 
ATOM      8  C   UNL d   1     -58.210 -98.756 -43.526  0.00  0.00     0.040 A 
ATOM      9  C   UNL d   1     -57.445 -98.756 -43.214  0.00  0.00     0.196 A 
ATOM     10  C   UNL d   1     -56.798 -98.756 -43.724  0.00  0.00     0.039 A 
ATOM     11  O   UNL d   1     -58.664 -98.755 -46.803  0.00  0.00    -0.265 OA
ATOM     12  O   UNL d   1     -57.328 -98.756 -42.397  0.00  0.00    -0.287 OA
ATOM     13  C   UNL d   1     -59.960 -98.756 -45.798  0.00  0.00     0.102 C 
ATOM     14  C   UNL d   1     -59.740 -98.756 -44.162  0.00  0.00     0.018 A 
ATOM     15  C   UNL d   1     -58.865 -98.756 -43.025  0.00  0.00     0.003 A 
ATOM     16  C   UNL d   1     -56.263 -98.755 -45.049  0.00  0.00     0.000 A 
ATOM     17  C   UNL d   1     -56.030 -98.756 -43.416  0.00  0.00     0.003 A 
ATOM     18  C   UNL d   1     -59.633 -98.756 -43.331  0.00  0.00     0.002 A 
ATOM     19  C   UNL d   1     -55.499 -98.755 -44.742  0.00  0.00     0.000 A 
ATOM     20  C   UNL d   1     -55.383 -98.755 -43.925  0.00  0.00     0.000 A 
ENDROOT
BRANCH   2  21
ATOM     21  N   UNL d   1     -57.135 -98.755 -46.176  0.00  0.00    -0.238 NA
ATOM     22  C   UNL d   1     -56.374 -98.852 -45.871  0.00  0.00     0.120 C 
ENDBRANCH   2  21
TORSDOF 1
ENDMDL
