MODEL 1
REMARK VINA RESULT:      39.8      0.000      0.000
REMARK  7 active torsions:
REMARK  status: ('A' for Active; 'I' for Inactive)
REMARK    1  A    between atoms: C_6  and  N_2 
REMARK    2  A    between atoms: C_7  and  C_3 
REMARK    3  A    between atoms: C_10  and  C_6 
REMARK    4  A    between atoms: C_17  and  C_7 
REMARK    5  A    between atoms: O_8  and  C_10 
REMARK    6  A    between atoms: C_9  and  O_8 
REMARK    7  A    between atoms: C_14  and  C_17 
ROOT
ATOM      1  N   UNL d   1     -49.643  26.644  33.395  0.00  0.00    -0.227 NA
ATOM      2  N   UNL d   1     -50.730  25.869  33.335  0.00  0.00    -0.287 N 
ATOM      3  C   UNL d   1     -49.893  25.847  33.368  0.00  0.00     0.148 A 
ATOM      4  C   UNL d   1     -50.975  26.651  33.341  0.00  0.00     0.083 A 
ATOM      5  C   UNL d   1     -50.274  27.151  33.380  0.00  0.00     0.099 A 
ATOM      6  C   UNL d   1     -51.721  26.976  33.317  0.00  0.00     0.019 A 
ATOM      7  C   UNL d   1     -50.418  27.972  33.391  0.00  0.00     0.021 A 
ATOM      8  C   UNL d   1     -51.783  27.783  33.332  0.00  0.00     0.002 A 
ATOM      9  C   UNL d   1     -51.126  28.252  33.368  0.00  0.00     0.002 A 
ENDROOT
BRANCH   2  10
ATOM     10  C   UNL d   1     -51.072  25.147  33.306  0.00  0.00     0.108 C 
BRANCH  10  11
ATOM     11  C   UNL d   1     -51.869  25.032  33.448  0.00  0.00     0.142 C 
BRANCH  11  12
ATOM     12  O   UNL d   1     -52.156  24.676  34.125  0.00  0.00    -0.304 OA
BRANCH  12  13
ATOM     13  C   UNL d   1     -52.822  24.190  34.135  0.00  0.00     0.100 A 
ATOM     14  C   UNL d   1     -53.328  24.120  34.782  0.00  0.00     0.025 A 
ATOM     15  C   UNL d   1     -53.993  23.636  34.791  0.00  0.00     0.002 A 
ATOM     16  C   UNL d   1     -54.165  23.191  34.108  0.00  0.00     0.000 A 
ATOM     17  C   UNL d   1     -53.667  23.244  33.437  0.00  0.00     0.002 A 
ATOM     18  C   UNL d   1     -52.995  23.745  33.452  0.00  0.00     0.025 A 
ENDBRANCH  12  13
ENDBRANCH  11  12
ENDBRANCH  10  11
ENDBRANCH   2  10
BRANCH   3  19
ATOM     19  C   UNL d   1     -49.828  25.042  33.354  0.00  0.00     0.041 C 
BRANCH  19  20
ATOM     20  C   UNL d   1     -49.312  24.661  33.892  0.00  0.00     0.049 C 
BRANCH  20  21
ATOM     21  C   UNL d   1     -48.971  23.923  33.704  0.00  0.00     0.234 C 
ATOM     22  O   UNL d   1     -48.143  23.831  33.695  0.00  0.00    -0.283 OA
ENDBRANCH  20  21
ENDBRANCH  19  20
ENDBRANCH   3  19
TORSDOF 7
ENDMDL
