MODEL 1
REMARK VINA RESULT:       6.6      0.000      0.000
REMARK  6 active torsions:
REMARK  status: ('A' for Active; 'I' for Inactive)
REMARK    1  A    between atoms: N_7  and  C_1 
REMARK    2  A    between atoms: C_10  and  C_3 
REMARK    3  A    between atoms: C_17  and  C_5 
REMARK    4  A    between atoms: C_12  and  N_7 
REMARK    5  A    between atoms: C_8  and  C_9 
REMARK    6  A    between atoms: C_13  and  C_17 
ROOT
ATOM      1  C   UNL d   1     -41.240-121.621 -51.605  0.00  0.00     0.165 A 
ATOM      2  N   UNL d   1     -41.349-122.187 -52.206  0.00  0.00    -0.208 NA
ATOM      3  C   UNL d   1     -41.447-121.949 -52.993  0.00  0.00     0.164 A 
ATOM      4  N   UNL d   1     -41.436-121.144 -53.185  0.00  0.00    -0.227 NA
ATOM      5  C   UNL d   1     -41.230-120.818 -51.804  0.00  0.00     0.054 A 
ATOM      6  C   UNL d   1     -41.328-120.591 -52.586  0.00  0.00     0.086 A 
ATOM      7  C   UNL d   1     -41.317-119.782 -52.779  0.00  0.00     0.021 C 
ENDROOT
BRANCH   1   8
ATOM      8  N   UNL d   1     -41.143-121.860 -50.822  0.00  0.00    -0.227 NA
BRANCH   8   9
ATOM      9  C   UNL d   1     -41.745-122.294 -50.439  0.00  0.00     0.083 A 
ATOM     10  C   UNL d   1     -42.481-121.965 -50.350  0.00  0.00     0.019 A 
ATOM     11  C   UNL d   1     -43.080-122.396 -49.969  0.00  0.00     0.008 A 
ATOM     12  C   UNL d   1     -42.921-123.156 -49.686  0.00  0.00     0.065 A 
ATOM     13  C   UNL d   1     -42.176-123.483 -49.778  0.00  0.00     0.008 A 
ATOM     14  C   UNL d   1     -41.580-123.054 -50.157  0.00  0.00     0.019 A 
BRANCH  12  15
ATOM     15  C   UNL d   1     -43.520-123.587 -49.305  0.00  0.00     0.211 C 
ATOM     16  O   UNL d   1     -44.208-123.788 -49.714  0.00  0.00    -0.644 OA
ATOM     17  O   UNL d   1     -43.431-123.815 -48.522  0.00  0.00    -0.644 OA
ENDBRANCH  12  15
ENDBRANCH   8   9
ENDBRANCH   1   8
BRANCH   5  18
ATOM     18  C   UNL d   1     -41.123-120.254 -51.218  0.00  0.00     0.005 C 
BRANCH  18  19
ATOM     19  C   UNL d   1     -41.127-119.456 -51.391  0.00  0.00     0.000 C 
ATOM     20  C   UNL d   1     -41.558-118.917 -50.947  0.00  0.00     0.000 C 
ENDBRANCH  18  19
ENDBRANCH   5  18
BRANCH   3  21
ATOM     21  C   UNL d   1     -41.555-122.513 -53.585  0.00  0.00     0.036 A 
ATOM     22  C   UNL d   1     -41.197-123.250 -53.521  0.00  0.00     0.003 A 
ATOM     23  C   UNL d   1     -41.301-123.817 -54.109  0.00  0.00     0.000 A 
ATOM     24  C   UNL d   1     -41.777-123.640 -54.776  0.00  0.00     0.000 A 
ATOM     25  C   UNL d   1     -42.135-122.903 -54.839  0.00  0.00     0.000 A 
ATOM     26  C   UNL d   1     -42.022-122.335 -54.237  0.00  0.00     0.003 A 
ENDBRANCH   3  21
TORSDOF 6
ENDMDL
