MODEL 1
REMARK VINA RESULT:      46.6      0.000      0.000
REMARK  3 active torsions:
REMARK  status: ('A' for Active; 'I' for Inactive)
REMARK    1  A    between atoms: C_2  and  N_1 
REMARK    2  A    between atoms: C_4  and  N_1 
REMARK    3  A    between atoms: C_3  and  C_2 
ROOT
ATOM      1  N   UNL d   1      61.634  47.384  50.221  0.00  0.00    -0.182 N 
ATOM      2  O   UNL d   1      62.230  47.912  49.998  0.00  0.00    -0.080 OA
ENDROOT
BRANCH   1   3
ATOM      3  C   UNL d   1      61.048  47.624  50.750  0.00  0.00     0.133 C 
BRANCH   3   4
ATOM      4  C   UNL d   1      60.859  48.421  50.821  0.00  0.00     0.120 A 
ATOM      5  O   UNL d   1      60.617  48.986  50.262  0.00  0.00    -0.304 OA
ATOM      6  C   UNL d   1      60.504  49.706  50.659  0.00  0.00     0.123 A 
ATOM      7  C   UNL d   1      60.675  49.588  51.462  0.00  0.00     0.029 A 
ATOM      8  C   UNL d   1      60.893  48.798  51.559  0.00  0.00     0.028 A 
ENDBRANCH   3   4
ENDBRANCH   1   3
BRANCH   1   9
ATOM      9  C   UNL d   1      61.625  46.604  49.909  0.00  0.00     0.090 A 
ATOM     10  C   UNL d   1      62.015  46.454  49.205  0.00  0.00     0.021 A 
ATOM     11  C   UNL d   1      62.007  45.681  48.896  0.00  0.00     0.013 A 
ATOM     12  C   UNL d   1      61.608  45.083  49.301  0.00  0.00     0.058 A 
ATOM     13  C   UNL d   1      61.220  45.245  50.007  0.00  0.00     0.013 A 
ATOM     14 CL   UNL d   1      61.600  44.323  48.996  0.00  0.00    -0.082 Cl
ATOM     15  C   UNL d   1      61.228  46.018  50.317  0.00  0.00     0.021 A 
ENDBRANCH   1   9
TORSDOF 3
ENDMDL
MODEL 2
REMARK VINA RESULT:      46.7      1.821      3.727
REMARK  3 active torsions:
REMARK  status: ('A' for Active; 'I' for Inactive)
REMARK    1  A    between atoms: C_2  and  N_1 
REMARK    2  A    between atoms: C_4  and  N_1 
REMARK    3  A    between atoms: C_3  and  C_2 
ROOT
ATOM      1  N   UNL d   1      61.611  47.587  50.168  0.00  0.00    -0.182 N 
ATOM      2  O   UNL d   1      62.397  47.737  49.959  0.00  0.00    -0.080 OA
ENDROOT
BRANCH   1   3
ATOM      3  C   UNL d   1      61.235  46.906  49.892  0.00  0.00     0.133 C 
BRANCH   3   4
ATOM      4  C   UNL d   1      61.671  46.313  49.527  0.00  0.00     0.120 A 
ATOM      5  O   UNL d   1      62.439  46.304  49.210  0.00  0.00    -0.304 OA
ATOM      6  C   UNL d   1      62.584  45.544  48.912  0.00  0.00     0.123 A 
ATOM      7  C   UNL d   1      61.907  45.081  49.044  0.00  0.00     0.029 A 
ATOM      8  C   UNL d   1      61.349  45.557  49.422  0.00  0.00     0.028 A 
ENDBRANCH   3   4
ENDBRANCH   1   3
BRANCH   1   9
ATOM      9  C   UNL d   1      61.197  48.128  50.660  0.00  0.00     0.090 A 
ATOM     10  C   UNL d   1      61.118  47.958  51.457  0.00  0.00     0.021 A 
ATOM     11  C   UNL d   1      60.707  48.493  51.944  0.00  0.00     0.013 A 
ATOM     12  C   UNL d   1      60.389  49.181  51.619  0.00  0.00     0.058 A 
ATOM     13  C   UNL d   1      60.474  49.341  50.817  0.00  0.00     0.013 A 
ATOM     14 CL   UNL d   1      59.985  49.708  52.099  0.00  0.00    -0.082 Cl
ATOM     15  C   UNL d   1      60.885  48.806  50.329  0.00  0.00     0.021 A 
ENDBRANCH   1   9
TORSDOF 3
ENDMDL
