MODEL 1
REMARK VINA RESULT:      -8.3      0.000      0.000
REMARK  4 active torsions:
REMARK  status: ('A' for Active; 'I' for Inactive)
REMARK       I    between atoms: C_3  and  N_1 
REMARK    1  A    between atoms: C_9  and  C_3 
REMARK    2  A    between atoms: S_8  and  C_9 
REMARK    3  A    between atoms: C_12  and  S_8 
REMARK    4  A    between atoms: C_11  and  C_12 
ROOT
ATOM      1  N   UNL d   1      52.758  33.367  53.554  0.00  0.00    -0.274 N 
ATOM      2  C   UNL d   1      53.391  33.453  54.074  0.00  0.00     0.067 A 
ATOM      3  C   UNL d   1      52.184  33.946  53.375  0.00  0.00     0.259 C 
ATOM      4  C   UNL d   1      52.784  32.602  53.234  0.00  0.00     0.083 A 
ATOM      5  C   UNL d   1      53.814  32.746  54.081  0.00  0.00     0.018 A 
ATOM      6  O   UNL d   1      52.218  34.697  53.734  0.00  0.00    -0.267 OA
ATOM      7  C   UNL d   1      53.437  32.227  53.564  0.00  0.00     0.021 A 
ATOM      8  C   UNL d   1      53.638  34.083  54.542  0.00  0.00     0.018 A 
ATOM      9  C   UNL d   1      54.477  32.663  54.549  0.00  0.00     0.002 A 
ATOM     10  C   UNL d   1      54.298  34.013  55.013  0.00  0.00     0.002 A 
ATOM     11  C   UNL d   1      54.729  33.302  55.025  0.00  0.00     0.000 A 
ENDROOT
BRANCH   3  12
ATOM     12  C   UNL d   1      51.572  33.779  52.835  0.00  0.00     0.125 C 
BRANCH  12  13
ATOM     13  S   UNL d   1      50.926  34.283  52.775  0.00  0.00    -0.094 SA
BRANCH  13  14
ATOM     14  C   UNL d   1      50.372  34.171  52.169  0.00  0.00     0.035 C 
BRANCH  14  15
ATOM     15  C   UNL d   1      49.654  34.591  52.183  0.00  0.00     0.006 A 
ATOM     16  C   UNL d   1      49.172  34.596  51.514  0.00  0.00     0.001 A 
ATOM     17  C   UNL d   1      48.459  35.013  51.526  0.00  0.00     0.000 A 
ATOM     18  C   UNL d   1      48.240  35.420  52.214  0.00  0.00     0.000 A 
ATOM     19  C   UNL d   1      48.720  35.414  52.878  0.00  0.00     0.000 A 
ATOM     20  C   UNL d   1      49.427  35.001  52.867  0.00  0.00     0.001 A 
ENDBRANCH  14  15
ENDBRANCH  13  14
ENDBRANCH  12  13
ENDBRANCH   3  12
TORSDOF 4
ENDMDL
MODEL 2
REMARK VINA RESULT:      -7.9      0.710      1.407
REMARK  4 active torsions:
REMARK  status: ('A' for Active; 'I' for Inactive)
REMARK       I    between atoms: C_3  and  N_1 
REMARK    1  A    between atoms: C_9  and  C_3 
REMARK    2  A    between atoms: S_8  and  C_9 
REMARK    3  A    between atoms: C_12  and  S_8 
REMARK    4  A    between atoms: C_11  and  C_12 
ROOT
ATOM      1  N   UNL d   1      52.519  33.941  53.688  0.00  0.00    -0.274 N 
ATOM      2  C   UNL d   1      53.148  33.434  53.849  0.00  0.00     0.067 A 
ATOM      3  C   UNL d   1      51.894  33.799  53.154  0.00  0.00     0.259 C 
ATOM      4  C   UNL d   1      52.611  34.625  54.149  0.00  0.00     0.083 A 
ATOM      5  C   UNL d   1      53.632  33.795  54.408  0.00  0.00     0.018 A 
ATOM      6  O   UNL d   1      51.863  33.088  52.721  0.00  0.00    -0.267 OA
ATOM      7  C   UNL d   1      53.298  34.526  54.589  0.00  0.00     0.021 A 
ATOM      8  C   UNL d   1      53.342  32.688  53.559  0.00  0.00     0.018 A 
ATOM      9  C   UNL d   1      54.305  33.421  54.679  0.00  0.00     0.002 A 
ATOM     10  C   UNL d   1      54.010  32.305  53.821  0.00  0.00     0.002 A 
ATOM     11  C   UNL d   1      54.504  32.664  54.385  0.00  0.00     0.000 A 
ENDROOT
BRANCH   3  12
ATOM     12  C   UNL d   1      51.293  34.368  53.049  0.00  0.00     0.125 C 
BRANCH  12  13
ATOM     13  S   UNL d   1      50.656  34.207  52.556  0.00  0.00    -0.094 SA
BRANCH  13  14
ATOM     14  C   UNL d   1      49.943  34.618  52.658  0.00  0.00     0.035 C 
BRANCH  14  15
ATOM     15  C   UNL d   1      49.398  34.662  52.031  0.00  0.00     0.006 A 
ATOM     16  C   UNL d   1      48.664  35.017  52.154  0.00  0.00     0.001 A 
ATOM     17  C   UNL d   1      48.122  35.062  51.532  0.00  0.00     0.000 A 
ATOM     18  C   UNL d   1      48.328  34.747  50.793  0.00  0.00     0.000 A 
ATOM     19  C   UNL d   1      49.057  34.395  50.673  0.00  0.00     0.000 A 
ATOM     20  C   UNL d   1      49.595  34.350  51.289  0.00  0.00     0.001 A 
ENDBRANCH  14  15
ENDBRANCH  13  14
ENDBRANCH  12  13
ENDBRANCH   3  12
TORSDOF 4
ENDMDL
MODEL 3
REMARK VINA RESULT:      -7.7      2.341      4.857
REMARK  4 active torsions:
REMARK  status: ('A' for Active; 'I' for Inactive)
REMARK       I    between atoms: C_3  and  N_1 
REMARK    1  A    between atoms: C_9  and  C_3 
REMARK    2  A    between atoms: S_8  and  C_9 
REMARK    3  A    between atoms: C_12  and  S_8 
REMARK    4  A    between atoms: C_11  and  C_12 
ROOT
ATOM      1  N   UNL d   1      52.919  33.125  53.494  0.00  0.00    -0.274 N 
ATOM      2  C   UNL d   1      52.990  33.895  53.780  0.00  0.00     0.067 A 
ATOM      3  C   UNL d   1      53.384  32.470  53.720  0.00  0.00     0.259 C 
ATOM      4  C   UNL d   1      52.302  33.109  52.940  0.00  0.00     0.083 A 
ATOM      5  C   UNL d   1      52.422  34.359  53.408  0.00  0.00     0.018 A 
ATOM      6  O   UNL d   1      53.990  32.558  54.284  0.00  0.00    -0.267 OA
ATOM      7  C   UNL d   1      52.002  33.872  52.893  0.00  0.00     0.021 A 
ATOM      8  C   UNL d   1      53.500  34.233  54.331  0.00  0.00     0.018 A 
ATOM      9  C   UNL d   1      52.358  35.155  53.580  0.00  0.00     0.002 A 
ATOM     10  C   UNL d   1      53.446  35.025  54.511  0.00  0.00     0.002 A 
ATOM     11  C   UNL d   1      52.874  35.500  54.139  0.00  0.00     0.000 A 
ENDROOT
BRANCH   3  12
ATOM     12  C   UNL d   1      53.247  31.721  53.381  0.00  0.00     0.125 C 
BRANCH  12  13
ATOM     13  S   UNL d   1      53.494  31.041  53.771  0.00  0.00    -0.094 SA
BRANCH  13  14
ATOM     14  C   UNL d   1      53.191  30.304  53.544  0.00  0.00     0.035 C 
BRANCH  14  15
ATOM     15  C   UNL d   1      53.294  29.644  54.041  0.00  0.00     0.006 A 
ATOM     16  C   UNL d   1      53.751  29.008  53.783  0.00  0.00     0.001 A 
ATOM     17  C   UNL d   1      53.854  28.353  54.276  0.00  0.00     0.000 A 
ATOM     18  C   UNL d   1      53.494  28.347  55.023  0.00  0.00     0.000 A 
ATOM     19  C   UNL d   1      53.040  28.980  55.277  0.00  0.00     0.000 A 
ATOM     20  C   UNL d   1      52.938  29.630  54.790  0.00  0.00     0.001 A 
ENDBRANCH  14  15
ENDBRANCH  13  14
ENDBRANCH  12  13
ENDBRANCH   3  12
TORSDOF 4
ENDMDL
MODEL 4
REMARK VINA RESULT:      -7.6      1.073      1.855
REMARK  4 active torsions:
REMARK  status: ('A' for Active; 'I' for Inactive)
REMARK       I    between atoms: C_3  and  N_1 
REMARK    1  A    between atoms: C_9  and  C_3 
REMARK    2  A    between atoms: S_8  and  C_9 
REMARK    3  A    between atoms: C_12  and  S_8 
REMARK    4  A    between atoms: C_11  and  C_12 
ROOT
ATOM      1  N   UNL d   1      52.513  32.628  53.276  0.00  0.00    -0.274 N 
ATOM      2  C   UNL d   1      52.841  31.871  53.285  0.00  0.00     0.067 A 
ATOM      3  C   UNL d   1      51.723  32.821  53.091  0.00  0.00     0.259 C 
ATOM      4  C   UNL d   1      53.106  33.170  53.482  0.00  0.00     0.083 A 
ATOM      5  C   UNL d   1      53.633  31.938  53.496  0.00  0.00     0.018 A 
ATOM      6  O   UNL d   1      51.179  32.224  52.892  0.00  0.00    -0.267 OA
ATOM      7  C   UNL d   1      53.792  32.737  53.616  0.00  0.00     0.021 A 
ATOM      8  C   UNL d   1      52.519  31.130  53.128  0.00  0.00     0.018 A 
ATOM      9  C   UNL d   1      54.106  31.274  53.551  0.00  0.00     0.002 A 
ATOM     10  C   UNL d   1      52.979  30.461  53.180  0.00  0.00     0.002 A 
ATOM     11  C   UNL d   1      53.780  30.521  53.393  0.00  0.00     0.000 A 
ENDROOT
BRANCH   3  12
ATOM     12  C   UNL d   1      51.471  33.616  53.105  0.00  0.00     0.125 C 
BRANCH  12  13
ATOM     13  S   UNL d   1      50.708  33.810  52.869  0.00  0.00    -0.094 SA
BRANCH  13  14
ATOM     14  C   UNL d   1      50.493  34.607  52.793  0.00  0.00     0.035 C 
BRANCH  14  15
ATOM     15  C   UNL d   1      49.735  34.804  52.512  0.00  0.00     0.006 A 
ATOM     16  C   UNL d   1      49.211  35.209  53.003  0.00  0.00     0.001 A 
ATOM     17  C   UNL d   1      48.458  35.405  52.725  0.00  0.00     0.000 A 
ATOM     18  C   UNL d   1      48.242  35.190  51.955  0.00  0.00     0.000 A 
ATOM     19  C   UNL d   1      48.764  34.788  51.467  0.00  0.00     0.000 A 
ATOM     20  C   UNL d   1      49.510  34.593  51.742  0.00  0.00     0.001 A 
ENDBRANCH  14  15
ENDBRANCH  13  14
ENDBRANCH  12  13
ENDBRANCH   3  12
TORSDOF 4
ENDMDL
MODEL 5
REMARK VINA RESULT:      -7.5      1.546      5.417
REMARK  4 active torsions:
REMARK  status: ('A' for Active; 'I' for Inactive)
REMARK       I    between atoms: C_3  and  N_1 
REMARK    1  A    between atoms: C_9  and  C_3 
REMARK    2  A    between atoms: S_8  and  C_9 
REMARK    3  A    between atoms: C_12  and  S_8 
REMARK    4  A    between atoms: C_11  and  C_12 
ROOT
ATOM      1  N   UNL d   1      48.612  35.155  52.112  0.00  0.00    -0.274 N 
ATOM      2  C   UNL d   1      47.968  35.635  52.301  0.00  0.00     0.067 A 
ATOM      3  C   UNL d   1      49.280  35.015  52.592  0.00  0.00     0.259 C 
ATOM      4  C   UNL d   1      48.484  34.833  51.359  0.00  0.00     0.083 A 
ATOM      5  C   UNL d   1      47.440  35.613  51.670  0.00  0.00     0.018 A 
ATOM      6  O   UNL d   1      49.343  35.373  53.341  0.00  0.00    -0.267 OA
ATOM      7  C   UNL d   1      47.761  35.120  51.094  0.00  0.00     0.021 A 
ATOM      8  C   UNL d   1      47.795  36.088  52.966  0.00  0.00     0.018 A 
ATOM      9  C   UNL d   1      46.743  36.038  51.697  0.00  0.00     0.002 A 
ATOM     10  C   UNL d   1      47.104  36.516  53.004  0.00  0.00     0.002 A 
ATOM     11  C   UNL d   1      46.566  36.499  52.371  0.00  0.00     0.000 A 
ENDROOT
BRANCH   3  12
ATOM     12  C   UNL d   1      49.890  34.513  52.326  0.00  0.00     0.125 C 
BRANCH  12  13
ATOM     13  S   UNL d   1      50.569  34.415  52.778  0.00  0.00    -0.094 SA
BRANCH  13  14
ATOM     14  C   UNL d   1      51.259  34.120  52.425  0.00  0.00     0.035 C 
BRANCH  14  15
ATOM     15  C   UNL d   1      51.919  33.940  52.898  0.00  0.00     0.006 A 
ATOM     16  C   UNL d   1      52.417  34.547  53.150  0.00  0.00     0.001 A 
ATOM     17  C   UNL d   1      53.074  34.369  53.620  0.00  0.00     0.000 A 
ATOM     18  C   UNL d   1      53.220  33.581  53.829  0.00  0.00     0.000 A 
ATOM     19  C   UNL d   1      52.725  32.979  53.577  0.00  0.00     0.000 A 
ATOM     20  C   UNL d   1      52.074  33.154  53.112  0.00  0.00     0.001 A 
ENDBRANCH  14  15
ENDBRANCH  13  14
ENDBRANCH  12  13
ENDBRANCH   3  12
TORSDOF 4
ENDMDL
MODEL 6
REMARK VINA RESULT:      -7.3      1.021      5.002
REMARK  4 active torsions:
REMARK  status: ('A' for Active; 'I' for Inactive)
REMARK       I    between atoms: C_3  and  N_1 
REMARK    1  A    between atoms: C_9  and  C_3 
REMARK    2  A    between atoms: S_8  and  C_9 
REMARK    3  A    between atoms: C_12  and  S_8 
REMARK    4  A    between atoms: C_11  and  C_12 
ROOT
ATOM      1  N   UNL d   1      49.903  34.503  52.166  0.00  0.00    -0.274 N 
ATOM      2  C   UNL d   1      49.199  34.922  52.254  0.00  0.00     0.067 A 
ATOM      3  C   UNL d   1      50.501  34.417  52.741  0.00  0.00     0.259 C 
ATOM      4  C   UNL d   1      49.920  34.179  51.402  0.00  0.00     0.083 A 
ATOM      5  C   UNL d   1      48.775  34.861  51.551  0.00  0.00     0.018 A 
ATOM      6  O   UNL d   1      50.419  34.771  53.490  0.00  0.00    -0.267 OA
ATOM      7  C   UNL d   1      49.222  34.404  51.031  0.00  0.00     0.021 A 
ATOM      8  C   UNL d   1      48.888  35.350  52.884  0.00  0.00     0.018 A 
ATOM      9  C   UNL d   1      48.047  35.222  51.472  0.00  0.00     0.002 A 
ATOM     10  C   UNL d   1      48.163  35.715  52.818  0.00  0.00     0.002 A 
ATOM     11  C   UNL d   1      47.730  35.657  52.111  0.00  0.00     0.000 A 
ENDROOT
BRANCH   3  12
ATOM     12  C   UNL d   1      51.188  33.975  52.571  0.00  0.00     0.125 C 
BRANCH  12  13
ATOM     13  S   UNL d   1      51.756  33.857  53.152  0.00  0.00    -0.094 SA
BRANCH  13  14
ATOM     14  C   UNL d   1      52.514  33.598  52.939  0.00  0.00     0.035 C 
BRANCH  14  15
ATOM     15  C   UNL d   1      53.040  33.333  53.526  0.00  0.00     0.006 A 
ATOM     16  C   UNL d   1      53.192  32.526  53.603  0.00  0.00     0.001 A 
ATOM     17  C   UNL d   1      53.715  32.262  54.186  0.00  0.00     0.000 A 
ATOM     18  C   UNL d   1      54.078  32.816  54.685  0.00  0.00     0.000 A 
ATOM     19  C   UNL d   1      53.926  33.617  54.607  0.00  0.00     0.000 A 
ATOM     20  C   UNL d   1      53.408  33.880  54.030  0.00  0.00     0.001 A 
ENDBRANCH  14  15
ENDBRANCH  13  14
ENDBRANCH  12  13
ENDBRANCH   3  12
TORSDOF 4
ENDMDL
MODEL 7
REMARK VINA RESULT:      -7.0      2.519      3.757
REMARK  4 active torsions:
REMARK  status: ('A' for Active; 'I' for Inactive)
REMARK       I    between atoms: C_3  and  N_1 
REMARK    1  A    between atoms: C_9  and  C_3 
REMARK    2  A    between atoms: S_8  and  C_9 
REMARK    3  A    between atoms: C_12  and  S_8 
REMARK    4  A    between atoms: C_11  and  C_12 
ROOT
ATOM      1  N   UNL d   1      53.290  30.903  53.549  0.00  0.00    -0.274 N 
ATOM      2  C   UNL d   1      53.284  30.169  53.923  0.00  0.00     0.067 A 
ATOM      3  C   UNL d   1      53.584  31.616  53.865  0.00  0.00     0.259 C 
ATOM      4  C   UNL d   1      52.951  30.814  52.796  0.00  0.00     0.083 A 
ATOM      5  C   UNL d   1      52.944  29.622  53.411  0.00  0.00     0.018 A 
ATOM      6  O   UNL d   1      53.912  31.634  54.631  0.00  0.00    -0.267 OA
ATOM      7  C   UNL d   1      52.741  30.023  52.720  0.00  0.00     0.021 A 
ATOM      8  C   UNL d   1      53.544  29.928  54.666  0.00  0.00     0.018 A 
ATOM      9  C   UNL d   1      52.862  28.841  53.631  0.00  0.00     0.002 A 
ATOM     10  C   UNL d   1      53.468  29.151  54.898  0.00  0.00     0.002 A 
ATOM     11  C   UNL d   1      53.126  28.594  54.385  0.00  0.00     0.000 A 
ENDROOT
BRANCH   3  12
ATOM     12  C   UNL d   1      53.552  32.319  53.418  0.00  0.00     0.125 C 
BRANCH  12  13
ATOM     13  S   UNL d   1      53.526  33.048  53.797  0.00  0.00    -0.094 SA
BRANCH  13  14
ATOM     14  C   UNL d   1      53.411  33.738  53.353  0.00  0.00     0.035 C 
BRANCH  14  15
ATOM     15  C   UNL d   1      53.099  34.417  53.718  0.00  0.00     0.006 A 
ATOM     16  C   UNL d   1      52.317  34.636  53.571  0.00  0.00     0.001 A 
ATOM     17  C   UNL d   1      52.006  35.310  53.934  0.00  0.00     0.000 A 
ATOM     18  C   UNL d   1      52.487  35.755  54.440  0.00  0.00     0.000 A 
ATOM     19  C   UNL d   1      53.263  35.537  54.586  0.00  0.00     0.000 A 
ATOM     20  C   UNL d   1      53.572  34.869  54.227  0.00  0.00     0.001 A 
ENDBRANCH  14  15
ENDBRANCH  13  14
ENDBRANCH  12  13
ENDBRANCH   3  12
TORSDOF 4
ENDMDL
MODEL 8
REMARK VINA RESULT:      -6.5      2.207      5.092
REMARK  4 active torsions:
REMARK  status: ('A' for Active; 'I' for Inactive)
REMARK       I    between atoms: C_3  and  N_1 
REMARK    1  A    between atoms: C_9  and  C_3 
REMARK    2  A    between atoms: S_8  and  C_9 
REMARK    3  A    between atoms: C_12  and  S_8 
REMARK    4  A    between atoms: C_11  and  C_12 
ROOT
ATOM      1  N   UNL d   1      52.263  33.078  53.091  0.00  0.00    -0.274 N 
ATOM      2  C   UNL d   1      51.607  33.569  53.001  0.00  0.00     0.067 A 
ATOM      3  C   UNL d   1      52.264  32.245  53.056  0.00  0.00     0.259 C 
ATOM      4  C   UNL d   1      52.929  33.555  53.222  0.00  0.00     0.083 A 
ATOM      5  C   UNL d   1      51.858  34.349  53.075  0.00  0.00     0.018 A 
ATOM      6  O   UNL d   1      51.556  31.828  52.920  0.00  0.00    -0.267 OA
ATOM      7  C   UNL d   1      52.671  34.335  53.211  0.00  0.00     0.021 A 
ATOM      8  C   UNL d   1      50.812  33.406  52.860  0.00  0.00     0.018 A 
ATOM      9  C   UNL d   1      51.327  34.965  53.011  0.00  0.00     0.002 A 
ATOM     10  C   UNL d   1      50.272  34.012  52.795  0.00  0.00     0.002 A 
ATOM     11  C   UNL d   1      50.520  34.801  52.869  0.00  0.00     0.000 A 
ENDROOT
BRANCH   3  12
ATOM     12  C   UNL d   1      52.974  31.821  53.158  0.00  0.00     0.125 C 
BRANCH  12  13
ATOM     13  S   UNL d   1      52.954  31.025  53.362  0.00  0.00    -0.094 SA
BRANCH  13  14
ATOM     14  C   UNL d   1      53.592  30.689  53.771  0.00  0.00     0.035 C 
BRANCH  14  15
ATOM     15  C   UNL d   1      53.508  29.940  54.124  0.00  0.00     0.006 A 
ATOM     16  C   UNL d   1      53.482  29.879  54.946  0.00  0.00     0.001 A 
ATOM     17  C   UNL d   1      53.399  29.136  55.298  0.00  0.00     0.000 A 
ATOM     18  C   UNL d   1      53.342  28.464  54.816  0.00  0.00     0.000 A 
ATOM     19  C   UNL d   1      53.367  28.527  54.000  0.00  0.00     0.000 A 
ATOM     20  C   UNL d   1      53.450  29.263  53.650  0.00  0.00     0.001 A 
ENDBRANCH  14  15
ENDBRANCH  13  14
ENDBRANCH  12  13
ENDBRANCH   3  12
TORSDOF 4
ENDMDL
MODEL 9
REMARK VINA RESULT:      -5.4      1.420      2.391
REMARK  4 active torsions:
REMARK  status: ('A' for Active; 'I' for Inactive)
REMARK       I    between atoms: C_3  and  N_1 
REMARK    1  A    between atoms: C_9  and  C_3 
REMARK    2  A    between atoms: S_8  and  C_9 
REMARK    3  A    between atoms: C_12  and  S_8 
REMARK    4  A    between atoms: C_11  and  C_12 
ROOT
ATOM      1  N   UNL d   1      50.921  34.287  52.464  0.00  0.00    -0.274 N 
ATOM      2  C   UNL d   1      51.503  34.018  52.982  0.00  0.00     0.067 A 
ATOM      3  C   UNL d   1      50.113  34.396  52.643  0.00  0.00     0.259 C 
ATOM      4  C   UNL d   1      51.275  34.434  51.728  0.00  0.00     0.083 A 
ATOM      5  C   UNL d   1      52.218  33.996  52.575  0.00  0.00     0.018 A 
ATOM      6  O   UNL d   1      49.824  34.228  53.406  0.00  0.00    -0.267 OA
ATOM      7  C   UNL d   1      52.073  34.252  51.806  0.00  0.00     0.021 A 
ATOM      8  C   UNL d   1      51.474  33.791  53.773  0.00  0.00     0.018 A 
ATOM      9  C   UNL d   1      52.901  33.750  52.948  0.00  0.00     0.002 A 
ATOM     10  C   UNL d   1      52.148  33.544  54.156  0.00  0.00     0.002 A 
ATOM     11  C   UNL d   1      52.873  33.518  53.750  0.00  0.00     0.000 A 
ENDROOT
BRANCH   3  12
ATOM     12  C   UNL d   1      49.587  34.673  52.058  0.00  0.00     0.125 C 
BRANCH  12  13
ATOM     13  S   UNL d   1      48.855  34.977  52.274  0.00  0.00    -0.094 SA
BRANCH  13  14
ATOM     14  C   UNL d   1      48.355  35.295  51.694  0.00  0.00     0.035 C 
BRANCH  14  15
ATOM     15  C   UNL d   1      47.655  35.682  51.920  0.00  0.00     0.006 A 
ATOM     16  C   UNL d   1      46.930  35.419  51.626  0.00  0.00     0.001 A 
ATOM     17  C   UNL d   1      46.234  35.803  51.850  0.00  0.00     0.000 A 
ATOM     18  C   UNL d   1      46.277  36.449  52.368  0.00  0.00     0.000 A 
ATOM     19  C   UNL d   1      46.997  36.709  52.659  0.00  0.00     0.000 A 
ATOM     20  C   UNL d   1      47.688  36.329  52.438  0.00  0.00     0.001 A 
ENDBRANCH  14  15
ENDBRANCH  13  14
ENDBRANCH  12  13
ENDBRANCH   3  12
TORSDOF 4
ENDMDL
