MODEL 1
REMARK VINA RESULT:      -2.1      0.000      0.000
REMARK  3 active torsions:
REMARK  status: ('A' for Active; 'I' for Inactive)
REMARK    1  A    between atoms: N_2  and  S_1 
REMARK    2  A    between atoms: C_5  and  S_1 
REMARK    3  A    between atoms: C_4  and  C_3 
REMARK       I    between atoms: N_8  and  C_4 
ROOT
ATOM      1  N   UNL d   1      58.069  -1.426  30.111  0.00  0.00    -0.226 N 
ATOM      2  C   UNL d   1      58.231  -0.664  29.861  0.00  0.00     0.131 A 
ATOM      3  C   UNL d   1      57.586  -1.539  30.775  0.00  0.00     0.092 A 
ATOM      4  C   UNL d   1      57.920  -0.018  30.263  0.00  0.00     0.023 A 
ATOM      5  C   UNL d   1      57.279  -0.900  31.172  0.00  0.00     0.018 A 
ATOM      6  C   UNL d   1      57.446  -0.132  30.915  0.00  0.00     0.003 A 
ATOM      7  C   UNL d   1      56.798  -1.004  31.833  0.00  0.00     0.002 A 
ATOM      8  C   UNL d   1      57.143   0.523  31.306  0.00  0.00     0.000 A 
ATOM      9  C   UNL d   1      56.662   0.414  31.969  0.00  0.00     0.000 A 
ATOM     10  C   UNL d   1      56.489  -0.354  32.233  0.00  0.00     0.000 A 
ENDROOT
BRANCH   2  11
ATOM     11  C   UNL d   1      58.714  -0.552  29.197  0.00  0.00     0.282 C 
ATOM     12  N   UNL d   1      59.449  -0.183  29.280  0.00  0.00    -0.271 N 
ATOM     13  C   UNL d   1      59.645   0.048  30.041  0.00  0.00     0.083 A 
ATOM     14  C   UNL d   1      59.886  -0.099  28.581  0.00  0.00     0.083 A 
ATOM     15  C   UNL d   1      60.331   0.426  30.308  0.00  0.00     0.019 A 
ATOM     16  C   UNL d   1      60.984   0.662  29.876  0.00  0.00     0.002 A 
ATOM     17  C   UNL d   1      61.125   0.583  29.064  0.00  0.00     0.002 A 
ATOM     18  C   UNL d   1      60.632   0.243  28.487  0.00  0.00     0.019 A 
ATOM     19  O   UNL d   1      58.469  -0.803  28.455  0.00  0.00    -0.265 OA
ENDBRANCH   2  11
BRANCH   1  20
ATOM     20  S   UNL d   1      58.379  -2.077  29.710  0.00  0.00     0.277 S 
ATOM     21  O   UNL d   1      57.733  -2.027  29.202  0.00  0.00    -0.199 OA
ATOM     22  O   UNL d   1      59.024  -2.120  30.225  0.00  0.00    -0.199 OA
BRANCH  20  23
ATOM     23  C   UNL d   1      58.677  -2.728  29.299  0.00  0.00     0.133 A 
ATOM     24  S   UNL d   1      58.279  -3.155  28.721  0.00  0.00    -0.074 SA
ATOM     25  C   UNL d   1      58.774  -3.756  28.456  0.00  0.00     0.036 A 
ATOM     26  C   UNL d   1      59.489  -3.702  28.874  0.00  0.00     0.008 A 
ATOM     27  C   UNL d   1      59.425  -3.063  29.395  0.00  0.00     0.020 A 
ENDBRANCH  20  23
ENDBRANCH   1  20
TORSDOF 3
ENDMDL
