MODEL 1
REMARK VINA RESULT:      -3.1      0.000      0.000
REMARK  4 active torsions:
REMARK  status: ('A' for Active; 'I' for Inactive)
REMARK    1  A    between atoms: C_4  and  C_1 
REMARK       I    between atoms: N_9  and  C_4 
REMARK    2  A    between atoms: C_7  and  C_13 
REMARK    3  A    between atoms: C_12  and  N_9 
REMARK    4  A    between atoms: C_13  and  C_12 
ROOT
ATOM      1  C   UNL d   1      32.929  20.464 -21.443  0.00  0.00     0.302 C 
ATOM      2  O   UNL d   1      33.240  19.977 -20.874  0.00  0.00    -0.263 OA
ATOM      3  N   UNL d   1      32.793  20.166 -22.216  0.00  0.00    -0.205 NA
ENDROOT
BRANCH   3   4
ATOM      4  C   UNL d   1      32.977  19.387 -22.379  0.00  0.00     0.102 C 
BRANCH   4   5
ATOM      5  C   UNL d   1      32.953  19.105 -23.157  0.00  0.00     0.021 C 
BRANCH   5   6
ATOM      6  C   UNL d   1      32.774  18.318 -23.307  0.00  0.00     0.002 A 
ATOM      7  C   UNL d   1      32.099  18.129 -23.759  0.00  0.00     0.000 A 
ATOM      8  C   UNL d   1      31.910  17.342 -23.917  0.00  0.00     0.000 A 
ATOM      9  C   UNL d   1      32.388  16.732 -23.628  0.00  0.00     0.000 A 
ATOM     10  C   UNL d   1      33.050  16.919 -23.185  0.00  0.00     0.000 A 
ATOM     11  C   UNL d   1      33.241  17.713 -23.026  0.00  0.00     0.000 A 
ENDBRANCH   5   6
ENDBRANCH   4   5
ENDBRANCH   3   4
BRANCH   1  12
ATOM     12  C   UNL d   1      32.745  21.249 -21.274  0.00  0.00     0.158 A 
ATOM     13  O   UNL d   1      33.117  21.941 -21.536  0.00  0.00    -0.296 OA
ATOM     14  C   UNL d   1      32.729  22.599 -21.214  0.00  0.00     0.134 A 
ATOM     15 BR   UNL d   1      32.932  23.393 -21.342  0.00  0.00    -0.022 Br
ATOM     16  C   UNL d   1      32.112  22.308 -20.748  0.00  0.00     0.034 A 
ATOM     17  C   UNL d   1      32.118  21.490 -20.782  0.00  0.00     0.032 A 
ENDBRANCH   1  12
TORSDOF 4
ENDMDL
MODEL 2
REMARK VINA RESULT:      -3.0      2.310      4.700
REMARK  4 active torsions:
REMARK  status: ('A' for Active; 'I' for Inactive)
REMARK    1  A    between atoms: C_4  and  C_1 
REMARK       I    between atoms: N_9  and  C_4 
REMARK    2  A    between atoms: C_7  and  C_13 
REMARK    3  A    between atoms: C_12  and  N_9 
REMARK    4  A    between atoms: C_13  and  C_12 
ROOT
ATOM      1  C   UNL d   1      32.803  18.646 -23.331  0.00  0.00     0.302 C 
ATOM      2  O   UNL d   1      32.830  19.154 -23.962  0.00  0.00    -0.263 OA
ATOM      3  N   UNL d   1      32.860  18.948 -22.550  0.00  0.00    -0.205 NA
ENDROOT
BRANCH   3   4
ATOM      4  C   UNL d   1      32.942  19.754 -22.442  0.00  0.00     0.102 C 
BRANCH   4   5
ATOM      5  C   UNL d   1      33.009  20.069 -21.679  0.00  0.00     0.021 C 
BRANCH   5   6
ATOM      6  C   UNL d   1      32.854  20.864 -21.544  0.00  0.00     0.002 A 
ATOM      7  C   UNL d   1      32.288  21.081 -20.972  0.00  0.00     0.000 A 
ATOM      8  C   UNL d   1      32.124  21.876 -20.828  0.00  0.00     0.000 A 
ATOM      9  C   UNL d   1      32.520  22.467 -21.249  0.00  0.00     0.000 A 
ATOM     10  C   UNL d   1      33.076  22.252 -21.811  0.00  0.00     0.000 A 
ATOM     11  C   UNL d   1      33.241  21.451 -21.956  0.00  0.00     0.000 A 
ENDBRANCH   5   6
ENDBRANCH   4   5
ENDBRANCH   3   4
BRANCH   1  12
ATOM     12  C   UNL d   1      32.720  17.834 -23.445  0.00  0.00     0.158 A 
ATOM     13  O   UNL d   1      33.196  17.216 -23.166  0.00  0.00    -0.296 OA
ATOM     14  C   UNL d   1      32.886  16.493 -23.428  0.00  0.00     0.134 A 
ATOM     15 BR   UNL d   1      33.201  15.743 -23.267  0.00  0.00    -0.022 Br
ATOM     16  C   UNL d   1      32.213  16.668 -23.874  0.00  0.00     0.034 A 
ATOM     17  C   UNL d   1      32.109  17.480 -23.886  0.00  0.00     0.032 A 
ENDBRANCH   1  12
TORSDOF 4
ENDMDL
MODEL 3
REMARK VINA RESULT:      -2.8      2.089      4.635
REMARK  4 active torsions:
REMARK  status: ('A' for Active; 'I' for Inactive)
REMARK    1  A    between atoms: C_4  and  C_1 
REMARK       I    between atoms: N_9  and  C_4 
REMARK    2  A    between atoms: C_7  and  C_13 
REMARK    3  A    between atoms: C_12  and  N_9 
REMARK    4  A    between atoms: C_13  and  C_12 
ROOT
ATOM      1  C   UNL d   1      32.945  19.465 -23.031  0.00  0.00     0.302 C 
ATOM      2  O   UNL d   1      33.241  20.086 -23.460  0.00  0.00    -0.263 OA
ATOM      3  N   UNL d   1      32.757  19.572 -22.220  0.00  0.00    -0.205 NA
ENDROOT
BRANCH   3   4
ATOM      4  C   UNL d   1      32.877  20.305 -21.879  0.00  0.00     0.102 C 
BRANCH   4   5
ATOM      5  C   UNL d   1      32.612  20.456 -21.109  0.00  0.00     0.021 C 
BRANCH   5   6
ATOM      6  C   UNL d   1      32.650  21.216 -20.799  0.00  0.00     0.002 A 
ATOM      7  C   UNL d   1      32.113  21.796 -21.066  0.00  0.00     0.000 A 
ATOM      8  C   UNL d   1      32.142  22.562 -20.763  0.00  0.00     0.000 A 
ATOM      9  C   UNL d   1      32.703  22.763 -20.190  0.00  0.00     0.000 A 
ATOM     10  C   UNL d   1      33.229  22.193 -19.929  0.00  0.00     0.000 A 
ATOM     11  C   UNL d   1      33.201  21.420 -20.235  0.00  0.00     0.000 A 
ENDBRANCH   5   6
ENDBRANCH   4   5
ENDBRANCH   3   4
BRANCH   1  12
ATOM     12  C   UNL d   1      32.827  18.728 -23.380  0.00  0.00     0.158 A 
ATOM     13  O   UNL d   1      32.376  18.089 -23.108  0.00  0.00    -0.296 OA
ATOM     14  C   UNL d   1      32.428  17.467 -23.655  0.00  0.00     0.134 A 
ATOM     15 BR   UNL d   1      32.056  16.728 -23.587  0.00  0.00    -0.022 Br
ATOM     16  C   UNL d   1      32.916  17.727 -24.268  0.00  0.00     0.034 A 
ATOM     17  C   UNL d   1      33.160  18.492 -24.106  0.00  0.00     0.032 A 
ENDBRANCH   1  12
TORSDOF 4
ENDMDL
MODEL 4
REMARK VINA RESULT:      -2.4      2.593      3.772
REMARK  4 active torsions:
REMARK  status: ('A' for Active; 'I' for Inactive)
REMARK    1  A    between atoms: C_4  and  C_1 
REMARK       I    between atoms: N_9  and  C_4 
REMARK    2  A    between atoms: C_7  and  C_13 
REMARK    3  A    between atoms: C_12  and  N_9 
REMARK    4  A    between atoms: C_13  and  C_12 
ROOT
ATOM      1  C   UNL d   1      32.811  22.970 -19.194  0.00  0.00     0.302 C 
ATOM      2  O   UNL d   1      32.824  23.601 -19.704  0.00  0.00    -0.263 OA
ATOM      3  N   UNL d   1      32.868  22.190 -19.497  0.00  0.00    -0.205 NA
ENDROOT
BRANCH   3   4
ATOM      4  C   UNL d   1      32.936  22.082 -20.304  0.00  0.00     0.102 C 
BRANCH   4   5
ATOM      5  C   UNL d   1      32.462  21.525 -20.693  0.00  0.00     0.021 C 
BRANCH   5   6
ATOM      6  C   UNL d   1      32.721  21.173 -21.388  0.00  0.00     0.002 A 
ATOM      7  C   UNL d   1      32.726  20.341 -21.450  0.00  0.00     0.000 A 
ATOM      8  C   UNL d   1      32.984  19.976 -22.143  0.00  0.00     0.000 A 
ATOM      9  C   UNL d   1      33.241  20.431 -22.784  0.00  0.00     0.000 A 
ATOM     10  C   UNL d   1      33.235  21.248 -22.721  0.00  0.00     0.000 A 
ATOM     11  C   UNL d   1      32.975  21.616 -22.023  0.00  0.00     0.000 A 
ENDBRANCH   5   6
ENDBRANCH   4   5
ENDBRANCH   3   4
BRANCH   1  12
ATOM     12  C   UNL d   1      32.742  23.085 -18.381  0.00  0.00     0.158 A 
ATOM     13  O   UNL d   1      33.136  22.697 -17.765  0.00  0.00    -0.296 OA
ATOM     14  C   UNL d   1      32.880  23.007 -17.040  0.00  0.00     0.134 A 
ATOM     15 BR   UNL d   1      33.141  22.767 -16.289  0.00  0.00    -0.022 Br
ATOM     16  C   UNL d   1      32.323  23.592 -17.213  0.00  0.00     0.034 A 
ATOM     17  C   UNL d   1      32.237  23.642 -18.025  0.00  0.00     0.032 A 
ENDBRANCH   1  12
TORSDOF 4
ENDMDL
MODEL 5
REMARK VINA RESULT:      -2.2      2.598      5.441
REMARK  4 active torsions:
REMARK  status: ('A' for Active; 'I' for Inactive)
REMARK    1  A    between atoms: C_4  and  C_1 
REMARK       I    between atoms: N_9  and  C_4 
REMARK    2  A    between atoms: C_7  and  C_13 
REMARK    3  A    between atoms: C_12  and  N_9 
REMARK    4  A    between atoms: C_13  and  C_12 
ROOT
ATOM      1  C   UNL d   1      32.410  21.705 -20.736  0.00  0.00     0.302 C 
ATOM      2  O   UNL d   1      31.722  21.428 -20.409  0.00  0.00    -0.263 OA
ATOM      3  N   UNL d   1      32.912  22.206 -20.286  0.00  0.00    -0.205 NA
ENDROOT
BRANCH   3   4
ATOM      4  C   UNL d   1      32.693  22.405 -19.524  0.00  0.00     0.102 C 
BRANCH   4   5
ATOM      5  C   UNL d   1      33.241  22.753 -19.010  0.00  0.00     0.021 C 
BRANCH   5   6
ATOM      6  C   UNL d   1      33.043  22.891 -18.225  0.00  0.00     0.002 A 
ATOM      7  C   UNL d   1      33.233  22.321 -17.647  0.00  0.00     0.000 A 
ATOM      8  C   UNL d   1      33.039  22.448 -16.856  0.00  0.00     0.000 A 
ATOM      9  C   UNL d   1      32.654  23.143 -16.627  0.00  0.00     0.000 A 
ATOM     10  C   UNL d   1      32.468  23.702 -17.196  0.00  0.00     0.000 A 
ATOM     11  C   UNL d   1      32.663  23.574 -17.993  0.00  0.00     0.000 A 
ENDBRANCH   5   6
ENDBRANCH   4   5
ENDBRANCH   3   4
BRANCH   1  12
ATOM     12  C   UNL d   1      32.626  21.502 -21.505  0.00  0.00     0.158 A 
ATOM     13  O   UNL d   1      32.836  20.761 -21.809  0.00  0.00    -0.296 OA
ATOM     14  C   UNL d   1      33.007  20.836 -22.617  0.00  0.00     0.134 A 
ATOM     15 BR   UNL d   1      33.241  20.222 -23.123  0.00  0.00    -0.022 Br
ATOM     16  C   UNL d   1      32.901  21.632 -22.811  0.00  0.00     0.034 A 
ATOM     17  C   UNL d   1      32.669  22.039 -22.139  0.00  0.00     0.032 A 
ENDBRANCH   1  12
TORSDOF 4
ENDMDL
MODEL 6
REMARK VINA RESULT:      -2.1      3.717      5.492
REMARK  4 active torsions:
REMARK  status: ('A' for Active; 'I' for Inactive)
REMARK    1  A    between atoms: C_4  and  C_1 
REMARK       I    between atoms: N_9  and  C_4 
REMARK    2  A    between atoms: C_7  and  C_13 
REMARK    3  A    between atoms: C_12  and  N_9 
REMARK    4  A    between atoms: C_13  and  C_12 
ROOT
ATOM      1  C   UNL d   1      30.113  17.152 -24.608  0.00  0.00     0.302 C 
ATOM      2  O   UNL d   1      29.934  17.857 -24.967  0.00  0.00    -0.263 OA
ATOM      3  N   UNL d   1      30.883  17.026 -24.299  0.00  0.00    -0.205 NA
ENDROOT
BRANCH   3   4
ATOM      4  C   UNL d   1      31.439  17.621 -24.365  0.00  0.00     0.102 C 
BRANCH   4   5
ATOM      5  C   UNL d   1      32.145  17.583 -23.934  0.00  0.00     0.021 C 
BRANCH   5   6
ATOM      6  C   UNL d   1      32.509  18.271 -23.673  0.00  0.00     0.002 A 
ATOM      7  C   UNL d   1      32.599  18.402 -22.854  0.00  0.00     0.000 A 
ATOM      8  C   UNL d   1      32.962  19.089 -22.579  0.00  0.00     0.000 A 
ATOM      9  C   UNL d   1      33.241  19.657 -23.112  0.00  0.00     0.000 A 
ATOM     10  C   UNL d   1      33.151  19.526 -23.916  0.00  0.00     0.000 A 
ATOM     11  C   UNL d   1      32.785  18.834 -24.193  0.00  0.00     0.000 A 
ENDBRANCH   5   6
ENDBRANCH   4   5
ENDBRANCH   3   4
BRANCH   1  12
ATOM     12  C   UNL d   1      29.548  16.555 -24.544  0.00  0.00     0.158 A 
ATOM     13  O   UNL d   1      28.978  16.438 -23.955  0.00  0.00    -0.296 OA
ATOM     14  C   UNL d   1      28.537  15.759 -24.135  0.00  0.00     0.134 A 
ATOM     15 BR   UNL d   1      27.912  15.453 -23.682  0.00  0.00    -0.022 Br
ATOM     16  C   UNL d   1      28.839  15.456 -24.841  0.00  0.00     0.034 A 
ATOM     17  C   UNL d   1      29.453  15.936 -25.092  0.00  0.00     0.032 A 
ENDBRANCH   1  12
TORSDOF 4
ENDMDL
MODEL 7
REMARK VINA RESULT:      -1.9      2.588      3.731
REMARK  4 active torsions:
REMARK  status: ('A' for Active; 'I' for Inactive)
REMARK    1  A    between atoms: C_4  and  C_1 
REMARK       I    between atoms: N_9  and  C_4 
REMARK    2  A    between atoms: C_7  and  C_13 
REMARK    3  A    between atoms: C_12  and  N_9 
REMARK    4  A    between atoms: C_13  and  C_12 
ROOT
ATOM      1  C   UNL d   1      31.873  18.288 -24.077  0.00  0.00     0.302 C 
ATOM      2  O   UNL d   1      31.705  18.412 -24.861  0.00  0.00    -0.263 OA
ATOM      3  N   UNL d   1      31.553  17.618 -23.686  0.00  0.00    -0.205 NA
ENDROOT
BRANCH   3   4
ATOM      4  C   UNL d   1      31.078  17.102 -24.105  0.00  0.00     0.102 C 
BRANCH   4   5
ATOM      5  C   UNL d   1      30.870  16.369 -23.782  0.00  0.00     0.021 C 
BRANCH   5   6
ATOM      6  C   UNL d   1      30.115  16.066 -23.895  0.00  0.00     0.002 A 
ATOM      7  C   UNL d   1      29.592  16.013 -23.247  0.00  0.00     0.000 A 
ATOM      8  C   UNL d   1      28.832  15.711 -23.347  0.00  0.00     0.000 A 
ATOM      9  C   UNL d   1      28.579  15.456 -24.092  0.00  0.00     0.000 A 
ATOM     10  C   UNL d   1      29.093  15.509 -24.728  0.00  0.00     0.000 A 
ATOM     11  C   UNL d   1      29.860  15.814 -24.626  0.00  0.00     0.000 A 
ENDBRANCH   5   6
ENDBRANCH   4   5
ENDBRANCH   3   4
BRANCH   1  12
ATOM     12  C   UNL d   1      32.352  18.811 -23.659  0.00  0.00     0.158 A 
ATOM     13  O   UNL d   1      32.440  18.897 -22.840  0.00  0.00    -0.296 OA
ATOM     14  C   UNL d   1      32.989  19.500 -22.687  0.00  0.00     0.134 A 
ATOM     15 BR   UNL d   1      33.231  19.757 -21.936  0.00  0.00    -0.022 Br
ATOM     16  C   UNL d   1      33.241  19.786 -23.419  0.00  0.00     0.034 A 
ATOM     17  C   UNL d   1      32.857  19.371 -24.011  0.00  0.00     0.032 A 
ENDBRANCH   1  12
TORSDOF 4
ENDMDL
