MODEL 1
REMARK VINA RESULT:      -4.1      0.000      0.000
REMARK  7 active torsions:
REMARK  status: ('A' for Active; 'I' for Inactive)
REMARK    1  A    between atoms: C_6  and  N_1 
REMARK    2  A    between atoms: C_7  and  C_2 
REMARK    3  A    between atoms: C_11  and  C_6 
REMARK    4  A    between atoms: N_8  and  C_12 
REMARK    5  A    between atoms: C_9  and  N_8 
REMARK    6  A    between atoms: C_17  and  C_9 
REMARK    7  A    between atoms: C_12  and  C_11 
ROOT
ATOM      1  N   UNL d   1      58.443  -0.564  30.025  0.00  0.00    -0.301 N 
ATOM      2  C   UNL d   1      59.549  -0.010  29.526  0.00  0.00     0.061 A 
ATOM      3  C   UNL d   1      58.909   0.121  30.022  0.00  0.00     0.084 A 
ATOM      4  C   UNL d   1      58.807  -1.116  29.523  0.00  0.00     0.064 A 
ATOM      5  C   UNL d   1      59.494  -0.771  29.213  0.00  0.00     0.021 A 
ATOM      6  C   UNL d   1      58.601  -1.888  29.309  0.00  0.00     0.018 A 
ATOM      7  C   UNL d   1      59.968  -1.193  28.696  0.00  0.00     0.002 A 
ATOM      8  C   UNL d   1      59.764  -1.960  28.482  0.00  0.00     0.000 A 
ATOM      9  C   UNL d   1      59.084  -2.302  28.789  0.00  0.00     0.002 A 
ENDROOT
BRANCH   1  10
ATOM     10  C   UNL d   1      57.745  -0.683  30.446  0.00  0.00     0.124 C 
BRANCH  10  11
ATOM     11  C   UNL d   1      57.379  -0.048  30.825  0.00  0.00     0.232 C 
ATOM     12  O   UNL d   1      57.216   0.647  30.398  0.00  0.00    -0.283 OA
BRANCH  11  13
ATOM     13  C   UNL d   1      57.173  -0.096  31.628  0.00  0.00     0.137 C 
BRANCH  13  14
ATOM     14  N   UNL d   1      56.453  -0.423  31.854  0.00  0.00    -0.262 NA
BRANCH  14  15
ATOM     15  C   UNL d   1      56.198  -0.367  32.634  0.00  0.00     0.143 C 
ATOM     16  C   UNL d   1      55.927  -1.035  33.034  0.00  0.00     0.032 C 
ATOM     17  C   UNL d   1      56.102  -1.167  32.443  0.00  0.00     0.032 C 
BRANCH  15  18
ATOM     18  C   UNL d   1      56.213   0.368  33.023  0.00  0.00     0.229 C 
ATOM     19  O   UNL d   1      55.516   0.682  33.335  0.00  0.00    -0.286 OA
ENDBRANCH  15  18
ENDBRANCH  14  15
ENDBRANCH  13  14
ENDBRANCH  11  13
ENDBRANCH  10  11
ENDBRANCH   1  10
BRANCH   2  20
ATOM     20  C   UNL d   1      60.108   0.586  29.418  0.00  0.00     0.236 C 
ATOM     21  O   UNL d   1      60.728   0.680  29.954  0.00  0.00    -0.283 OA
ENDBRANCH   2  20
TORSDOF 7
ENDMDL
MODEL 2
REMARK VINA RESULT:      -3.1      1.356      4.423
REMARK  7 active torsions:
REMARK  status: ('A' for Active; 'I' for Inactive)
REMARK    1  A    between atoms: C_6  and  N_1 
REMARK    2  A    between atoms: C_7  and  C_2 
REMARK    3  A    between atoms: C_11  and  C_6 
REMARK    4  A    between atoms: N_8  and  C_12 
REMARK    5  A    between atoms: C_9  and  N_8 
REMARK    6  A    between atoms: C_17  and  C_9 
REMARK    7  A    between atoms: C_12  and  C_11 
ROOT
ATOM      1  N   UNL d   1      56.926  -0.101  32.031  0.00  0.00    -0.301 N 
ATOM      2  C   UNL d   1      57.374   0.330  33.210  0.00  0.00     0.061 A 
ATOM      3  C   UNL d   1      57.561   0.266  32.414  0.00  0.00     0.084 A 
ATOM      4  C   UNL d   1      56.346  -0.262  32.603  0.00  0.00     0.064 A 
ATOM      5  C   UNL d   1      56.626   0.007  33.337  0.00  0.00     0.021 A 
ATOM      6  C   UNL d   1      55.602  -0.618  32.552  0.00  0.00     0.018 A 
ATOM      7  C   UNL d   1      56.166  -0.080  34.008  0.00  0.00     0.002 A 
ATOM      8  C   UNL d   1      55.426  -0.433  33.958  0.00  0.00     0.000 A 
ATOM      9  C   UNL d   1      55.148  -0.699  33.232  0.00  0.00     0.002 A 
ENDROOT
BRANCH   1  10
ATOM     10  C   UNL d   1      56.871  -0.279  31.228  0.00  0.00     0.124 C 
BRANCH  10  11
ATOM     11  C   UNL d   1      57.503  -0.110  30.725  0.00  0.00     0.232 C 
ATOM     12  O   UNL d   1      57.638   0.675  30.484  0.00  0.00    -0.283 OA
BRANCH  11  13
ATOM     13  C   UNL d   1      58.004  -0.716  30.457  0.00  0.00     0.137 C 
BRANCH  13  14
ATOM     14  N   UNL d   1      58.324  -0.686  29.700  0.00  0.00    -0.262 NA
BRANCH  14  15
ATOM     15  C   UNL d   1      58.633  -1.365  29.354  0.00  0.00     0.143 C 
ATOM     16  C   UNL d   1      59.054  -1.320  28.645  0.00  0.00     0.032 C 
ATOM     17  C   UNL d   1      58.854  -0.755  28.840  0.00  0.00     0.032 C 
BRANCH  15  18
ATOM     18  C   UNL d   1      58.520  -2.104  29.718  0.00  0.00     0.229 C 
ATOM     19  O   UNL d   1      58.797  -2.790  29.351  0.00  0.00    -0.286 OA
ENDBRANCH  15  18
ENDBRANCH  14  15
ENDBRANCH  13  14
ENDBRANCH  11  13
ENDBRANCH  10  11
ENDBRANCH   1  10
BRANCH   2  20
ATOM     20  C   UNL d   1      57.913   0.678  33.728  0.00  0.00     0.236 C 
ATOM     21  O   UNL d   1      58.719   0.508  33.671  0.00  0.00    -0.283 OA
ENDBRANCH   2  20
TORSDOF 7
ENDMDL
MODEL 3
REMARK VINA RESULT:      -3.1      1.213      4.790
REMARK  7 active torsions:
REMARK  status: ('A' for Active; 'I' for Inactive)
REMARK    1  A    between atoms: C_6  and  N_1 
REMARK    2  A    between atoms: C_7  and  C_2 
REMARK    3  A    between atoms: C_11  and  C_6 
REMARK    4  A    between atoms: N_8  and  C_12 
REMARK    5  A    between atoms: C_9  and  N_8 
REMARK    6  A    between atoms: C_17  and  C_9 
REMARK    7  A    between atoms: C_12  and  C_11 
ROOT
ATOM      1  N   UNL d   1      57.094   0.039  32.283  0.00  0.00    -0.301 N 
ATOM      2  C   UNL d   1      56.111  -0.772  32.675  0.00  0.00     0.061 A 
ATOM      3  C   UNL d   1      56.566  -0.546  32.031  0.00  0.00     0.084 A 
ATOM      4  C   UNL d   1      56.958   0.169  33.091  0.00  0.00     0.064 A 
ATOM      5  C   UNL d   1      56.345  -0.335  33.335  0.00  0.00     0.021 A 
ATOM      6  C   UNL d   1      57.311   0.681  33.636  0.00  0.00     0.018 A 
ATOM      7  C   UNL d   1      56.091  -0.326  34.113  0.00  0.00     0.002 A 
ATOM      8  C   UNL d   1      56.442   0.182  34.655  0.00  0.00     0.000 A 
ATOM      9  C   UNL d   1      57.047   0.682  34.415  0.00  0.00     0.002 A 
ENDROOT
BRANCH   1  10
ATOM     10  C   UNL d   1      57.657   0.426  31.822  0.00  0.00     0.124 C 
BRANCH  10  11
ATOM     11  C   UNL d   1      57.656   0.327  31.002  0.00  0.00     0.232 C 
ATOM     12  O   UNL d   1      57.020   0.618  30.553  0.00  0.00    -0.283 OA
BRANCH  11  13
ATOM     13  C   UNL d   1      58.286  -0.061  30.623  0.00  0.00     0.137 C 
BRANCH  13  14
ATOM     14  N   UNL d   1      58.670   0.293  29.988  0.00  0.00    -0.262 NA
BRANCH  14  15
ATOM     15  C   UNL d   1      59.162  -0.152  29.502  0.00  0.00     0.143 C 
ATOM     16  C   UNL d   1      59.952   0.062  29.399  0.00  0.00     0.032 C 
ATOM     17  C   UNL d   1      59.648   0.456  29.786  0.00  0.00     0.032 C 
BRANCH  15  18
ATOM     18  C   UNL d   1      58.863  -0.822  29.110  0.00  0.00     0.229 C 
ATOM     19  O   UNL d   1      59.343  -1.237  28.581  0.00  0.00    -0.286 OA
ENDBRANCH  15  18
ENDBRANCH  14  15
ENDBRANCH  13  14
ENDBRANCH  11  13
ENDBRANCH  10  11
ENDBRANCH   1  10
BRANCH   2  20
ATOM     20  C   UNL d   1      55.533  -1.352  32.583  0.00  0.00     0.236 C 
ATOM     21  O   UNL d   1      55.696  -2.139  32.770  0.00  0.00    -0.283 OA
ENDBRANCH   2  20
TORSDOF 7
ENDMDL
MODEL 4
REMARK VINA RESULT:      -3.1      1.238      1.487
REMARK  7 active torsions:
REMARK  status: ('A' for Active; 'I' for Inactive)
REMARK    1  A    between atoms: C_6  and  N_1 
REMARK    2  A    between atoms: C_7  and  C_2 
REMARK    3  A    between atoms: C_11  and  C_6 
REMARK    4  A    between atoms: N_8  and  C_12 
REMARK    5  A    between atoms: C_9  and  N_8 
REMARK    6  A    between atoms: C_17  and  C_9 
REMARK    7  A    between atoms: C_12  and  C_11 
ROOT
ATOM      1  N   UNL d   1      58.515   0.499  30.690  0.00  0.00    -0.301 N 
ATOM      2  C   UNL d   1      59.842   0.488  30.562  0.00  0.00     0.061 A 
ATOM      3  C   UNL d   1      59.227   0.677  31.072  0.00  0.00     0.084 A 
ATOM      4  C   UNL d   1      58.701   0.197  29.939  0.00  0.00     0.064 A 
ATOM      5  C   UNL d   1      59.527   0.190  29.860  0.00  0.00     0.021 A 
ATOM      6  C   UNL d   1      58.225  -0.072  29.318  0.00  0.00     0.018 A 
ATOM      7  C   UNL d   1      59.871  -0.082  29.170  0.00  0.00     0.002 A 
ATOM      8  C   UNL d   1      59.399  -0.350  28.552  0.00  0.00     0.000 A 
ATOM      9  C   UNL d   1      58.582  -0.343  28.629  0.00  0.00     0.002 A 
ENDROOT
BRANCH   1  10
ATOM     10  C   UNL d   1      57.755   0.599  30.994  0.00  0.00     0.124 C 
BRANCH  10  11
ATOM     11  C   UNL d   1      57.608   0.452  31.792  0.00  0.00     0.232 C 
ATOM     12  O   UNL d   1      58.168   0.682  32.363  0.00  0.00    -0.283 OA
BRANCH  11  13
ATOM     13  C   UNL d   1      56.906   0.077  32.031  0.00  0.00     0.137 C 
BRANCH  13  14
ATOM     14  N   UNL d   1      56.565   0.257  32.757  0.00  0.00    -0.262 NA
BRANCH  14  15
ATOM     15  C   UNL d   1      56.044  -0.272  33.112  0.00  0.00     0.143 C 
ATOM     16  C   UNL d   1      55.617  -0.051  33.782  0.00  0.00     0.032 C 
ATOM     17  C   UNL d   1      55.990   0.412  33.576  0.00  0.00     0.032 C 
BRANCH  15  18
ATOM     18  C   UNL d   1      55.947  -1.034  32.795  0.00  0.00     0.229 C 
ATOM     19  O   UNL d   1      55.254  -1.457  32.946  0.00  0.00    -0.286 OA
ENDBRANCH  15  18
ENDBRANCH  14  15
ENDBRANCH  13  14
ENDBRANCH  11  13
ENDBRANCH  10  11
ENDBRANCH   1  10
BRANCH   2  20
ATOM     20  C   UNL d   1      60.621   0.610  30.801  0.00  0.00     0.236 C 
ATOM     21  O   UNL d   1      60.807   0.682  31.602  0.00  0.00    -0.283 OA
ENDBRANCH   2  20
TORSDOF 7
ENDMDL
MODEL 5
REMARK VINA RESULT:      -3.0      8.735      9.384
REMARK  7 active torsions:
REMARK  status: ('A' for Active; 'I' for Inactive)
REMARK    1  A    between atoms: C_6  and  N_1 
REMARK    2  A    between atoms: C_7  and  C_2 
REMARK    3  A    between atoms: C_11  and  C_6 
REMARK    4  A    between atoms: N_8  and  C_12 
REMARK    5  A    between atoms: C_9  and  N_8 
REMARK    6  A    between atoms: C_17  and  C_9 
REMARK    7  A    between atoms: C_12  and  C_11 
ROOT
ATOM      1  N   UNL d   1      59.429  -9.498  33.480  0.00  0.00    -0.301 N 
ATOM      2  C   UNL d   1      60.154  -9.708  32.381  0.00  0.00     0.061 A 
ATOM      3  C   UNL d   1      60.200  -9.577  33.190  0.00  0.00     0.084 A 
ATOM      4  C   UNL d   1      58.909  -9.582  32.838  0.00  0.00     0.064 A 
ATOM      5  C   UNL d   1      59.361  -9.713  32.155  0.00  0.00     0.021 A 
ATOM      6  C   UNL d   1      58.084  -9.557  32.787  0.00  0.00     0.018 A 
ATOM      7  C   UNL d   1      58.992  -9.817  31.432  0.00  0.00     0.002 A 
ATOM      8  C   UNL d   1      58.172  -9.792  31.380  0.00  0.00     0.000 A 
ATOM      9  C   UNL d   1      57.724  -9.662  32.056  0.00  0.00     0.002 A 
ENDROOT
BRANCH   1  10
ATOM     10  C   UNL d   1      59.209  -9.360  34.262  0.00  0.00     0.124 C 
BRANCH  10  11
ATOM     11  C   UNL d   1      59.785  -9.193  34.828  0.00  0.00     0.232 C 
ATOM     12  O   UNL d   1      60.144  -9.817  35.246  0.00  0.00    -0.283 OA
BRANCH  11  13
ATOM     13  C   UNL d   1      60.009  -8.409  34.985  0.00  0.00     0.137 C 
BRANCH  13  14
ATOM     14  N   UNL d   1      59.660  -7.992  35.602  0.00  0.00    -0.262 NA
BRANCH  14  15
ATOM     15  C   UNL d   1      59.981  -7.277  35.853  0.00  0.00     0.143 C 
ATOM     16  C   UNL d   1      59.489  -6.648  36.061  0.00  0.00     0.032 C 
ATOM     17  C   UNL d   1      59.162  -7.156  35.880  0.00  0.00     0.032 C 
BRANCH  15  18
ATOM     18  C   UNL d   1      60.806  -7.187  35.899  0.00  0.00     0.229 C 
ATOM     19  O   UNL d   1      61.131  -6.438  36.025  0.00  0.00    -0.286 OA
ENDBRANCH  15  18
ENDBRANCH  14  15
ENDBRANCH  13  14
ENDBRANCH  11  13
ENDBRANCH  10  11
ENDBRANCH   1  10
BRANCH   2  20
ATOM     20  C   UNL d   1      60.846  -9.808  31.945  0.00  0.00     0.236 C 
ATOM     21  O   UNL d   1      61.046  -9.275  31.347  0.00  0.00    -0.283 OA
ENDBRANCH   2  20
TORSDOF 7
ENDMDL
