MODEL 1
REMARK VINA RESULT:      24.5      0.000      0.000
REMARK  5 active torsions:
REMARK  status: ('A' for Active; 'I' for Inactive)
REMARK    1  A    between atoms: C_7  and  C_1 
REMARK    2  A    between atoms: C_10  and  C_3 
REMARK    3  A    between atoms: C_8  and  C_4 
REMARK    4  A    between atoms: O_14  and  C_7 
REMARK    5  A    between atoms: C_20  and  O_14 
ROOT
ATOM      1  C   UNL d   1      46.288 -18.228  43.581  0.00  0.00     0.102 A 
ATOM      2  C   UNL d   1      46.362 -17.968  44.367  0.00  0.00     0.201 A 
ATOM      3  C   UNL d   1      46.031 -17.714  42.986  0.00  0.00     0.008 A 
ATOM      4  C   UNL d   1      45.916 -16.669  43.940  0.00  0.00     0.003 A 
ATOM      5  C   UNL d   1      46.173 -17.184  44.534  0.00  0.00     0.042 A 
ATOM      6  C   UNL d   1      45.846 -16.934  43.172  0.00  0.00     0.000 A 
ATOM      7  O   UNL d   1      46.616 -18.476  44.955  0.00  0.00    -0.286 OA
ENDROOT
BRANCH   4   8
ATOM      8  C   UNL d   1      45.731 -15.883  44.131  0.00  0.00     0.000 A 
ATOM      9  C   UNL d   1      45.059 -15.721  44.592  0.00  0.00     0.000 A 
ATOM     10  C   UNL d   1      44.869 -14.956  44.785  0.00  0.00     0.000 A 
ATOM     11  C   UNL d   1      45.358 -14.336  44.514  0.00  0.00     0.000 A 
ATOM     12  C   UNL d   1      46.014 -14.506  44.063  0.00  0.00     0.000 A 
ATOM     13  C   UNL d   1      45.168 -13.553  44.709  0.00  0.00     0.000 C 
ATOM     14  C   UNL d   1      46.203 -15.276  43.871  0.00  0.00     0.000 A 
ENDBRANCH   4   8
BRANCH   3  15
ATOM     15  C   UNL d   1      45.961 -17.985  42.213  0.00  0.00     0.000 A 
ATOM     16  C   UNL d   1      46.634 -18.274  41.827  0.00  0.00     0.000 A 
ATOM     17  C   UNL d   1      46.557 -18.546  41.049  0.00  0.00     0.000 A 
ATOM     18  C   UNL d   1      45.847 -18.533  40.665  0.00  0.00     0.000 A 
ATOM     19  C   UNL d   1      45.171 -18.238  41.066  0.00  0.00     0.000 A 
ATOM     20  C   UNL d   1      45.237 -17.965  41.841  0.00  0.00     0.000 A 
ENDBRANCH   3  15
BRANCH   1  21
ATOM     21  C   UNL d   1      46.474 -19.017  43.392  0.00  0.00     0.303 C 
ATOM     22  O   UNL d   1      46.491 -19.262  42.603  0.00  0.00    -0.259 OA
BRANCH  21  23
ATOM     23  O   UNL d   1      46.645 -19.562  43.993  0.00  0.00    -0.271 OA
BRANCH  23  24
ATOM     24  C   UNL d   1      46.192 -20.247  44.071  0.00  0.00     0.126 C 
ATOM     25  C   UNL d   1      45.675 -20.329  44.709  0.00  0.00     0.029 C 
ENDBRANCH  23  24
ENDBRANCH  21  23
ENDBRANCH   1  21
TORSDOF 5
ENDMDL
