MODEL 1
REMARK VINA RESULT:       9.2      0.000      0.000
REMARK  2 active torsions:
REMARK  status: ('A' for Active; 'I' for Inactive)
REMARK    1  A    between atoms: C_13  and  N_8 
REMARK    2  A    between atoms: C_14  and  C_13 
ROOT
ATOM      1  C   UNL d   1      46.501 -18.977  42.872  0.00  0.00     0.093 A 
ATOM      2  N   UNL d   1      46.408 -19.054  44.295  0.00  0.00    -0.179 NA
ATOM      3  C   UNL d   1      46.428 -18.599  43.602  0.00  0.00     0.284 A 
ATOM      4  C   UNL d   1      46.552 -19.802  42.836  0.00  0.00     0.091 A 
ATOM      5  C   UNL d   1      46.459 -19.878  44.259  0.00  0.00     0.223 A 
ATOM      6  N   UNL d   1      46.530 -20.247  43.529  0.00  0.00    -0.217 NA
ATOM      7  C   UNL d   1      46.522 -18.531  42.178  0.00  0.00     0.087 A 
ATOM      8  N   UNL d   1      46.594 -18.909  41.458  0.00  0.00    -0.302 N 
ATOM      9  C   UNL d   1      46.624 -20.179  42.106  0.00  0.00     0.038 A 
ATOM     10  S   UNL d   1      46.438 -20.329  44.952  0.00  0.00    -0.037 SA
ATOM     11  O   UNL d   1      46.377 -17.775  43.647  0.00  0.00    -0.265 OA
ATOM     12  C   UNL d   1      46.645 -19.734  41.422  0.00  0.00     0.082 A 
ENDROOT
BRANCH   8  13
ATOM     13  C   UNL d   1      46.616 -18.463  40.755  0.00  0.00     0.080 C 
BRANCH  13  14
ATOM     14  C   UNL d   1      45.914 -18.304  40.348  0.00  0.00     0.019 C 
ATOM     15  C   UNL d   1      45.943 -17.884  39.639  0.00  0.00     0.002 C 
ENDBRANCH  13  14
ENDBRANCH   8  13
TORSDOF 2
ENDMDL
MODEL 2
REMARK VINA RESULT:      11.8      5.019      5.591
REMARK  2 active torsions:
REMARK  status: ('A' for Active; 'I' for Inactive)
REMARK    1  A    between atoms: C_13  and  N_8 
REMARK    2  A    between atoms: C_14  and  C_13 
ROOT
ATOM      1  C   UNL d   1      45.121 -14.244  44.376  0.00  0.00     0.093 A 
ATOM      2  N   UNL d   1      44.843 -15.520  44.952  0.00  0.00    -0.179 NA
ATOM      3  C   UNL d   1      44.597 -14.752  44.760  0.00  0.00     0.284 A 
ATOM      4  C   UNL d   1      45.883 -14.502  44.185  0.00  0.00     0.091 A 
ATOM      5  C   UNL d   1      45.605 -15.778  44.762  0.00  0.00     0.223 A 
ATOM      6  N   UNL d   1      46.121 -15.267  44.379  0.00  0.00    -0.217 NA
ATOM      7  C   UNL d   1      44.883 -13.478  44.182  0.00  0.00     0.087 A 
ATOM      8  N   UNL d   1      45.405 -12.978  43.801  0.00  0.00    -0.302 N 
ATOM      9  C   UNL d   1      46.407 -13.994  43.800  0.00  0.00     0.038 A 
ATOM     10  S   UNL d   1      45.847 -16.545  44.954  0.00  0.00    -0.037 SA
ATOM     11  O   UNL d   1      43.833 -14.502  44.955  0.00  0.00    -0.265 OA
ATOM     12  C   UNL d   1      46.168 -13.236  43.610  0.00  0.00     0.082 A 
ENDROOT
BRANCH   8  13
ATOM     13  C   UNL d   1      45.170 -12.204  43.603  0.00  0.00     0.080 C 
BRANCH  13  14
ATOM     14  C   UNL d   1      44.673 -12.080  42.953  0.00  0.00     0.019 C 
ATOM     15  C   UNL d   1      44.991 -12.094  42.193  0.00  0.00     0.002 C 
ENDBRANCH  13  14
ENDBRANCH   8  13
TORSDOF 2
ENDMDL
