MODEL 1
REMARK VINA RESULT:      -4.1      0.000      0.000
REMARK  5 active torsions:
REMARK  status: ('A' for Active; 'I' for Inactive)
REMARK    1  A    between atoms: C_7  and  N_1 
REMARK    2  A    between atoms: C_15  and  C_3 
REMARK    3  A    between atoms: N_4  and  C_8 
REMARK    4  A    between atoms: C_10  and  C_11 
REMARK       I    between atoms: C_11  and  N_12 
REMARK    5  A    between atoms: N_12  and  C_15 
ROOT
ATOM      1  C   UNL d   1      57.567  -0.762  30.435  0.00  0.00     0.141 C 
ENDROOT
BRANCH   1   2
ATOM      2  N   UNL d   1      57.254  -0.837  31.193  0.00  0.00    -0.203 NA
ATOM      3  C   UNL d   1      56.863  -0.193  31.538  0.00  0.00     0.279 C 
ATOM      4  O   UNL d   1      56.791   0.500  31.132  0.00  0.00    -0.265 OA
BRANCH   3   5
ATOM      5  C   UNL d   1      56.551  -0.274  32.302  0.00  0.00     0.059 A 
ATOM      6  C   UNL d   1      56.909   0.121  32.932  0.00  0.00     0.027 A 
ATOM      7  C   UNL d   1      56.602   0.041  33.677  0.00  0.00     0.127 A 
ATOM      8  C   UNL d   1      57.568   0.588  32.786  0.00  0.00     0.002 C 
ATOM      9  C   UNL d   1      55.933  -0.433  33.818  0.00  0.00     0.024 A 
ATOM     10  C   UNL d   1      55.571  -0.830  33.199  0.00  0.00     0.002 A 
ATOM     11  C   UNL d   1      55.877  -0.751  32.450  0.00  0.00     0.005 A 
BRANCH   7  12
ATOM     12  N   UNL d   1      56.964   0.437  34.293  0.00  0.00    -0.114 N 
ATOM     13  O   UNL d   1      56.552   0.605  34.987  0.00  0.00    -0.532 OA
ATOM     14  O   UNL d   1      57.756   0.674  34.223  0.00  0.00    -0.532 OA
ENDBRANCH   7  12
ENDBRANCH   3   5
ENDBRANCH   1   2
BRANCH   1  15
ATOM     15  C   UNL d   1      57.941  -1.405  30.077  0.00  0.00     0.191 A 
ATOM     16  N   UNL d   1      58.582  -1.380  29.568  0.00  0.00    -0.264 N 
ATOM     17  C   UNL d   1      58.778  -2.139  29.342  0.00  0.00     0.227 A 
ATOM     18  N   UNL d   1      58.246  -2.660  29.717  0.00  0.00    -0.117 NA
ATOM     19  S   UNL d   1      59.385  -2.362  28.837  0.00  0.00    -0.036 SA
ATOM     20  N   UNL d   1      57.725  -2.203  30.175  0.00  0.00    -0.126 NA
BRANCH  16  21
ATOM     21  C   UNL d   1      58.971  -0.691  29.322  0.00  0.00     0.068 A 
ATOM     22  C   UNL d   1      59.656  -0.460  29.706  0.00  0.00     0.018 A 
ATOM     23  C   UNL d   1      60.040   0.228  29.457  0.00  0.00     0.001 A 
ATOM     24  C   UNL d   1      60.735   0.477  29.835  0.00  0.00     0.000 C 
ATOM     25  C   UNL d   1      59.736   0.679  28.826  0.00  0.00     0.000 A 
ATOM     26  C   UNL d   1      59.053   0.429  28.460  0.00  0.00     0.002 A 
ATOM     27  C   UNL d   1      58.659  -0.254  28.696  0.00  0.00     0.018 A 
ENDBRANCH  16  21
ENDBRANCH   1  15
TORSDOF 5
ENDMDL
MODEL 2
REMARK VINA RESULT:      -3.9      1.418      2.216
REMARK  5 active torsions:
REMARK  status: ('A' for Active; 'I' for Inactive)
REMARK    1  A    between atoms: C_7  and  N_1 
REMARK    2  A    between atoms: C_15  and  C_3 
REMARK    3  A    between atoms: N_4  and  C_8 
REMARK    4  A    between atoms: C_10  and  C_11 
REMARK       I    between atoms: C_11  and  N_12 
REMARK    5  A    between atoms: N_12  and  C_15 
ROOT
ATOM      1  C   UNL d   1      58.224  -0.656  30.353  0.00  0.00     0.141 C 
ENDROOT
BRANCH   1   2
ATOM      2  N   UNL d   1      57.903  -0.274  31.008  0.00  0.00    -0.203 NA
ATOM      3  C   UNL d   1      57.403  -0.693  31.519  0.00  0.00     0.279 C 
ATOM      4  O   UNL d   1      57.234  -1.468  31.372  0.00  0.00    -0.265 OA
BRANCH   3   5
ATOM      5  C   UNL d   1      57.082  -0.303  32.177  0.00  0.00     0.059 A 
ATOM      6  C   UNL d   1      56.330  -0.511  32.445  0.00  0.00     0.027 A 
ATOM      7  C   UNL d   1      56.018  -0.129  33.088  0.00  0.00     0.127 A 
ATOM      8  C   UNL d   1      55.915  -1.101  32.052  0.00  0.00     0.002 C 
ATOM      9  C   UNL d   1      56.444   0.468  33.481  0.00  0.00     0.024 A 
ATOM     10  C   UNL d   1      57.192   0.680  33.222  0.00  0.00     0.002 A 
ATOM     11  C   UNL d   1      57.507   0.299  32.577  0.00  0.00     0.005 A 
BRANCH   7  12
ATOM     12  N   UNL d   1      55.274  -0.342  33.345  0.00  0.00    -0.114 N 
ATOM     13  O   UNL d   1      55.116  -1.111  33.598  0.00  0.00    -0.532 OA
ATOM     14  O   UNL d   1      54.663   0.220  33.354  0.00  0.00    -0.532 OA
ENDBRANCH   7  12
ENDBRANCH   3   5
ENDBRANCH   1   2
BRANCH   1  15
ATOM     15  C   UNL d   1      58.796  -0.278  29.893  0.00  0.00     0.191 A 
ATOM     16  N   UNL d   1      59.309  -0.628  29.358  0.00  0.00    -0.264 N 
ATOM     17  C   UNL d   1      59.783  -0.055  29.024  0.00  0.00     0.227 A 
ATOM     18  N   UNL d   1      59.566   0.679  29.355  0.00  0.00    -0.117 NA
ATOM     19  S   UNL d   1      60.370  -0.167  28.463  0.00  0.00    -0.036 SA
ATOM     20  N   UNL d   1      58.951   0.540  29.896  0.00  0.00    -0.126 NA
BRANCH  16  21
ATOM     21  C   UNL d   1      59.340  -1.437  29.186  0.00  0.00     0.068 A 
ATOM     22  C   UNL d   1      59.932  -1.894  29.519  0.00  0.00     0.018 A 
ATOM     23  C   UNL d   1      59.958  -2.702  29.343  0.00  0.00     0.001 A 
ATOM     24  C   UNL d   1      60.551  -3.179  29.672  0.00  0.00     0.000 C 
ATOM     25  C   UNL d   1      59.393  -3.045  28.837  0.00  0.00     0.000 A 
ATOM     26  C   UNL d   1      58.814  -2.569  28.518  0.00  0.00     0.002 A 
ATOM     27  C   UNL d   1      58.774  -1.764  28.683  0.00  0.00     0.018 A 
ENDBRANCH  16  21
ENDBRANCH   1  15
TORSDOF 5
ENDMDL
MODEL 3
REMARK VINA RESULT:      -2.1      2.117      5.098
REMARK  5 active torsions:
REMARK  status: ('A' for Active; 'I' for Inactive)
REMARK    1  A    between atoms: C_7  and  N_1 
REMARK    2  A    between atoms: C_15  and  C_3 
REMARK    3  A    between atoms: N_4  and  C_8 
REMARK    4  A    between atoms: C_10  and  C_11 
REMARK       I    between atoms: C_11  and  N_12 
REMARK    5  A    between atoms: N_12  and  C_15 
ROOT
ATOM      1  C   UNL d   1      57.225  -0.069  31.864  0.00  0.00     0.141 C 
ENDROOT
BRANCH   1   2
ATOM      2  N   UNL d   1      57.653   0.129  31.189  0.00  0.00    -0.203 NA
ATOM      3  C   UNL d   1      57.645  -0.384  30.538  0.00  0.00     0.279 C 
ATOM      4  O   UNL d   1      57.221  -1.069  30.568  0.00  0.00    -0.265 OA
BRANCH   3   5
ATOM      5  C   UNL d   1      58.078  -0.180  29.860  0.00  0.00     0.059 A 
ATOM      6  C   UNL d   1      58.730  -0.637  29.642  0.00  0.00     0.027 A 
ATOM      7  C   UNL d   1      59.151  -0.437  28.980  0.00  0.00     0.127 A 
ATOM      8  C   UNL d   1      58.934  -1.285  30.103  0.00  0.00     0.002 C 
ATOM      9  C   UNL d   1      58.939   0.221  28.518  0.00  0.00     0.024 A 
ATOM     10  C   UNL d   1      58.293   0.681  28.727  0.00  0.00     0.002 A 
ATOM     11  C   UNL d   1      57.868   0.483  29.390  0.00  0.00     0.005 A 
BRANCH   7  12
ATOM     12  N   UNL d   1      59.794  -0.896  28.773  0.00  0.00    -0.114 N 
ATOM     13  O   UNL d   1      59.691  -1.650  28.456  0.00  0.00    -0.532 OA
ATOM     14  O   UNL d   1      60.563  -0.603  28.881  0.00  0.00    -0.532 OA
ENDBRANCH   7  12
ENDBRANCH   3   5
ENDBRANCH   1   2
BRANCH   1  15
ATOM     15  C   UNL d   1      57.474   0.199  32.605  0.00  0.00     0.191 A 
ATOM     16  N   UNL d   1      57.023   0.250  33.287  0.00  0.00    -0.264 N 
ATOM     17  C   UNL d   1      57.484   0.543  33.893  0.00  0.00     0.227 A 
ATOM     18  N   UNL d   1      58.247   0.682  33.588  0.00  0.00    -0.117 NA
ATOM     19  S   UNL d   1      57.250   0.681  34.667  0.00  0.00    -0.036 SA
ATOM     20  N   UNL d   1      58.241   0.467  32.785  0.00  0.00    -0.126 NA
BRANCH  16  21
ATOM     21  C   UNL d   1      56.226   0.037  33.350  0.00  0.00     0.068 A 
ATOM     22  C   UNL d   1      56.023  -0.756  33.348  0.00  0.00     0.018 A 
ATOM     23  C   UNL d   1      55.225  -0.964  33.411  0.00  0.00     0.001 A 
ATOM     24  C   UNL d   1      55.002  -1.762  33.411  0.00  0.00     0.000 C 
ATOM     25  C   UNL d   1      54.637  -0.377  33.475  0.00  0.00     0.000 A 
ATOM     26  C   UNL d   1      54.865   0.406  33.474  0.00  0.00     0.002 A 
ATOM     27  C   UNL d   1      55.655   0.629  33.412  0.00  0.00     0.018 A 
ENDBRANCH  16  21
ENDBRANCH   1  15
TORSDOF 5
ENDMDL
MODEL 4
REMARK VINA RESULT:      -1.5      1.187      2.110
REMARK  5 active torsions:
REMARK  status: ('A' for Active; 'I' for Inactive)
REMARK    1  A    between atoms: C_7  and  N_1 
REMARK    2  A    between atoms: C_15  and  C_3 
REMARK    3  A    between atoms: N_4  and  C_8 
REMARK    4  A    between atoms: C_10  and  C_11 
REMARK       I    between atoms: C_11  and  N_12 
REMARK    5  A    between atoms: N_12  and  C_15 
ROOT
ATOM      1  C   UNL d   1      58.024  -0.694  30.413  0.00  0.00     0.141 C 
ENDROOT
BRANCH   1   2
ATOM      2  N   UNL d   1      57.546  -0.268  30.932  0.00  0.00    -0.203 NA
ATOM      3  C   UNL d   1      57.092  -0.675  31.494  0.00  0.00     0.279 C 
ATOM      4  O   UNL d   1      57.121  -1.480  31.530  0.00  0.00    -0.265 OA
BRANCH   3   5
ATOM      5  C   UNL d   1      56.613  -0.242  32.014  0.00  0.00     0.059 A 
ATOM      6  C   UNL d   1      56.744  -0.295  32.827  0.00  0.00     0.027 A 
ATOM      7  C   UNL d   1      56.275   0.129  33.333  0.00  0.00     0.127 A 
ATOM      8  C   UNL d   1      57.348  -0.778  33.103  0.00  0.00     0.002 C 
ATOM      9  C   UNL d   1      55.664   0.616  33.047  0.00  0.00     0.024 A 
ATOM     10  C   UNL d   1      55.527   0.676  32.241  0.00  0.00     0.002 A 
ATOM     11  C   UNL d   1      55.996   0.251  31.731  0.00  0.00     0.005 A 
BRANCH   7  12
ATOM     12  N   UNL d   1      56.412   0.069  34.135  0.00  0.00    -0.114 N 
ATOM     13  O   UNL d   1      56.908   0.603  34.521  0.00  0.00    -0.532 OA
ATOM     14  O   UNL d   1      56.050  -0.537  34.573  0.00  0.00    -0.532 OA
ENDBRANCH   7  12
ENDBRANCH   3   5
ENDBRANCH   1   2
BRANCH   1  15
ATOM     15  C   UNL d   1      58.577  -0.299  29.944  0.00  0.00     0.191 A 
ATOM     16  N   UNL d   1      59.127  -0.639  29.440  0.00  0.00    -0.264 N 
ATOM     17  C   UNL d   1      59.565  -0.052  29.082  0.00  0.00     0.227 A 
ATOM     18  N   UNL d   1      59.286   0.681  29.366  0.00  0.00    -0.117 NA
ATOM     19  S   UNL d   1      60.172  -0.151  28.540  0.00  0.00    -0.036 SA
ATOM     20  N   UNL d   1      58.670   0.527  29.903  0.00  0.00    -0.126 NA
BRANCH  16  21
ATOM     21  C   UNL d   1      59.221  -1.452  29.315  0.00  0.00     0.068 A 
ATOM     22  C   UNL d   1      58.613  -1.877  28.969  0.00  0.00     0.018 A 
ATOM     23  C   UNL d   1      58.712  -2.688  28.846  0.00  0.00     0.001 A 
ATOM     24  C   UNL d   1      58.106  -3.133  28.496  0.00  0.00     0.000 C 
ATOM     25  C   UNL d   1      59.418  -3.068  29.071  0.00  0.00     0.000 A 
ATOM     26  C   UNL d   1      60.009  -2.624  29.414  0.00  0.00     0.002 A 
ATOM     27  C   UNL d   1      59.926  -1.816  29.543  0.00  0.00     0.018 A 
ENDBRANCH  16  21
ENDBRANCH   1  15
TORSDOF 5
ENDMDL
