MODEL 1
REMARK VINA RESULT:      11.1      0.000      0.000
REMARK  3 active torsions:
REMARK  status: ('A' for Active; 'I' for Inactive)
REMARK    1  A    between atoms: C_6  and  C_1 
REMARK       I    between atoms: N_10  and  C_6 
REMARK    2  A    between atoms: C_23  and  N_10 
REMARK    3  A    between atoms: C_22  and  C_23 
ROOT
ATOM      1  C   UNL d   1      45.302 -15.452  44.646  0.00  0.00     0.266 C 
ATOM      2  N   UNL d   1      45.903 -15.973  44.446  0.00  0.00    -0.210 NA
ATOM      3  O   UNL d   1      44.642 -15.880  44.865  0.00  0.00    -0.269 OA
ENDROOT
BRANCH   1   4
ATOM      4  C   UNL d   1      45.482 -14.660  44.588  0.00  0.00     0.150 A 
ATOM      5  C   UNL d   1      46.007 -13.318  44.631  0.00  0.00     0.028 A 
ATOM      6  C   UNL d   1      45.581 -13.870  44.478  0.00  0.00     0.078 A 
ATOM      7  C   UNL d   1      46.638 -12.880  44.942  0.00  0.00     0.002 C 
ATOM      8  C   UNL d   1      45.662 -12.664  44.265  0.00  0.00     0.002 C 
ATOM      9  C   UNL d   1      45.241 -13.211  44.114  0.00  0.00     0.012 C 
ATOM     10  C   UNL d   1      45.934 -14.463  44.836  0.00  0.00    -0.023 A 
ATOM     11  C   UNL d   1      44.919 -13.745  44.023  0.00  0.00     0.211 A 
ATOM     12  C   UNL d   1      45.881 -15.158  44.955  0.00  0.00    -0.015 A 
ATOM     13  C   UNL d   1      44.847 -14.530  44.150  0.00  0.00     0.219 A 
ATOM     14  O   UNL d   1      44.571 -13.088  43.654  0.00  0.00    -0.288 OA
ATOM     15  O   UNL d   1      44.182 -14.414  43.695  0.00  0.00    -0.287 OA
ENDBRANCH   1   4
BRANCH   2  16
ATOM     16  C   UNL d   1      45.775 -16.789  44.488  0.00  0.00     0.102 C 
BRANCH  16  17
ATOM     17  C   UNL d   1      46.000 -17.524  44.197  0.00  0.00     0.021 A 
ATOM     18  C   UNL d   1      45.970 -17.669  43.381  0.00  0.00     0.028 A 
ATOM     19  C   UNL d   1      46.198 -18.414  43.082  0.00  0.00     0.119 A 
ATOM     20  O   UNL d   1      46.227 -18.716  42.321  0.00  0.00    -0.300 OA
ATOM     21  C   UNL d   1      46.454 -19.007  43.605  0.00  0.00     0.119 A 
ATOM     22  C   UNL d   1      46.499 -19.490  42.360  0.00  0.00     0.304 A 
ATOM     23  O   UNL d   1      46.640 -19.672  43.154  0.00  0.00    -0.300 OA
ATOM     24  C   UNL d   1      46.481 -18.852  44.417  0.00  0.00     0.026 A 
ATOM     25  C   UNL d   1      46.255 -18.115  44.714  0.00  0.00     0.004 A 
ENDBRANCH  16  17
ENDBRANCH   2  16
TORSDOF 3
ENDMDL
