MODEL 1
REMARK VINA RESULT:      -6.8      0.000      0.000
REMARK  6 active torsions:
REMARK  status: ('A' for Active; 'I' for Inactive)
REMARK    1  A    between atoms: C_6  and  S_1 
REMARK    2  A    between atoms: N_7  and  S_1 
REMARK    3  A    between atoms: N_2  and  C_3 
REMARK       I    between atoms: C_4  and  N_2 
REMARK    4  A    between atoms: C_3  and  N_11 
REMARK    5  A    between atoms: C_5  and  C_4 
REMARK    6  A    between atoms: N_11  and  C_19 
ROOT
ATOM      1  C   UNL d   1     -46.171  11.838  23.318  0.00  0.00     0.104 A 
ATOM      2  C   UNL d   1     -46.167  12.616  23.034  0.00  0.00     0.014 A 
ATOM      3  C   UNL d   1     -46.867  11.487  23.577  0.00  0.00     0.014 A 
ATOM      4  C   UNL d   1     -47.588  12.688  23.277  0.00  0.00     0.084 A 
ATOM      5  C   UNL d   1     -47.582  11.910  23.559  0.00  0.00     0.020 A 
ATOM      6  C   UNL d   1     -46.885  13.044  23.015  0.00  0.00     0.020 A 
ENDROOT
BRANCH   4   7
ATOM      7  N   UNL d   1     -48.313  13.110  23.261  0.00  0.00    -0.217 NA
BRANCH   7   8
ATOM      8  C   UNL d   1     -48.575  13.391  22.596  0.00  0.00     0.224 C 
ATOM      9  S   UNL d   1     -48.757  12.915  22.006  0.00  0.00    -0.037 SA
BRANCH   8  10
ATOM     10  N   UNL d   1     -48.692  14.777  22.550  0.00  0.00    -0.178 NA
ATOM     11  C   UNL d   1     -49.405  15.106  22.582  0.00  0.00     0.287 C 
ATOM     12  O   UNL d   1     -49.469  15.901  22.555  0.00  0.00    -0.265 OA
BRANCH  11  13
ATOM     13  C   UNL d   1     -50.038  14.655  22.639  0.00  0.00     0.087 A 
ATOM     14  S   UNL d   1     -50.411  14.427  23.292  0.00  0.00    -0.082 SA
ATOM     15  C   UNL d   1     -51.014  13.980  23.077  0.00  0.00     0.036 A 
ATOM     16  C   UNL d   1     -51.022  13.925  22.316  0.00  0.00     0.008 A 
ATOM     17  C   UNL d   1     -50.428  14.334  22.029  0.00  0.00     0.012 A 
ENDBRANCH  11  13
ENDBRANCH   8  10
ENDBRANCH   7   8
ENDBRANCH   4   7
BRANCH   1  18
ATOM     18  S   UNL d   1     -45.463  11.404  23.342  0.00  0.00     0.271 S 
ATOM     19  O   UNL d   1     -45.845  10.767  23.698  0.00  0.00    -0.200 OA
ATOM     20  O   UNL d   1     -45.060  12.046  22.979  0.00  0.00    -0.200 OA
BRANCH  18  21
ATOM     21  N   UNL d   1     -44.718  10.977  23.354  0.00  0.00    -0.226 N 
ATOM     22  C   UNL d   1     -44.662  10.206  23.679  0.00  0.00     0.111 C 
ATOM     23  C   UNL d   1     -44.048  11.357  23.030  0.00  0.00     0.111 C 
ENDBRANCH  18  21
ENDBRANCH   1  18
TORSDOF 6
ENDMDL
MODEL 2
REMARK VINA RESULT:      -6.8      1.069      1.517
REMARK  6 active torsions:
REMARK  status: ('A' for Active; 'I' for Inactive)
REMARK    1  A    between atoms: C_6  and  S_1 
REMARK    2  A    between atoms: N_7  and  S_1 
REMARK    3  A    between atoms: N_2  and  C_3 
REMARK       I    between atoms: C_4  and  N_2 
REMARK    4  A    between atoms: C_3  and  N_11 
REMARK    5  A    between atoms: C_5  and  C_4 
REMARK    6  A    between atoms: N_11  and  C_19 
ROOT
ATOM      1  C   UNL d   1     -45.926  11.645  23.331  0.00  0.00     0.104 A 
ATOM      2  C   UNL d   1     -46.614  11.304  23.642  0.00  0.00     0.014 A 
ATOM      3  C   UNL d   1     -45.931  12.409  23.031  0.00  0.00     0.014 A 
ATOM      4  C   UNL d   1     -47.325  12.524  23.343  0.00  0.00     0.084 A 
ATOM      5  C   UNL d   1     -46.631  12.856  23.035  0.00  0.00     0.020 A 
ATOM      6  C   UNL d   1     -47.320  11.752  23.647  0.00  0.00     0.020 A 
ENDROOT
BRANCH   4   7
ATOM      7  N   UNL d   1     -48.029  12.980  23.344  0.00  0.00    -0.217 NA
BRANCH   7   8
ATOM      8  C   UNL d   1     -48.244  13.350  22.706  0.00  0.00     0.224 C 
ATOM      9  S   UNL d   1     -47.959  14.056  22.538  0.00  0.00    -0.037 SA
BRANCH   8  10
ATOM     10  N   UNL d   1     -49.158  12.664  21.911  0.00  0.00    -0.178 NA
ATOM     11  C   UNL d   1     -49.905  12.906  21.885  0.00  0.00     0.287 C 
ATOM     12  O   UNL d   1     -50.426  12.511  21.428  0.00  0.00    -0.265 OA
BRANCH  11  13
ATOM     13  C   UNL d   1     -50.127  13.525  22.303  0.00  0.00     0.087 A 
ATOM     14  S   UNL d   1     -50.099  14.282  22.097  0.00  0.00    -0.082 SA
ATOM     15  C   UNL d   1     -50.379  14.701  22.694  0.00  0.00     0.036 A 
ATOM     16  C   UNL d   1     -50.577  14.226  23.257  0.00  0.00     0.008 A 
ATOM     17  C   UNL d   1     -50.429  13.498  23.035  0.00  0.00     0.012 A 
ENDBRANCH  11  13
ENDBRANCH   8  10
ENDBRANCH   7   8
ENDBRANCH   4   7
BRANCH   1  18
ATOM     18  S   UNL d   1     -45.218  11.209  23.321  0.00  0.00     0.271 S 
ATOM     19  O   UNL d   1     -44.821  11.828  22.952  0.00  0.00    -0.200 OA
ATOM     20  O   UNL d   1     -45.610  10.569  23.698  0.00  0.00    -0.200 OA
BRANCH  18  21
ATOM     21  N   UNL d   1     -44.501  10.737  23.324  0.00  0.00    -0.226 N 
ATOM     22  C   UNL d   1     -43.792  11.019  22.976  0.00  0.00     0.111 C 
ATOM     23  C   UNL d   1     -44.532   9.985  23.687  0.00  0.00     0.111 C 
ENDBRANCH  18  21
ENDBRANCH   1  18
TORSDOF 6
ENDMDL
MODEL 3
REMARK VINA RESULT:      -6.0      1.599      1.807
REMARK  6 active torsions:
REMARK  status: ('A' for Active; 'I' for Inactive)
REMARK    1  A    between atoms: C_6  and  S_1 
REMARK    2  A    between atoms: N_7  and  S_1 
REMARK    3  A    between atoms: N_2  and  C_3 
REMARK       I    between atoms: C_4  and  N_2 
REMARK    4  A    between atoms: C_3  and  N_11 
REMARK    5  A    between atoms: C_5  and  C_4 
REMARK    6  A    between atoms: N_11  and  C_19 
ROOT
ATOM      1  C   UNL d   1     -45.696  12.671  22.586  0.00  0.00     0.104 A 
ATOM      2  C   UNL d   1     -46.106  13.349  22.345  0.00  0.00     0.014 A 
ATOM      3  C   UNL d   1     -46.058  12.103  23.055  0.00  0.00     0.014 A 
ATOM      4  C   UNL d   1     -47.265  12.875  23.061  0.00  0.00     0.084 A 
ATOM      5  C   UNL d   1     -46.847  12.200  23.297  0.00  0.00     0.020 A 
ATOM      6  C   UNL d   1     -46.900  13.449  22.587  0.00  0.00     0.020 A 
ENDROOT
BRANCH   4   7
ATOM      7  N   UNL d   1     -48.061  12.967  23.309  0.00  0.00    -0.217 NA
BRANCH   7   8
ATOM      8  C   UNL d   1     -48.571  12.409  23.170  0.00  0.00     0.224 C 
ATOM      9  S   UNL d   1     -48.691  11.841  23.691  0.00  0.00    -0.037 SA
BRANCH   8  10
ATOM     10  N   UNL d   1     -49.231  12.506  21.949  0.00  0.00    -0.178 NA
ATOM     11  C   UNL d   1     -50.006  12.638  21.938  0.00  0.00     0.287 C 
ATOM     12  O   UNL d   1     -50.382  12.693  21.237  0.00  0.00    -0.265 OA
BRANCH  11  13
ATOM     13  C   UNL d   1     -50.395  12.713  22.609  0.00  0.00     0.087 A 
ATOM     14  S   UNL d   1     -50.538  13.370  23.014  0.00  0.00    -0.082 SA
ATOM     15  C   UNL d   1     -50.947  13.174  23.650  0.00  0.00     0.036 A 
ATOM     16  C   UNL d   1     -51.060  12.419  23.648  0.00  0.00     0.008 A 
ATOM     17  C   UNL d   1     -50.727  12.118  23.014  0.00  0.00     0.012 A 
ENDBRANCH  11  13
ENDBRANCH   8  10
ENDBRANCH   7   8
ENDBRANCH   4   7
BRANCH   1  18
ATOM     18  S   UNL d   1     -44.906  12.561  22.351  0.00  0.00     0.271 S 
ATOM     19  O   UNL d   1     -44.907  11.792  22.644  0.00  0.00    -0.200 OA
ATOM     20  O   UNL d   1     -44.890  13.344  22.047  0.00  0.00    -0.200 OA
BRANCH  18  21
ATOM     21  N   UNL d   1     -44.090  12.475  22.098  0.00  0.00    -0.226 N 
ATOM     22  C   UNL d   1     -43.578  11.918  22.459  0.00  0.00     0.111 C 
ATOM     23  C   UNL d   1     -43.822  12.965  21.477  0.00  0.00     0.111 C 
ENDBRANCH  18  21
ENDBRANCH   1  18
TORSDOF 6
ENDMDL
MODEL 4
REMARK VINA RESULT:      -5.7      8.875      9.702
REMARK  6 active torsions:
REMARK  status: ('A' for Active; 'I' for Inactive)
REMARK    1  A    between atoms: C_6  and  S_1 
REMARK    2  A    between atoms: N_7  and  S_1 
REMARK    3  A    between atoms: N_2  and  C_3 
REMARK       I    between atoms: C_4  and  N_2 
REMARK    4  A    between atoms: C_3  and  N_11 
REMARK    5  A    between atoms: C_5  and  C_4 
REMARK    6  A    between atoms: N_11  and  C_19 
ROOT
ATOM      1  C   UNL d   1     -38.895  14.143  21.581  0.00  0.00     0.104 A 
ATOM      2  C   UNL d   1     -39.654  14.295  21.285  0.00  0.00     0.014 A 
ATOM      3  C   UNL d   1     -38.255  14.051  21.075  0.00  0.00     0.014 A 
ATOM      4  C   UNL d   1     -39.113  14.263  19.947  0.00  0.00     0.084 A 
ATOM      5  C   UNL d   1     -38.359  14.111  20.253  0.00  0.00     0.020 A 
ATOM      6  C   UNL d   1     -39.761  14.355  20.458  0.00  0.00     0.020 A 
ENDROOT
BRANCH   4   7
ATOM      7  N   UNL d   1     -39.212  14.322  19.116  0.00  0.00    -0.217 NA
BRANCH   7   8
ATOM      8  C   UNL d   1     -39.392  14.998  18.801  0.00  0.00     0.224 C 
ATOM      9  S   UNL d   1     -38.914  15.611  18.870  0.00  0.00    -0.037 SA
BRANCH   8  10
ATOM     10  N   UNL d   1     -40.607  15.025  18.122  0.00  0.00    -0.178 NA
ATOM     11  C   UNL d   1     -40.610  15.025  17.336  0.00  0.00     0.287 C 
ATOM     12  O   UNL d   1     -41.308  15.041  16.950  0.00  0.00    -0.265 OA
BRANCH  11  13
ATOM     13  C   UNL d   1     -39.936  15.011  16.946  0.00  0.00     0.087 A 
ATOM     14  S   UNL d   1     -39.493  15.621  16.724  0.00  0.00    -0.082 SA
ATOM     15  C   UNL d   1     -38.870  15.337  16.349  0.00  0.00     0.036 A 
ATOM     16  C   UNL d   1     -38.915  14.576  16.334  0.00  0.00     0.008 A 
ATOM     17  C   UNL d   1     -39.566  14.357  16.697  0.00  0.00     0.012 A 
ENDBRANCH  11  13
ENDBRANCH   8  10
ENDBRANCH   7   8
ENDBRANCH   4   7
BRANCH   1  18
ATOM     18  S   UNL d   1     -38.777  14.081  22.401  0.00  0.00     0.271 S 
ATOM     19  O   UNL d   1     -38.491  14.852  22.436  0.00  0.00    -0.200 OA
ATOM     20  O   UNL d   1     -39.066  13.293  22.381  0.00  0.00    -0.200 OA
BRANCH  18  21
ATOM     21  N   UNL d   1     -38.664  13.990  23.247  0.00  0.00    -0.226 N 
ATOM     22  C   UNL d   1     -38.694  13.235  23.613  0.00  0.00     0.111 C 
ATOM     23  C   UNL d   1     -38.524  14.679  23.698  0.00  0.00     0.111 C 
ENDBRANCH  18  21
ENDBRANCH   1  18
TORSDOF 6
ENDMDL
MODEL 5
REMARK VINA RESULT:      -3.9      1.332      5.276
REMARK  6 active torsions:
REMARK  status: ('A' for Active; 'I' for Inactive)
REMARK    1  A    between atoms: C_6  and  S_1 
REMARK    2  A    between atoms: N_7  and  S_1 
REMARK    3  A    between atoms: N_2  and  C_3 
REMARK       I    between atoms: C_4  and  N_2 
REMARK    4  A    between atoms: C_3  and  N_11 
REMARK    5  A    between atoms: C_5  and  C_4 
REMARK    6  A    between atoms: N_11  and  C_19 
ROOT
ATOM      1  C   UNL d   1     -47.980  13.877  22.928  0.00  0.00     0.104 A 
ATOM      2  C   UNL d   1     -47.238  14.242  22.966  0.00  0.00     0.014 A 
ATOM      3  C   UNL d   1     -48.074  13.088  23.136  0.00  0.00     0.014 A 
ATOM      4  C   UNL d   1     -46.675  12.997  23.431  0.00  0.00     0.084 A 
ATOM      5  C   UNL d   1     -47.421  12.641  23.389  0.00  0.00     0.020 A 
ATOM      6  C   UNL d   1     -46.579  13.795  23.221  0.00  0.00     0.020 A 
ENDROOT
BRANCH   4   7
ATOM      7  N   UNL d   1     -46.019  12.541  23.687  0.00  0.00    -0.217 NA
BRANCH   7   8
ATOM      8  C   UNL d   1     -45.763  11.963  23.251  0.00  0.00     0.224 C 
ATOM      9  S   UNL d   1     -46.100  11.261  23.281  0.00  0.00    -0.037 SA
BRANCH   8  10
ATOM     10  N   UNL d   1     -44.682  12.280  22.433  0.00  0.00    -0.178 NA
ATOM     11  C   UNL d   1     -44.058  11.802  22.416  0.00  0.00     0.287 C 
ATOM     12  O   UNL d   1     -43.440  11.986  21.946  0.00  0.00    -0.265 OA
BRANCH  11  13
ATOM     13  C   UNL d   1     -44.051  11.158  22.855  0.00  0.00     0.087 A 
ATOM     14  S   UNL d   1     -44.584  10.582  22.876  0.00  0.00    -0.082 SA
ATOM     15  C   UNL d   1     -44.343  10.054  23.398  0.00  0.00     0.036 A 
ATOM     16  C   UNL d   1     -43.681  10.287  23.697  0.00  0.00     0.008 A 
ATOM     17  C   UNL d   1     -43.485  10.965  23.374  0.00  0.00     0.012 A 
ENDBRANCH  11  13
ENDBRANCH   8  10
ENDBRANCH   7   8
ENDBRANCH   4   7
BRANCH   1  18
ATOM     18  S   UNL d   1     -48.642  14.312  22.677  0.00  0.00     0.271 S 
ATOM     19  O   UNL d   1     -48.622  13.950  21.938  0.00  0.00    -0.200 OA
ATOM     20  O   UNL d   1     -48.675  14.690  23.427  0.00  0.00    -0.200 OA
BRANCH  18  21
ATOM     21  N   UNL d   1     -49.327  14.774  22.443  0.00  0.00    -0.226 N 
ATOM     22  C   UNL d   1     -49.469  15.536  22.765  0.00  0.00     0.111 C 
ATOM     23  C   UNL d   1     -49.848  14.441  21.883  0.00  0.00     0.111 C 
ENDBRANCH  18  21
ENDBRANCH   1  18
TORSDOF 6
ENDMDL
MODEL 6
REMARK VINA RESULT:      -3.8      8.262     10.443
REMARK  6 active torsions:
REMARK  status: ('A' for Active; 'I' for Inactive)
REMARK    1  A    between atoms: C_6  and  S_1 
REMARK    2  A    between atoms: N_7  and  S_1 
REMARK    3  A    between atoms: N_2  and  C_3 
REMARK       I    between atoms: C_4  and  N_2 
REMARK    4  A    between atoms: C_3  and  N_11 
REMARK    5  A    between atoms: C_5  and  C_4 
REMARK    6  A    between atoms: N_11  and  C_19 
ROOT
ATOM      1  C   UNL d   1     -38.331  14.377  16.784  0.00  0.00     0.104 A 
ATOM      2  C   UNL d   1     -38.210  15.152  17.050  0.00  0.00     0.014 A 
ATOM      3  C   UNL d   1     -38.606  13.794  17.292  0.00  0.00     0.014 A 
ATOM      4  C   UNL d   1     -38.649  14.745  18.363  0.00  0.00     0.084 A 
ATOM      5  C   UNL d   1     -38.767  13.973  18.087  0.00  0.00     0.020 A 
ATOM      6  C   UNL d   1     -38.372  15.335  17.849  0.00  0.00     0.020 A 
ENDROOT
BRANCH   4   7
ATOM      7  N   UNL d   1     -38.814  14.921  19.166  0.00  0.00    -0.217 NA
BRANCH   7   8
ATOM      8  C   UNL d   1     -39.241  14.436  19.582  0.00  0.00     0.224 C 
ATOM      9  S   UNL d   1     -38.946  13.758  19.832  0.00  0.00    -0.037 SA
BRANCH   8  10
ATOM     10  N   UNL d   1     -40.540  14.866  19.837  0.00  0.00    -0.178 NA
ATOM     11  C   UNL d   1     -40.722  15.143  20.549  0.00  0.00     0.287 C 
ATOM     12  O   UNL d   1     -41.467  15.389  20.692  0.00  0.00    -0.265 OA
BRANCH  11  13
ATOM     13  C   UNL d   1     -40.176  15.174  21.104  0.00  0.00     0.087 A 
ATOM     14  S   UNL d   1     -39.838  14.575  21.483  0.00  0.00    -0.082 SA
ATOM     15  C   UNL d   1     -39.324  14.874  21.989  0.00  0.00     0.036 A 
ATOM     16  C   UNL d   1     -39.336  15.635  21.934  0.00  0.00     0.008 A 
ATOM     17  C   UNL d   1     -39.855  15.838  21.394  0.00  0.00     0.012 A 
ENDBRANCH  11  13
ENDBRANCH   8  10
ENDBRANCH   7   8
ENDBRANCH   4   7
BRANCH   1  18
ATOM     18  S   UNL d   1     -38.174  14.183  15.991  0.00  0.00     0.271 S 
ATOM     19  O   UNL d   1     -37.972  13.413  16.200  0.00  0.00    -0.200 OA
ATOM     20  O   UNL d   1     -38.376  14.966  15.762  0.00  0.00    -0.200 OA
BRANCH  18  21
ATOM     21  N   UNL d   1     -38.018  14.011  15.164  0.00  0.00    -0.226 N 
ATOM     22  C   UNL d   1     -37.940  13.222  14.890  0.00  0.00     0.111 C 
ATOM     23  C   UNL d   1     -37.946  14.656  14.639  0.00  0.00     0.111 C 
ENDBRANCH  18  21
ENDBRANCH   1  18
TORSDOF 6
ENDMDL
