MODEL 1
REMARK VINA RESULT:      -4.6      0.000      0.000
REMARK  5 active torsions:
REMARK  status: ('A' for Active; 'I' for Inactive)
REMARK    1  A    between atoms: O_4  and  C_1 
REMARK    2  A    between atoms: C_9  and  C_2 
REMARK    3  A    between atoms: C_5  and  O_4 
REMARK    4  A    between atoms: C_13  and  C_5 
REMARK    5  A    between atoms: N_10  and  C_9 
ROOT
ATOM      1  C   UNL d   1     -48.473  12.973  22.686  0.00  0.00     0.122 A 
ATOM      2  C   UNL d   1     -47.731  12.906  22.346  0.00  0.00     0.043 A 
ATOM      3  C   UNL d   1     -48.840  12.317  23.010  0.00  0.00     0.105 A 
ATOM      4  C   UNL d   1     -48.460  11.584  22.994  0.00  0.00     0.030 A 
ATOM      5  C   UNL d   1     -47.718  11.516  22.655  0.00  0.00     0.059 A 
ATOM      6  C   UNL d   1     -47.351  12.172  22.331  0.00  0.00     0.015 A 
ATOM      7  N   UNL d   1     -49.577  12.387  23.347  0.00  0.00    -0.242 NA
ATOM      8 CL   UNL d   1     -47.361  10.778  22.651  0.00  0.00    -0.082 Cl
ATOM      9  C   UNL d   1     -48.821  10.930  23.315  0.00  0.00     0.004 A 
ATOM     10  C   UNL d   1     -49.943  11.731  23.670  0.00  0.00     0.099 A 
ATOM     11  C   UNL d   1     -49.563  10.997  23.655  0.00  0.00     0.021 A 
ENDROOT
BRANCH   1  12
ATOM     12  O   UNL d   1     -48.824  13.628  22.706  0.00  0.00    -0.271 OA
BRANCH  12  13
ATOM     13  C   UNL d   1     -49.434  14.158  22.193  0.00  0.00     0.300 C 
ATOM     14  O   UNL d   1     -49.456  13.941  21.220  0.00  0.00    -0.259 OA
BRANCH  13  15
ATOM     15  C   UNL d   1     -49.896  14.744  22.546  0.00  0.00     0.064 A 
ATOM     16  C   UNL d   1     -49.650  15.082  23.260  0.00  0.00     0.005 A 
ATOM     17  C   UNL d   1     -50.115  15.670  23.613  0.00  0.00     0.000 A 
ATOM     18  C   UNL d   1     -50.826  15.921  23.256  0.00  0.00     0.000 A 
ATOM     19  C   UNL d   1     -51.060  15.574  22.543  0.00  0.00     0.000 A 
ATOM     20  C   UNL d   1     -50.594  14.986  22.190  0.00  0.00     0.005 A 
ENDBRANCH  13  15
ENDBRANCH  12  13
ENDBRANCH   1  12
BRANCH   2  21
ATOM     21  C   UNL d   1     -47.180  13.500  21.948  0.00  0.00     0.082 C 
BRANCH  21  22
ATOM     22  N   UNL d   1     -46.427  13.608  22.224  0.00  0.00    -0.299 N 
ATOM     23  C   UNL d   1     -45.799  13.240  21.864  0.00  0.00     0.107 A 
ATOM     24  C   UNL d   1     -45.029  13.348  22.142  0.00  0.00     0.142 A 
ATOM     25  O   UNL d   1     -44.902  13.833  22.788  0.00  0.00    -0.300 OA
ATOM     26  C   UNL d   1     -45.538  14.206  23.153  0.00  0.00     0.142 A 
ATOM     27  C   UNL d   1     -46.291  14.091  22.868  0.00  0.00     0.107 A 
ENDBRANCH  21  22
ENDBRANCH   2  21
TORSDOF 5
ENDMDL
MODEL 2
REMARK VINA RESULT:      -4.2      1.750      2.864
REMARK  5 active torsions:
REMARK  status: ('A' for Active; 'I' for Inactive)
REMARK    1  A    between atoms: O_4  and  C_1 
REMARK    2  A    between atoms: C_9  and  C_2 
REMARK    3  A    between atoms: C_5  and  O_4 
REMARK    4  A    between atoms: C_13  and  C_5 
REMARK    5  A    between atoms: N_10  and  C_9 
ROOT
ATOM      1  C   UNL d   1     -47.239  12.389  22.651  0.00  0.00     0.122 A 
ATOM      2  C   UNL d   1     -47.043  13.052  22.212  0.00  0.00     0.043 A 
ATOM      3  C   UNL d   1     -46.650  11.907  22.955  0.00  0.00     0.105 A 
ATOM      4  C   UNL d   1     -45.856  12.091  22.818  0.00  0.00     0.030 A 
ATOM      5  C   UNL d   1     -45.661  12.754  22.378  0.00  0.00     0.059 A 
ATOM      6  C   UNL d   1     -46.250  13.236  22.075  0.00  0.00     0.015 A 
ATOM      7  N   UNL d   1     -46.847  11.250  23.390  0.00  0.00    -0.242 NA
ATOM      8 CL   UNL d   1     -44.867  12.915  22.256  0.00  0.00    -0.082 Cl
ATOM      9  C   UNL d   1     -45.270  11.615  23.117  0.00  0.00     0.004 A 
ATOM     10  C   UNL d   1     -46.258  10.769  23.694  0.00  0.00     0.099 A 
ATOM     11  C   UNL d   1     -45.465  10.952  23.557  0.00  0.00     0.021 A 
ENDROOT
BRANCH   1  12
ATOM     12  O   UNL d   1     -47.949  12.215  22.781  0.00  0.00    -0.271 OA
BRANCH  12  13
ATOM     13  C   UNL d   1     -48.670  11.712  22.402  0.00  0.00     0.300 C 
ATOM     14  O   UNL d   1     -48.397  11.065  21.694  0.00  0.00    -0.259 OA
BRANCH  13  15
ATOM     15  C   UNL d   1     -49.449  11.819  22.655  0.00  0.00     0.064 A 
ATOM     16  C   UNL d   1     -49.646  11.665  23.443  0.00  0.00     0.005 A 
ATOM     17  C   UNL d   1     -50.428  11.773  23.695  0.00  0.00     0.000 A 
ATOM     18  C   UNL d   1     -51.013  12.036  23.163  0.00  0.00     0.000 A 
ATOM     19  C   UNL d   1     -50.802  12.187  22.378  0.00  0.00     0.000 A 
ATOM     20  C   UNL d   1     -50.020  12.078  22.126  0.00  0.00     0.005 A 
ENDBRANCH  13  15
ENDBRANCH  12  13
ENDBRANCH   1  12
BRANCH   2  21
ATOM     21  C   UNL d   1     -47.538  13.688  21.805  0.00  0.00     0.082 C 
BRANCH  21  22
ATOM     22  N   UNL d   1     -47.631  14.416  22.146  0.00  0.00    -0.299 N 
ATOM     23  C   UNL d   1     -46.984  14.871  22.329  0.00  0.00     0.107 A 
ATOM     24  C   UNL d   1     -47.074  15.614  22.677  0.00  0.00     0.142 A 
ATOM     25  O   UNL d   1     -47.826  15.892  22.838  0.00  0.00    -0.300 OA
ATOM     26  C   UNL d   1     -48.482  15.431  22.653  0.00  0.00     0.142 A 
ATOM     27  C   UNL d   1     -48.379  14.700  22.310  0.00  0.00     0.107 A 
ENDBRANCH  21  22
ENDBRANCH   2  21
TORSDOF 5
ENDMDL
MODEL 3
REMARK VINA RESULT:      -4.1      0.781      1.028
REMARK  5 active torsions:
REMARK  status: ('A' for Active; 'I' for Inactive)
REMARK    1  A    between atoms: O_4  and  C_1 
REMARK    2  A    between atoms: C_9  and  C_2 
REMARK    3  A    between atoms: C_5  and  O_4 
REMARK    4  A    between atoms: C_13  and  C_5 
REMARK    5  A    between atoms: N_10  and  C_9 
ROOT
ATOM      1  C   UNL d   1     -48.116  12.904  23.383  0.00  0.00     0.122 A 
ATOM      2  C   UNL d   1     -47.299  12.841  23.382  0.00  0.00     0.043 A 
ATOM      3  C   UNL d   1     -48.581  12.239  23.487  0.00  0.00     0.105 A 
ATOM      4  C   UNL d   1     -48.225  11.501  23.593  0.00  0.00     0.030 A 
ATOM      5  C   UNL d   1     -47.409  11.437  23.592  0.00  0.00     0.059 A 
ATOM      6  C   UNL d   1     -46.944  12.103  23.487  0.00  0.00     0.015 A 
ATOM      7  N   UNL d   1     -49.391  12.305  23.488  0.00  0.00    -0.242 NA
ATOM      8 CL   UNL d   1     -47.079  10.695  23.698  0.00  0.00    -0.082 Cl
ATOM      9  C   UNL d   1     -48.684  10.838  23.697  0.00  0.00     0.004 A 
ATOM     10  C   UNL d   1     -49.856  11.639  23.593  0.00  0.00     0.099 A 
ATOM     11  C   UNL d   1     -49.500  10.901  23.698  0.00  0.00     0.021 A 
ENDROOT
BRANCH   1  12
ATOM     12  O   UNL d   1     -48.446  13.564  23.289  0.00  0.00    -0.271 OA
BRANCH  12  13
ATOM     13  C   UNL d   1     -48.891  14.080  22.618  0.00  0.00     0.300 C 
ATOM     14  O   UNL d   1     -48.678  13.817  21.681  0.00  0.00    -0.259 OA
BRANCH  13  15
ATOM     15  C   UNL d   1     -49.408  14.692  22.820  0.00  0.00     0.064 A 
ATOM     16  C   UNL d   1     -50.157  14.725  22.472  0.00  0.00     0.005 A 
ATOM     17  C   UNL d   1     -50.674  15.339  22.676  0.00  0.00     0.000 A 
ATOM     18  C   UNL d   1     -50.446  15.922  23.227  0.00  0.00     0.000 A 
ATOM     19  C   UNL d   1     -49.693  15.878  23.567  0.00  0.00     0.000 A 
ATOM     20  C   UNL d   1     -49.176  15.263  23.363  0.00  0.00     0.005 A 
ENDBRANCH  13  15
ENDBRANCH  12  13
ENDBRANCH   1  12
BRANCH   2  21
ATOM     21  C   UNL d   1     -46.635  13.445  23.284  0.00  0.00     0.082 C 
BRANCH  21  22
ATOM     22  N   UNL d   1     -46.005  13.286  22.801  0.00  0.00    -0.299 N 
ATOM     23  C   UNL d   1     -45.965  13.605  22.056  0.00  0.00     0.107 A 
ATOM     24  C   UNL d   1     -45.324  13.446  21.561  0.00  0.00     0.142 A 
ATOM     25  O   UNL d   1     -44.724  12.960  21.828  0.00  0.00    -0.300 OA
ATOM     26  C   UNL d   1     -44.763  12.637  22.584  0.00  0.00     0.142 A 
ATOM     27  C   UNL d   1     -45.401  12.802  23.061  0.00  0.00     0.107 A 
ENDBRANCH  21  22
ENDBRANCH   2  21
TORSDOF 5
ENDMDL
MODEL 4
REMARK VINA RESULT:      -3.1      6.178      8.744
REMARK  5 active torsions:
REMARK  status: ('A' for Active; 'I' for Inactive)
REMARK    1  A    between atoms: O_4  and  C_1 
REMARK    2  A    between atoms: C_9  and  C_2 
REMARK    3  A    between atoms: C_5  and  O_4 
REMARK    4  A    between atoms: C_13  and  C_5 
REMARK    5  A    between atoms: N_10  and  C_9 
ROOT
ATOM      1  C   UNL d   1     -40.306  14.467  20.378  0.00  0.00     0.122 A 
ATOM      2  C   UNL d   1     -39.771  14.806  20.897  0.00  0.00     0.043 A 
ATOM      3  C   UNL d   1     -40.172  14.495  19.571  0.00  0.00     0.105 A 
ATOM      4  C   UNL d   1     -39.494  14.866  19.279  0.00  0.00     0.030 A 
ATOM      5  C   UNL d   1     -38.959  15.204  19.798  0.00  0.00     0.059 A 
ATOM      6  C   UNL d   1     -39.093  15.177  20.605  0.00  0.00     0.015 A 
ATOM      7  N   UNL d   1     -40.706  14.158  19.059  0.00  0.00    -0.242 NA
ATOM      8 CL   UNL d   1     -38.294  15.566  19.484  0.00  0.00    -0.082 Cl
ATOM      9  C   UNL d   1     -39.358  14.895  18.478  0.00  0.00     0.004 A 
ATOM     10  C   UNL d   1     -40.572  14.186  18.251  0.00  0.00     0.099 A 
ATOM     11  C   UNL d   1     -39.894  14.557  17.959  0.00  0.00     0.021 A 
ENDROOT
BRANCH   1  12
ATOM     12  O   UNL d   1     -40.919  14.131  20.631  0.00  0.00    -0.271 OA
BRANCH  12  13
ATOM     13  C   UNL d   1     -41.800  14.334  20.943  0.00  0.00     0.300 C 
ATOM     14  O   UNL d   1     -42.007  15.308  21.000  0.00  0.00    -0.259 OA
BRANCH  13  15
ATOM     15  C   UNL d   1     -42.333  13.736  21.144  0.00  0.00     0.064 A 
ATOM     16  C   UNL d   1     -43.146  13.890  21.121  0.00  0.00     0.005 A 
ATOM     17  C   UNL d   1     -43.679  13.289  21.323  0.00  0.00     0.000 A 
ATOM     18  C   UNL d   1     -43.404  12.535  21.549  0.00  0.00     0.000 A 
ATOM     19  C   UNL d   1     -42.589  12.395  21.568  0.00  0.00     0.000 A 
ATOM     20  C   UNL d   1     -42.056  12.997  21.365  0.00  0.00     0.005 A 
ENDBRANCH  13  15
ENDBRANCH  12  13
ENDBRANCH   1  12
BRANCH   2  21
ATOM     21  C   UNL d   1     -39.745  14.875  21.797  0.00  0.00     0.082 C 
BRANCH  21  22
ATOM     22  N   UNL d   1     -39.152  14.522  22.219  0.00  0.00    -0.299 N 
ATOM     23  C   UNL d   1     -39.087  13.713  22.242  0.00  0.00     0.107 A 
ATOM     24  C   UNL d   1     -38.483  13.349  22.671  0.00  0.00     0.142 A 
ATOM     25  O   UNL d   1     -37.944  13.812  23.076  0.00  0.00    -0.300 OA
ATOM     26  C   UNL d   1     -38.009  14.632  23.052  0.00  0.00     0.142 A 
ATOM     27  C   UNL d   1     -38.610  14.978  22.625  0.00  0.00     0.107 A 
ENDBRANCH  21  22
ENDBRANCH   2  21
TORSDOF 5
ENDMDL
