MODEL 1
REMARK VINA RESULT:      -9.4      0.000      0.000
REMARK  5 active torsions:
REMARK  status: ('A' for Active; 'I' for Inactive)
REMARK    1  A    between atoms: C_12  and  N_4 
REMARK    2  A    between atoms: C_10  and  N_6 
REMARK    3  A    between atoms: C_11  and  C_10 
REMARK       I    between atoms: N_14  and  C_11 
REMARK    4  A    between atoms: C_16  and  N_14 
REMARK    5  A    between atoms: C_17  and  C_16 
ROOT
ATOM      1  C   UNL d   1      52.650  32.569  53.329  0.00  0.00     0.172 A 
ATOM      2  C   UNL d   1      52.991  33.319  53.300  0.00  0.00     0.113 A 
ATOM      3  N   UNL d   1      51.835  32.483  53.279  0.00  0.00    -0.206 NA
ATOM      4  N   UNL d   1      53.266  32.019  53.410  0.00  0.00    -0.212 N 
ATOM      5  C   UNL d   1      52.518  33.984  53.220  0.00  0.00     0.271 A 
ATOM      6  N   UNL d   1      51.696  33.904  53.169  0.00  0.00    -0.251 N 
ATOM      7  N   UNL d   1      53.970  32.434  53.429  0.00  0.00    -0.162 NA
ATOM      8  C   UNL d   1      51.354  33.153  53.199  0.00  0.00     0.187 A 
ATOM      9  C   UNL d   1      53.812  33.219  53.363  0.00  0.00     0.129 A 
ATOM     10  O   UNL d   1      52.860  34.735  53.191  0.00  0.00    -0.266 OA
ENDROOT
BRANCH   6  11
ATOM     11  C   UNL d   1      51.208  34.576  53.088  0.00  0.00     0.147 C 
BRANCH  11  12
ATOM     12  C   UNL d   1      50.499  34.526  52.657  0.00  0.00     0.297 C 
ATOM     13  N   UNL d   1      49.834  34.931  52.931  0.00  0.00    -0.205 NA
ATOM     14  O   UNL d   1      50.471  34.080  51.973  0.00  0.00    -0.264 OA
BRANCH  13  15
ATOM     15  C   UNL d   1      49.126  34.881  52.500  0.00  0.00     0.102 C 
BRANCH  15  16
ATOM     16  C   UNL d   1      48.529  35.417  52.660  0.00  0.00     0.019 A 
ATOM     17  C   UNL d   1      48.465  35.766  53.396  0.00  0.00     0.002 A 
ATOM     18  C   UNL d   1      47.857  36.311  53.552  0.00  0.00     0.000 A 
ATOM     19  C   UNL d   1      47.320  36.492  52.952  0.00  0.00     0.000 A 
ATOM     20  C   UNL d   1      47.377  36.147  52.213  0.00  0.00     0.000 A 
ATOM     21  C   UNL d   1      47.987  35.603  52.058  0.00  0.00     0.002 A 
ENDBRANCH  15  16
ENDBRANCH  13  15
ENDBRANCH  11  12
ENDBRANCH   6  11
BRANCH   4  22
ATOM     22  C   UNL d   1      53.222  31.208  53.464  0.00  0.00     0.085 A 
ATOM     23  C   UNL d   1      53.069  30.751  52.784  0.00  0.00     0.019 A 
ATOM     24  C   UNL d   1      53.026  29.937  52.845  0.00  0.00     0.002 A 
ATOM     25  C   UNL d   1      53.135  29.560  53.590  0.00  0.00     0.000 A 
ATOM     26  C   UNL d   1      53.283  30.016  54.245  0.00  0.00     0.002 A 
ATOM     27  C   UNL d   1      53.329  30.835  54.194  0.00  0.00     0.019 A 
ENDBRANCH   4  22
TORSDOF 5
ENDMDL
MODEL 2
REMARK VINA RESULT:      -9.0      1.169      2.084
REMARK  5 active torsions:
REMARK  status: ('A' for Active; 'I' for Inactive)
REMARK    1  A    between atoms: C_12  and  N_4 
REMARK    2  A    between atoms: C_10  and  N_6 
REMARK    3  A    between atoms: C_11  and  C_10 
REMARK       I    between atoms: N_14  and  C_11 
REMARK    4  A    between atoms: C_16  and  N_14 
REMARK    5  A    between atoms: C_17  and  C_16 
ROOT
ATOM      1  C   UNL d   1      52.900  33.017  53.815  0.00  0.00     0.172 A 
ATOM      2  C   UNL d   1      52.507  32.421  53.402  0.00  0.00     0.113 A 
ATOM      3  N   UNL d   1      52.532  33.737  53.952  0.00  0.00    -0.206 NA
ATOM      4  N   UNL d   1      53.651  32.725  54.017  0.00  0.00    -0.212 N 
ATOM      5  C   UNL d   1      51.745  32.545  53.126  0.00  0.00     0.271 A 
ATOM      6  N   UNL d   1      51.369  33.270  53.261  0.00  0.00    -0.251 N 
ATOM      7  N   UNL d   1      53.707  31.962  53.729  0.00  0.00    -0.162 NA
ATOM      8  C   UNL d   1      51.762  33.866  53.674  0.00  0.00     0.187 A 
ATOM      9  C   UNL d   1      53.021  31.771  53.356  0.00  0.00     0.129 A 
ATOM     10  O   UNL d   1      51.352  31.949  52.713  0.00  0.00    -0.266 OA
ENDROOT
BRANCH   6  11
ATOM     11  C   UNL d   1      50.593  33.404  52.983  0.00  0.00     0.147 C 
BRANCH  11  12
ATOM     12  C   UNL d   1      50.387  34.143  52.665  0.00  0.00     0.297 C 
ATOM     13  N   UNL d   1      49.667  34.484  52.878  0.00  0.00    -0.205 NA
ATOM     14  O   UNL d   1      50.897  34.520  52.149  0.00  0.00    -0.264 OA
BRANCH  13  15
ATOM     15  C   UNL d   1      49.461  35.223  52.559  0.00  0.00     0.102 C 
BRANCH  15  16
ATOM     16  C   UNL d   1      48.724  35.534  52.731  0.00  0.00     0.019 A 
ATOM     17  C   UNL d   1      48.545  35.798  53.483  0.00  0.00     0.002 A 
ATOM     18  C   UNL d   1      47.794  36.113  53.651  0.00  0.00     0.000 A 
ATOM     19  C   UNL d   1      47.233  36.154  53.046  0.00  0.00     0.000 A 
ATOM     20  C   UNL d   1      47.405  35.892  52.292  0.00  0.00     0.000 A 
ATOM     21  C   UNL d   1      48.157  35.577  52.125  0.00  0.00     0.002 A 
ENDBRANCH  15  16
ENDBRANCH  13  15
ENDBRANCH  11  12
ENDBRANCH   6  11
BRANCH   4  22
ATOM     22  C   UNL d   1      54.249  33.096  54.426  0.00  0.00     0.085 A 
ATOM     23  C   UNL d   1      54.877  33.455  54.013  0.00  0.00     0.019 A 
ATOM     24  C   UNL d   1      55.475  33.826  54.430  0.00  0.00     0.002 A 
ATOM     25  C   UNL d   1      55.458  33.846  55.272  0.00  0.00     0.000 A 
ATOM     26  C   UNL d   1      54.840  33.493  55.662  0.00  0.00     0.002 A 
ATOM     27  C   UNL d   1      54.234  33.118  55.252  0.00  0.00     0.019 A 
ENDBRANCH   4  22
TORSDOF 5
ENDMDL
MODEL 3
REMARK VINA RESULT:      -7.8      1.600      5.886
REMARK  5 active torsions:
REMARK  status: ('A' for Active; 'I' for Inactive)
REMARK    1  A    between atoms: C_12  and  N_4 
REMARK    2  A    between atoms: C_10  and  N_6 
REMARK    3  A    between atoms: C_11  and  C_10 
REMARK       I    between atoms: N_14  and  C_11 
REMARK    4  A    between atoms: C_16  and  N_14 
REMARK    5  A    between atoms: C_17  and  C_16 
ROOT
ATOM      1  C   UNL d   1      48.988  35.103  52.662  0.00  0.00     0.172 A 
ATOM      2  C   UNL d   1      49.219  34.841  51.914  0.00  0.00     0.113 A 
ATOM      3  N   UNL d   1      49.477  34.984  53.310  0.00  0.00    -0.206 NA
ATOM      4  N   UNL d   1      48.244  35.460  52.581  0.00  0.00    -0.212 N 
ATOM      5  C   UNL d   1      49.938  34.461  51.814  0.00  0.00     0.271 A 
ATOM      6  N   UNL d   1      50.435  34.339  52.465  0.00  0.00    -0.251 N 
ATOM      7  N   UNL d   1      48.029  35.414  51.793  0.00  0.00    -0.162 NA
ATOM      8  C   UNL d   1      50.205  34.600  53.213  0.00  0.00     0.187 A 
ATOM      9  C   UNL d   1      48.613  35.042  51.385  0.00  0.00     0.129 A 
ATOM     10  O   UNL d   1      50.169  34.200  51.067  0.00  0.00    -0.266 OA
ENDROOT
BRANCH   6  11
ATOM     11  C   UNL d   1      51.170  33.952  52.372  0.00  0.00     0.147 C 
BRANCH  11  12
ATOM     12  C   UNL d   1      51.460  33.459  52.974  0.00  0.00     0.297 C 
ATOM     13  N   UNL d   1      52.239  33.554  53.229  0.00  0.00    -0.205 NA
ATOM     14  O   UNL d   1      50.974  32.891  53.304  0.00  0.00    -0.264 OA
BRANCH  13  15
ATOM     15  C   UNL d   1      52.529  33.061  53.832  0.00  0.00     0.102 C 
BRANCH  15  16
ATOM     16  C   UNL d   1      53.306  33.149  54.072  0.00  0.00     0.019 A 
ATOM     17  C   UNL d   1      53.488  33.535  54.769  0.00  0.00     0.002 A 
ATOM     18  C   UNL d   1      54.279  33.622  55.008  0.00  0.00     0.000 A 
ATOM     19  C   UNL d   1      54.877  33.312  54.530  0.00  0.00     0.000 A 
ATOM     20  C   UNL d   1      54.703  32.925  53.832  0.00  0.00     0.000 A 
ATOM     21  C   UNL d   1      53.910  32.839  53.594  0.00  0.00     0.002 A 
ENDBRANCH  15  16
ENDBRANCH  13  15
ENDBRANCH  11  12
ENDBRANCH   6  11
BRANCH   4  22
ATOM     22  C   UNL d   1      47.779  35.805  53.153  0.00  0.00     0.085 A 
ATOM     23  C   UNL d   1      46.974  35.596  53.220  0.00  0.00     0.019 A 
ATOM     24  C   UNL d   1      46.513  35.947  53.797  0.00  0.00     0.002 A 
ATOM     25  C   UNL d   1      46.846  36.514  54.322  0.00  0.00     0.000 A 
ATOM     26  C   UNL d   1      47.631  36.709  54.247  0.00  0.00     0.002 A 
ATOM     27  C   UNL d   1      48.103  36.362  53.670  0.00  0.00     0.019 A 
ENDBRANCH   4  22
TORSDOF 5
ENDMDL
MODEL 4
REMARK VINA RESULT:      -7.6      1.326      5.687
REMARK  5 active torsions:
REMARK  status: ('A' for Active; 'I' for Inactive)
REMARK    1  A    between atoms: C_12  and  N_4 
REMARK    2  A    between atoms: C_10  and  N_6 
REMARK    3  A    between atoms: C_11  and  C_10 
REMARK       I    between atoms: N_14  and  C_11 
REMARK    4  A    between atoms: C_16  and  N_14 
REMARK    5  A    between atoms: C_17  and  C_16 
ROOT
ATOM      1  C   UNL d   1      51.826  33.783  53.000  0.00  0.00     0.172 A 
ATOM      2  C   UNL d   1      52.560  33.990  53.316  0.00  0.00     0.113 A 
ATOM      3  N   UNL d   1      51.672  33.005  52.789  0.00  0.00    -0.206 NA
ATOM      4  N   UNL d   1      51.369  34.474  52.963  0.00  0.00    -0.212 N 
ATOM      5  C   UNL d   1      53.139  33.419  53.422  0.00  0.00     0.271 A 
ATOM      6  N   UNL d   1      52.988  32.633  53.211  0.00  0.00    -0.251 N 
ATOM      7  N   UNL d   1      51.822  35.090  53.254  0.00  0.00    -0.162 NA
ATOM      8  C   UNL d   1      52.254  32.426  52.895  0.00  0.00     0.187 A 
ATOM      9  C   UNL d   1      52.542  34.805  53.469  0.00  0.00     0.129 A 
ATOM     10  O   UNL d   1      53.872  33.625  53.739  0.00  0.00    -0.266 OA
ENDROOT
BRANCH   6  11
ATOM     11  C   UNL d   1      53.572  32.045  53.316  0.00  0.00     0.147 C 
BRANCH  11  12
ATOM     12  C   UNL d   1      53.389  31.247  53.177  0.00  0.00     0.297 C 
ATOM     13  N   UNL d   1      53.438  30.710  53.801  0.00  0.00    -0.205 NA
ATOM     14  O   UNL d   1      53.164  31.006  52.429  0.00  0.00    -0.264 OA
BRANCH  13  15
ATOM     15  C   UNL d   1      53.255  29.911  53.661  0.00  0.00     0.102 C 
BRANCH  15  16
ATOM     16  C   UNL d   1      53.315  29.380  54.280  0.00  0.00     0.019 A 
ATOM     17  C   UNL d   1      53.026  29.565  55.022  0.00  0.00     0.002 A 
ATOM     18  C   UNL d   1      53.090  29.021  55.647  0.00  0.00     0.000 A 
ATOM     19  C   UNL d   1      53.450  28.292  55.506  0.00  0.00     0.000 A 
ATOM     20  C   UNL d   1      53.741  28.099  54.767  0.00  0.00     0.000 A 
ATOM     21  C   UNL d   1      53.677  28.645  54.142  0.00  0.00     0.002 A 
ENDBRANCH  15  16
ENDBRANCH  13  15
ENDBRANCH  11  12
ENDBRANCH   6  11
BRANCH   4  22
ATOM     22  C   UNL d   1      50.606  34.567  52.694  0.00  0.00     0.085 A 
ATOM     23  C   UNL d   1      50.002  34.796  53.221  0.00  0.00     0.019 A 
ATOM     24  C   UNL d   1      49.238  34.887  52.944  0.00  0.00     0.002 A 
ATOM     25  C   UNL d   1      49.060  34.751  52.132  0.00  0.00     0.000 A 
ATOM     26  C   UNL d   1      49.657  34.528  51.629  0.00  0.00     0.002 A 
ATOM     27  C   UNL d   1      50.429  34.434  51.898  0.00  0.00     0.019 A 
ENDBRANCH   4  22
TORSDOF 5
ENDMDL
MODEL 5
REMARK VINA RESULT:      -7.0      2.004      6.606
REMARK  5 active torsions:
REMARK  status: ('A' for Active; 'I' for Inactive)
REMARK    1  A    between atoms: C_12  and  N_4 
REMARK    2  A    between atoms: C_10  and  N_6 
REMARK    3  A    between atoms: C_11  and  C_10 
REMARK       I    between atoms: N_14  and  C_11 
REMARK    4  A    between atoms: C_16  and  N_14 
REMARK    5  A    between atoms: C_17  and  C_16 
ROOT
ATOM      1  C   UNL d   1      46.902  35.831  52.497  0.00  0.00     0.172 A 
ATOM      2  C   UNL d   1      47.252  36.236  53.125  0.00  0.00     0.113 A 
ATOM      3  N   UNL d   1      47.347  35.316  52.039  0.00  0.00    -0.206 NA
ATOM      4  N   UNL d   1      46.104  36.057  52.470  0.00  0.00    -0.212 N 
ATOM      5  C   UNL d   1      48.047  36.127  53.294  0.00  0.00     0.271 A 
ATOM      6  N   UNL d   1      48.500  35.609  52.834  0.00  0.00    -0.251 N 
ATOM      7  N   UNL d   1      45.976  36.593  53.075  0.00  0.00    -0.162 NA
ATOM      8  C   UNL d   1      48.150  35.204  52.207  0.00  0.00     0.187 A 
ATOM      9  C   UNL d   1      46.664  36.706  53.474  0.00  0.00     0.129 A 
ATOM     10  O   UNL d   1      48.397  36.533  53.921  0.00  0.00    -0.266 OA
ENDROOT
BRANCH   6  11
ATOM     11  C   UNL d   1      49.310  35.493  53.000  0.00  0.00     0.147 C 
BRANCH  11  12
ATOM     12  C   UNL d   1      49.722  34.866  52.641  0.00  0.00     0.297 C 
ATOM     13  N   UNL d   1      50.446  34.630  52.959  0.00  0.00    -0.205 NA
ATOM     14  O   UNL d   1      49.407  34.496  51.985  0.00  0.00    -0.264 OA
BRANCH  13  15
ATOM     15  C   UNL d   1      50.858  34.004  52.601  0.00  0.00     0.102 C 
BRANCH  15  16
ATOM     16  C   UNL d   1      51.601  33.809  52.883  0.00  0.00     0.019 A 
ATOM     17  C   UNL d   1      52.164  34.386  53.016  0.00  0.00     0.002 A 
ATOM     18  C   UNL d   1      52.917  34.181  53.303  0.00  0.00     0.000 A 
ATOM     19  C   UNL d   1      53.085  33.387  53.451  0.00  0.00     0.000 A 
ATOM     20  C   UNL d   1      52.527  32.804  53.321  0.00  0.00     0.000 A 
ATOM     21  C   UNL d   1      51.774  33.010  53.034  0.00  0.00     0.002 A 
ENDBRANCH  15  16
ENDBRANCH  13  15
ENDBRANCH  11  12
ENDBRANCH   6  11
BRANCH   4  22
ATOM     22  C   UNL d   1      45.523  35.815  51.954  0.00  0.00     0.085 A 
ATOM     23  C   UNL d   1      45.483  36.139  51.188  0.00  0.00     0.019 A 
ATOM     24  C   UNL d   1      44.897  35.891  50.674  0.00  0.00     0.002 A 
ATOM     25  C   UNL d   1      44.335  35.312  50.917  0.00  0.00     0.000 A 
ATOM     26  C   UNL d   1      44.384  35.004  51.667  0.00  0.00     0.002 A 
ATOM     27  C   UNL d   1      44.971  35.247  52.190  0.00  0.00     0.019 A 
ENDBRANCH   4  22
TORSDOF 5
ENDMDL
MODEL 6
REMARK VINA RESULT:      -6.9      1.631      2.524
REMARK  5 active torsions:
REMARK  status: ('A' for Active; 'I' for Inactive)
REMARK    1  A    between atoms: C_12  and  N_4 
REMARK    2  A    between atoms: C_10  and  N_6 
REMARK    3  A    between atoms: C_11  and  C_10 
REMARK       I    between atoms: N_14  and  C_11 
REMARK    4  A    between atoms: C_16  and  N_14 
REMARK    5  A    between atoms: C_17  and  C_16 
ROOT
ATOM      1  C   UNL d   1      51.512  34.081  53.085  0.00  0.00     0.172 A 
ATOM      2  C   UNL d   1      51.233  34.134  52.310  0.00  0.00     0.113 A 
ATOM      3  N   UNL d   1      51.025  34.283  53.714  0.00  0.00    -0.206 NA
ATOM      4  N   UNL d   1      52.295  33.809  53.049  0.00  0.00    -0.212 N 
ATOM      5  C   UNL d   1      50.468  34.390  52.165  0.00  0.00     0.271 A 
ATOM      6  N   UNL d   1      49.973  34.595  52.796  0.00  0.00    -0.251 N 
ATOM      7  N   UNL d   1      52.485  33.700  52.260  0.00  0.00    -0.162 NA
ATOM      8  C   UNL d   1      50.251  34.542  53.570  0.00  0.00     0.187 A 
ATOM      9  C   UNL d   1      51.849  33.895  51.809  0.00  0.00     0.129 A 
ATOM     10  O   UNL d   1      50.189  34.444  51.390  0.00  0.00    -0.266 OA
ENDROOT
BRANCH   6  11
ATOM     11  C   UNL d   1      49.193  34.857  52.656  0.00  0.00     0.147 C 
BRANCH  11  12
ATOM     12  C   UNL d   1      48.871  35.471  53.114  0.00  0.00     0.297 C 
ATOM     13  N   UNL d   1      48.055  35.592  53.105  0.00  0.00    -0.205 NA
ATOM     14  O   UNL d   1      49.363  35.943  53.563  0.00  0.00    -0.264 OA
BRANCH  13  15
ATOM     15  C   UNL d   1      47.733  36.206  53.563  0.00  0.00     0.102 C 
BRANCH  15  16
ATOM     16  C   UNL d   1      46.921  36.303  53.575  0.00  0.00     0.019 A 
ATOM     17  C   UNL d   1      46.485  36.107  54.238  0.00  0.00     0.002 A 
ATOM     18  C   UNL d   1      45.660  36.208  54.245  0.00  0.00     0.000 A 
ATOM     19  C   UNL d   1      45.289  36.510  53.571  0.00  0.00     0.000 A 
ATOM     20  C   UNL d   1      45.718  36.708  52.905  0.00  0.00     0.000 A 
ATOM     21  C   UNL d   1      46.544  36.606  52.900  0.00  0.00     0.002 A 
ENDBRANCH  15  16
ENDBRANCH  13  15
ENDBRANCH  11  12
ENDBRANCH   6  11
BRANCH   4  22
ATOM     22  C   UNL d   1      52.813  33.663  53.660  0.00  0.00     0.085 A 
ATOM     23  C   UNL d   1      53.158  34.298  54.075  0.00  0.00     0.019 A 
ATOM     24  C   UNL d   1      53.678  34.145  54.688  0.00  0.00     0.002 A 
ATOM     25  C   UNL d   1      53.865  33.352  54.899  0.00  0.00     0.000 A 
ATOM     26  C   UNL d   1      53.522  32.742  54.486  0.00  0.00     0.002 A 
ATOM     27  C   UNL d   1      52.998  32.886  53.869  0.00  0.00     0.019 A 
ENDBRANCH   4  22
TORSDOF 5
ENDMDL
