MODEL 1
REMARK VINA RESULT:      10.6      0.000      0.000
REMARK  3 active torsions:
REMARK  status: ('A' for Active; 'I' for Inactive)
REMARK    1  A    between atoms: C_2  and  C_1 
REMARK    2  A    between atoms: N_5  and  C_2 
REMARK    3  A    between atoms: C_9  and  N_5 
ROOT
ATOM      1  C   UNL d   1      44.523 -15.387  36.894  0.00  0.00     0.139 C 
ATOM      2  S   UNL d   1      44.329 -15.922  37.499  0.00  0.00    -0.057 SA
ENDROOT
BRANCH   1   3
ATOM      3  C   UNL d   1      45.282 -15.058  36.860  0.00  0.00     0.074 A 
ATOM      4  C   UNL d   1      45.555 -14.378  37.310  0.00  0.00     0.129 A 
ATOM      5  O   UNL d   1      46.376 -14.237  37.095  0.00  0.00    -0.211 OA
ATOM      6  C   UNL d   1      45.111 -13.946  37.844  0.00  0.00     0.029 C 
ATOM      7  N   UNL d   1      46.608 -14.825  36.518  0.00  0.00    -0.125 NA
ATOM      8  C   UNL d   1      45.933 -15.334  36.370  0.00  0.00     0.132 A 
ENDBRANCH   1   3
BRANCH   1   9
ATOM      9  N   UNL d   1      43.961 -15.185  36.330  0.00  0.00    -0.235 NA
BRANCH   9  10
ATOM     10  C   UNL d   1      43.218 -15.535  36.348  0.00  0.00     0.082 A 
ATOM     11  C   UNL d   1      43.154 -16.355  36.362  0.00  0.00     0.019 A 
ATOM     12  C   UNL d   1      42.413 -16.700  36.380  0.00  0.00     0.002 A 
ATOM     13  C   UNL d   1      41.742 -16.236  36.384  0.00  0.00     0.000 A 
ATOM     14  C   UNL d   1      41.811 -15.413  36.371  0.00  0.00     0.002 A 
ATOM     15  C   UNL d   1      42.558 -15.064  36.353  0.00  0.00     0.019 A 
ENDBRANCH   9  10
ENDBRANCH   1   9
TORSDOF 3
ENDMDL
MODEL 2
REMARK VINA RESULT:      12.0      7.166      7.726
REMARK  3 active torsions:
REMARK  status: ('A' for Active; 'I' for Inactive)
REMARK    1  A    between atoms: C_2  and  C_1 
REMARK    2  A    between atoms: N_5  and  C_2 
REMARK    3  A    between atoms: C_9  and  N_5 
ROOT
ATOM      1  C   UNL d   1      46.425 -19.177  42.106  0.00  0.00     0.139 C 
ATOM      2  S   UNL d   1      46.647 -19.978  42.125  0.00  0.00    -0.057 SA
ENDROOT
BRANCH   1   3
ATOM      3  C   UNL d   1      46.279 -18.804  41.381  0.00  0.00     0.074 A 
ATOM      4  C   UNL d   1      46.384 -19.157  40.604  0.00  0.00     0.129 A 
ATOM      5  O   UNL d   1      46.164 -18.567  40.019  0.00  0.00    -0.211 OA
ATOM      6  C   UNL d   1      46.646 -19.918  40.455  0.00  0.00     0.029 C 
ATOM      7  N   UNL d   1      45.926 -17.855  40.431  0.00  0.00    -0.125 NA
ATOM      8  C   UNL d   1      45.995 -17.999  41.274  0.00  0.00     0.132 A 
ENDBRANCH   1   3
BRANCH   1   9
ATOM      9  N   UNL d   1      46.353 -18.757  42.808  0.00  0.00    -0.235 NA
BRANCH   9  10
ATOM     10  C   UNL d   1      46.319 -19.157  43.525  0.00  0.00     0.082 A 
ATOM     11  C   UNL d   1      46.552 -18.775  44.215  0.00  0.00     0.019 A 
ATOM     12  C   UNL d   1      46.517 -19.177  44.927  0.00  0.00     0.002 A 
ATOM     13  C   UNL d   1      46.255 -19.949  44.953  0.00  0.00     0.000 A 
ATOM     14  C   UNL d   1      46.023 -20.328  44.257  0.00  0.00     0.002 A 
ATOM     15  C   UNL d   1      46.057 -19.924  43.538  0.00  0.00     0.019 A 
ENDBRANCH   9  10
ENDBRANCH   1   9
TORSDOF 3
ENDMDL
MODEL 3
REMARK VINA RESULT:      12.4      7.188      8.021
REMARK  3 active torsions:
REMARK  status: ('A' for Active; 'I' for Inactive)
REMARK    1  A    between atoms: C_2  and  C_1 
REMARK    2  A    between atoms: N_5  and  C_2 
REMARK    3  A    between atoms: C_9  and  N_5 
ROOT
ATOM      1  C   UNL d   1      45.126 -13.511  44.447  0.00  0.00     0.139 C 
ATOM      2  S   UNL d   1      44.387 -13.579  44.819  0.00  0.00    -0.057 SA
ENDROOT
BRANCH   1   3
ATOM      3  C   UNL d   1      45.229 -12.977  43.822  0.00  0.00     0.074 A 
ATOM      4  C   UNL d   1      44.620 -12.728  43.269  0.00  0.00     0.129 A 
ATOM      5  O   UNL d   1      44.979 -12.173  42.720  0.00  0.00    -0.211 OA
ATOM      6  C   UNL d   1      43.840 -12.976  43.271  0.00  0.00     0.029 C 
ATOM      7  N   UNL d   1      45.803 -12.081  42.930  0.00  0.00    -0.125 NA
ATOM      8  C   UNL d   1      45.961 -12.577  43.612  0.00  0.00     0.132 A 
ENDBRANCH   1   3
BRANCH   1   9
ATOM      9  N   UNL d   1      45.755 -13.975  44.700  0.00  0.00    -0.235 NA
BRANCH   9  10
ATOM     10  C   UNL d   1      45.659 -14.787  44.785  0.00  0.00     0.082 A 
ATOM     11  C   UNL d   1      44.904 -15.100  44.870  0.00  0.00     0.019 A 
ATOM     12  C   UNL d   1      44.811 -15.908  44.955  0.00  0.00     0.002 A 
ATOM     13  C   UNL d   1      45.462 -16.400  44.955  0.00  0.00     0.000 A 
ATOM     14  C   UNL d   1      46.219 -16.080  44.869  0.00  0.00     0.002 A 
ATOM     15  C   UNL d   1      46.314 -15.265  44.784  0.00  0.00     0.019 A 
ENDBRANCH   9  10
ENDBRANCH   1   9
TORSDOF 3
ENDMDL
