MODEL 1
REMARK VINA RESULT:      -2.5      0.000      0.000
REMARK  5 active torsions:
REMARK  status: ('A' for Active; 'I' for Inactive)
REMARK    1  A    between atoms: C_2  and  C_1 
REMARK       I    between atoms: N_3  and  C_1 
REMARK    2  A    between atoms: C_9  and  N_3 
REMARK    3  A    between atoms: N_8  and  C_6 
REMARK    4  A    between atoms: C_18  and  N_8 
REMARK    5  A    between atoms: C_19  and  N_8 
ROOT
ATOM      1  C   UNL d   1      32.631  21.774 -21.128  0.00  0.00     0.064 A 
ATOM      2  C   UNL d   1      32.807  20.304 -21.853  0.00  0.00     0.135 A 
ATOM      3  C   UNL d   1      32.864  21.117 -20.680  0.00  0.00     0.020 A 
ATOM      4  C   UNL d   1      32.487  21.700 -21.926  0.00  0.00     0.020 A 
ATOM      5  C   UNL d   1      32.950  20.378 -21.055  0.00  0.00     0.034 A 
ATOM      6  C   UNL d   1      32.574  20.966 -22.293  0.00  0.00     0.034 A 
ENDROOT
BRANCH   2   7
ATOM      7  N   UNL d   1      32.894  19.575 -22.208  0.00  0.00    -0.365 NA
ATOM      8  C   UNL d   1      32.987  18.841 -22.549  0.00  0.00     0.330 C 
ATOM      9  O   UNL d   1      33.239  18.197 -22.110  0.00  0.00    -0.251 OA
BRANCH   8  10
ATOM     10  C   UNL d   1      32.823  18.741 -23.358  0.00  0.00     0.090 A 
ATOM     11  C   UNL d   1      32.234  18.216 -23.609  0.00  0.00     0.016 A 
ATOM     12  C   UNL d   1      32.072  18.117 -24.397  0.00  0.00     0.054 A 
ATOM     13 BR   UNL d   1      31.490  17.597 -24.640  0.00  0.00    -0.048 Br
ATOM     14  C   UNL d   1      32.490  18.535 -24.950  0.00  0.00     0.106 A 
ATOM     15  N   UNL d   1      33.077  19.060 -24.725  0.00  0.00    -0.242 NA
ATOM     16  C   UNL d   1      33.241  19.160 -23.911  0.00  0.00     0.105 A 
ENDBRANCH   8  10
ENDBRANCH   2   7
BRANCH   1  17
ATOM     17  N   UNL d   1      32.547  22.505 -20.753  0.00  0.00    -0.304 N 
BRANCH  17  18
ATOM     18  C   UNL d   1      31.814  22.762 -20.505  0.00  0.00     0.080 C 
ATOM     19  C   UNL d   1      31.602  23.550 -20.595  0.00  0.00     0.021 C 
ENDBRANCH  17  18
BRANCH  17  20
ATOM     20  C   UNL d   1      33.221  22.977 -20.629  0.00  0.00     0.080 C 
ATOM     21  C   UNL d   1      33.199  23.566 -20.050  0.00  0.00     0.021 C 
ENDBRANCH  17  20
ENDBRANCH   1  17
TORSDOF 5
ENDMDL
MODEL 2
REMARK VINA RESULT:      -1.2      1.984      5.222
REMARK  5 active torsions:
REMARK  status: ('A' for Active; 'I' for Inactive)
REMARK    1  A    between atoms: C_2  and  C_1 
REMARK       I    between atoms: N_3  and  C_1 
REMARK    2  A    between atoms: C_9  and  N_3 
REMARK    3  A    between atoms: N_8  and  C_6 
REMARK    4  A    between atoms: C_18  and  N_8 
REMARK    5  A    between atoms: C_19  and  N_8 
ROOT
ATOM      1  C   UNL d   1      32.240  17.499 -24.113  0.00  0.00     0.064 A 
ATOM      2  C   UNL d   1      32.639  18.974 -23.493  0.00  0.00     0.135 A 
ATOM      3  C   UNL d   1      32.835  17.952 -24.472  0.00  0.00     0.020 A 
ATOM      4  C   UNL d   1      31.850  17.777 -23.455  0.00  0.00     0.020 A 
ATOM      5  C   UNL d   1      33.029  18.696 -24.151  0.00  0.00     0.034 A 
ATOM      6  C   UNL d   1      32.046  18.515 -23.141  0.00  0.00     0.034 A 
ENDROOT
BRANCH   2   7
ATOM      7  N   UNL d   1      32.839  19.704 -23.189  0.00  0.00    -0.365 NA
ATOM      8  C   UNL d   1      33.041  20.438 -22.900  0.00  0.00     0.330 C 
ATOM      9  O   UNL d   1      33.239  21.053 -23.404  0.00  0.00    -0.251 OA
BRANCH   8  10
ATOM     10  C   UNL d   1      33.047  20.568 -22.080  0.00  0.00     0.090 A 
ATOM     11  C   UNL d   1      32.873  21.315 -21.767  0.00  0.00     0.016 A 
ATOM     12  C   UNL d   1      32.878  21.445 -20.967  0.00  0.00     0.054 A 
ATOM     13 BR   UNL d   1      32.706  22.184 -20.664  0.00  0.00    -0.048 Br
ATOM     14  C   UNL d   1      33.056  20.837 -20.462  0.00  0.00     0.106 A 
ATOM     15  N   UNL d   1      33.231  20.090 -20.748  0.00  0.00    -0.242 NA
ATOM     16  C   UNL d   1      33.224  19.961 -21.574  0.00  0.00     0.105 A 
ENDBRANCH   8  10
ENDBRANCH   2   7
BRANCH   1  17
ATOM     17  N   UNL d   1      32.050  16.762 -24.434  0.00  0.00    -0.304 N 
BRANCH  17  18
ATOM     18  C   UNL d   1      32.580  16.145 -24.396  0.00  0.00     0.080 C 
ATOM     19  C   UNL d   1      32.619  15.597 -25.006  0.00  0.00     0.021 C 
ENDBRANCH  17  18
BRANCH  17  20
ATOM     20  C   UNL d   1      31.308  16.658 -24.798  0.00  0.00     0.080 C 
ATOM     21  C   UNL d   1      30.924  15.930 -24.725  0.00  0.00     0.021 C 
ENDBRANCH  17  20
ENDBRANCH   1  17
TORSDOF 5
ENDMDL
MODEL 3
REMARK VINA RESULT:      -1.2      2.396      3.769
REMARK  5 active torsions:
REMARK  status: ('A' for Active; 'I' for Inactive)
REMARK    1  A    between atoms: C_2  and  C_1 
REMARK       I    between atoms: N_3  and  C_1 
REMARK    2  A    between atoms: C_9  and  N_3 
REMARK    3  A    between atoms: N_8  and  C_6 
REMARK    4  A    between atoms: C_18  and  N_8 
REMARK    5  A    between atoms: C_19  and  N_8 
ROOT
ATOM      1  C   UNL d   1      32.682  19.058 -23.362  0.00  0.00     0.064 A 
ATOM      2  C   UNL d   1      32.102  17.644 -23.982  0.00  0.00     0.135 A 
ATOM      3  C   UNL d   1      33.028  18.336 -23.143  0.00  0.00     0.020 A 
ATOM      4  C   UNL d   1      32.056  19.074 -23.882  0.00  0.00     0.020 A 
ATOM      5  C   UNL d   1      32.728  17.628 -23.462  0.00  0.00     0.034 A 
ATOM      6  C   UNL d   1      31.762  18.369 -24.195  0.00  0.00     0.034 A 
ENDROOT
BRANCH   2   7
ATOM      7  N   UNL d   1      31.818  16.943 -24.286  0.00  0.00    -0.365 NA
ATOM      8  C   UNL d   1      31.547  16.241 -24.598  0.00  0.00     0.330 C 
ATOM      9  O   UNL d   1      32.015  15.790 -25.097  0.00  0.00    -0.251 OA
BRANCH   8  10
ATOM     10  C   UNL d   1      30.783  15.975 -24.407  0.00  0.00     0.090 A 
ATOM     11  C   UNL d   1      30.533  15.934 -23.620  0.00  0.00     0.016 A 
ATOM     12  C   UNL d   1      29.789  15.675 -23.431  0.00  0.00     0.054 A 
ATOM     13 BR   UNL d   1      29.546  15.637 -22.651  0.00  0.00    -0.048 Br
ATOM     14  C   UNL d   1      29.278  15.453 -24.019  0.00  0.00     0.106 A 
ATOM     15  N   UNL d   1      29.504  15.485 -24.805  0.00  0.00    -0.242 NA
ATOM     16  C   UNL d   1      30.273  15.752 -24.996  0.00  0.00     0.105 A 
ENDBRANCH   8  10
ENDBRANCH   2   7
BRANCH   1  17
ATOM     17  N   UNL d   1      32.983  19.758 -23.044  0.00  0.00    -0.304 N 
BRANCH  17  18
ATOM     18  C   UNL d   1      33.241  20.358 -23.532  0.00  0.00     0.080 C 
ATOM     19  C   UNL d   1      32.924  21.112 -23.462  0.00  0.00     0.021 C 
ENDBRANCH  17  18
BRANCH  17  20
ATOM     20  C   UNL d   1      33.018  19.846 -22.217  0.00  0.00     0.080 C 
ATOM     21  C   UNL d   1      32.966  20.602 -21.890  0.00  0.00     0.021 C 
ENDBRANCH  17  20
ENDBRANCH   1  17
TORSDOF 5
ENDMDL
MODEL 4
REMARK VINA RESULT:      -0.1      1.872      2.820
REMARK  5 active torsions:
REMARK  status: ('A' for Active; 'I' for Inactive)
REMARK    1  A    between atoms: C_2  and  C_1 
REMARK       I    between atoms: N_3  and  C_1 
REMARK    2  A    between atoms: C_9  and  N_3 
REMARK    3  A    between atoms: N_8  and  C_6 
REMARK    4  A    between atoms: C_18  and  N_8 
REMARK    5  A    between atoms: C_19  and  N_8 
ROOT
ATOM      1  C   UNL d   1      32.608  22.946 -19.037  0.00  0.00     0.064 A 
ATOM      2  C   UNL d   1      32.848  22.315 -20.541  0.00  0.00     0.135 A 
ATOM      3  C   UNL d   1      33.126  22.307 -19.141  0.00  0.00     0.020 A 
ATOM      4  C   UNL d   1      32.215  23.265 -19.674  0.00  0.00     0.020 A 
ATOM      5  C   UNL d   1      33.241  21.995 -19.904  0.00  0.00     0.034 A 
ATOM      6  C   UNL d   1      32.331  22.953 -20.429  0.00  0.00     0.034 A 
ENDROOT
BRANCH   2   7
ATOM      7  N   UNL d   1      32.969  22.000 -21.283  0.00  0.00    -0.365 NA
ATOM      8  C   UNL d   1      33.091  21.699 -22.031  0.00  0.00     0.330 C 
ATOM      9  O   UNL d   1      33.221  22.193 -22.671  0.00  0.00    -0.251 OA
BRANCH   8  10
ATOM     10  C   UNL d   1      33.084  20.877 -22.148  0.00  0.00     0.090 A 
ATOM     11  C   UNL d   1      33.153  20.556 -22.908  0.00  0.00     0.016 A 
ATOM     12  C   UNL d   1      33.146  19.755 -23.026  0.00  0.00     0.054 A 
ATOM     13 BR   UNL d   1      33.215  19.444 -23.779  0.00  0.00    -0.048 Br
ATOM     14  C   UNL d   1      33.071  19.255 -22.393  0.00  0.00     0.106 A 
ATOM     15  N   UNL d   1      33.001  19.549 -21.632  0.00  0.00    -0.242 NA
ATOM     16  C   UNL d   1      33.008  20.377 -21.515  0.00  0.00     0.105 A 
ENDBRANCH   8  10
ENDBRANCH   2   7
BRANCH   1  17
ATOM     17  N   UNL d   1      32.497  23.253 -18.278  0.00  0.00    -0.304 N 
BRANCH  17  18
ATOM     18  C   UNL d   1      33.087  23.199 -17.719  0.00  0.00     0.080 C 
ATOM     19  C   UNL d   1      32.898  23.183 -16.920  0.00  0.00     0.021 C 
ENDBRANCH  17  18
BRANCH  17  20
ATOM     20  C   UNL d   1      31.773  23.619 -18.091  0.00  0.00     0.080 C 
ATOM     21  C   UNL d   1      31.553  23.694 -17.298  0.00  0.00     0.021 C 
ENDBRANCH  17  20
ENDBRANCH   1  17
TORSDOF 5
ENDMDL
