MODEL 1
REMARK VINA RESULT:       5.1      0.000      0.000
REMARK  9 active torsions:
REMARK  status: ('A' for Active; 'I' for Inactive)
REMARK    1  A    between atoms: C_9  and  N_1 
REMARK    2  A    between atoms: C_6  and  C_2 
REMARK    3  A    between atoms: S_11  and  C_3 
REMARK    4  A    between atoms: C_7  and  C_6 
REMARK    5  A    between atoms: C_20  and  C_9 
REMARK       I    between atoms: N_10  and  C_12 
REMARK    6  A    between atoms: C_13  and  N_10 
REMARK    7  A    between atoms: C_19  and  S_11 
REMARK    8  A    between atoms: C_12  and  C_19 
REMARK    9  A    between atoms: C_23  and  C_20 
ROOT
ATOM      1  N   UNL d   1     -41.843-122.714 -50.624  0.00  0.00    -0.268 N 
ATOM      2  C   UNL d   1     -42.323-122.910 -49.981  0.00  0.00     0.172 A 
ATOM      3  C   UNL d   1     -42.001-123.244 -51.235  0.00  0.00     0.201 A 
ATOM      4  N   UNL d   1     -42.777-123.561 -50.192  0.00  0.00    -0.128 NA
ATOM      5  N   UNL d   1     -42.583-123.773 -50.966  0.00  0.00    -0.121 NA
ENDROOT
BRANCH   3   6
ATOM      6  S   UNL d   1     -41.649-123.253 -51.975  0.00  0.00    -0.043 SA
BRANCH   6   7
ATOM      7  C   UNL d   1     -42.078-123.498 -52.636  0.00  0.00     0.101 C 
BRANCH   7   8
ATOM      8  C   UNL d   1     -41.895-123.196 -53.383  0.00  0.00     0.286 C 
ATOM      9  N   UNL d   1     -42.492-122.850 -53.836  0.00  0.00    -0.205 NA
ATOM     10  O   UNL d   1     -41.128-123.237 -53.674  0.00  0.00    -0.265 OA
BRANCH   9  11
ATOM     11  C   UNL d   1     -42.317-122.552 -54.569  0.00  0.00     0.112 A 
ATOM     12  C   UNL d   1     -42.519-121.772 -54.746  0.00  0.00     0.158 A 
ATOM     13  F   UNL d   1     -42.898-121.295 -54.183  0.00  0.00    -0.203 F 
ATOM     14  C   UNL d   1     -42.348-121.454 -55.486  0.00  0.00     0.031 A 
ATOM     15  C   UNL d   1     -41.967-121.930 -56.052  0.00  0.00     0.002 A 
ATOM     16  C   UNL d   1     -41.766-122.711 -55.872  0.00  0.00     0.002 A 
ATOM     17  C   UNL d   1     -41.944-123.019 -55.124  0.00  0.00     0.021 A 
ENDBRANCH   9  11
ENDBRANCH   7   8
ENDBRANCH   6   7
ENDBRANCH   3   6
BRANCH   1  18
ATOM     18  C   UNL d   1     -41.300-122.093 -50.650  0.00  0.00     0.084 C 
BRANCH  18  19
ATOM     19  C   UNL d   1     -41.223-121.637 -51.344  0.00  0.00     0.019 C 
BRANCH  19  20
ATOM     20  C   UNL d   1     -41.196-120.810 -51.298  0.00  0.00     0.002 A 
ATOM     21  C   UNL d   1     -41.189-120.368 -51.987  0.00  0.00     0.000 A 
ATOM     22  C   UNL d   1     -41.163-119.546 -51.936  0.00  0.00     0.000 A 
ATOM     23  C   UNL d   1     -41.143-119.177 -51.193  0.00  0.00     0.000 A 
ATOM     24  C   UNL d   1     -41.151-119.630 -50.501  0.00  0.00     0.000 A 
ATOM     25  C   UNL d   1     -41.177-120.452 -50.564  0.00  0.00     0.000 A 
ENDBRANCH  19  20
ENDBRANCH  18  19
ENDBRANCH   1  18
BRANCH   2  26
ATOM     26  C   UNL d   1     -42.344-122.521 -49.252  0.00  0.00     0.057 C 
BRANCH  26  27
ATOM     27  C   UNL d   1     -42.491-122.942 -48.562  0.00  0.00     0.067 A 
ATOM     28  N   UNL d   1     -41.985-123.014 -47.913  0.00  0.00    -0.303 N 
ATOM     29  C   UNL d   1     -42.357-123.486 -47.347  0.00  0.00     0.080 A 
ATOM     30  C   UNL d   1     -41.238-122.672 -47.848  0.00  0.00     0.100 C 
ATOM     31  C   UNL d   1     -43.093-123.709 -47.641  0.00  0.00     0.021 A 
ATOM     32  C   UNL d   1     -43.179-123.376 -48.388  0.00  0.00     0.019 A 
ENDBRANCH  26  27
ENDBRANCH   2  26
TORSDOF 9
ENDMDL
MODEL 2
REMARK VINA RESULT:       5.9      1.446      5.061
REMARK  9 active torsions:
REMARK  status: ('A' for Active; 'I' for Inactive)
REMARK    1  A    between atoms: C_9  and  N_1 
REMARK    2  A    between atoms: C_6  and  C_2 
REMARK    3  A    between atoms: S_11  and  C_3 
REMARK    4  A    between atoms: C_7  and  C_6 
REMARK    5  A    between atoms: C_20  and  C_9 
REMARK       I    between atoms: N_10  and  C_12 
REMARK    6  A    between atoms: C_13  and  N_10 
REMARK    7  A    between atoms: C_19  and  S_11 
REMARK    8  A    between atoms: C_12  and  C_19 
REMARK    9  A    between atoms: C_23  and  C_20 
ROOT
ATOM      1  N   UNL d   1     -41.682-122.343 -52.753  0.00  0.00    -0.268 N 
ATOM      2  C   UNL d   1     -42.048-122.383 -53.493  0.00  0.00     0.172 A 
ATOM      3  C   UNL d   1     -41.765-123.076 -52.385  0.00  0.00     0.201 A 
ATOM      4  N   UNL d   1     -42.356-123.139 -53.583  0.00  0.00    -0.128 NA
ATOM      5  N   UNL d   1     -42.185-123.572 -52.902  0.00  0.00    -0.121 NA
ENDROOT
BRANCH   3   6
ATOM      6  S   UNL d   1     -41.484-123.283 -51.643  0.00  0.00    -0.043 SA
BRANCH   6   7
ATOM      7  C   UNL d   1     -41.985-123.642 -51.095  0.00  0.00     0.101 C 
BRANCH   7   8
ATOM      8  C   UNL d   1     -41.868-123.518 -50.286  0.00  0.00     0.286 C 
ATOM      9  N   UNL d   1     -42.509-123.589 -49.770  0.00  0.00    -0.205 NA
ATOM     10  O   UNL d   1     -41.124-123.326 -49.996  0.00  0.00    -0.265 OA
BRANCH   9  11
ATOM     11  C   UNL d   1     -42.399-123.468 -48.976  0.00  0.00     0.112 A 
ATOM     12  C   UNL d   1     -42.931-122.993 -48.563  0.00  0.00     0.158 A 
ATOM     13  F   UNL d   1     -43.573-122.640 -48.951  0.00  0.00    -0.203 F 
ATOM     14  C   UNL d   1     -42.833-122.859 -47.756  0.00  0.00     0.031 A 
ATOM     15  C   UNL d   1     -42.189-123.212 -47.364  0.00  0.00     0.002 A 
ATOM     16  C   UNL d   1     -41.658-123.688 -47.781  0.00  0.00     0.002 A 
ATOM     17  C   UNL d   1     -41.768-123.814 -48.592  0.00  0.00     0.021 A 
ENDBRANCH   9  11
ENDBRANCH   7   8
ENDBRANCH   6   7
ENDBRANCH   3   6
BRANCH   1  18
ATOM     18  C   UNL d   1     -41.301-121.683 -52.438  0.00  0.00     0.084 C 
BRANCH  18  19
ATOM     19  C   UNL d   1     -41.461-120.925 -52.747  0.00  0.00     0.019 C 
BRANCH  19  20
ATOM     20  C   UNL d   1     -41.348-120.252 -52.277  0.00  0.00     0.002 A 
ATOM     21  C   UNL d   1     -41.330-120.328 -51.462  0.00  0.00     0.000 A 
ATOM     22  C   UNL d   1     -41.217-119.656 -50.998  0.00  0.00     0.000 A 
ATOM     23  C   UNL d   1     -41.123-118.915 -51.358  0.00  0.00     0.000 A 
ATOM     24  C   UNL d   1     -41.142-118.845 -52.183  0.00  0.00     0.000 A 
ATOM     25  C   UNL d   1     -41.256-119.525 -52.637  0.00  0.00     0.000 A 
ENDBRANCH  19  20
ENDBRANCH  18  19
ENDBRANCH   1  18
BRANCH   2  26
ATOM     26  C   UNL d   1     -42.096-121.770 -54.046  0.00  0.00     0.057 C 
BRANCH  26  27
ATOM     27  C   UNL d   1     -42.451-121.899 -54.777  0.00  0.00     0.067 A 
ATOM     28  N   UNL d   1     -42.075-121.890 -55.512  0.00  0.00    -0.303 N 
ATOM     29  C   UNL d   1     -42.642-122.047 -56.093  0.00  0.00     0.080 A 
ATOM     30  C   UNL d   1     -41.274-121.747 -55.640  0.00  0.00     0.100 C 
ATOM     31  C   UNL d   1     -43.368-122.154 -55.720  0.00  0.00     0.021 A 
ATOM     32  C   UNL d   1     -43.254-122.064 -54.910  0.00  0.00     0.019 A 
ENDBRANCH  26  27
ENDBRANCH   2  26
TORSDOF 9
ENDMDL
