MODEL 1
REMARK VINA RESULT:      23.2      0.000      0.000
REMARK  6 active torsions:
REMARK  status: ('A' for Active; 'I' for Inactive)
REMARK    1  A    between atoms: C_13  and  C_3 
REMARK    2  A    between atoms: S_12  and  C_4 
REMARK    3  A    between atoms: C_8  and  C_6 
REMARK    4  A    between atoms: O_17  and  C_8 
REMARK    5  A    between atoms: C_10  and  C_16 
REMARK    6  A    between atoms: C_16  and  S_12 
ROOT
ATOM      1  O   UNL d   1      14.338  12.929  -1.347  0.00  0.00    -0.263 OA
ATOM      2  N   UNL d   1      14.475  12.434  -0.116  0.00  0.00    -0.120 NA
ATOM      3  C   UNL d   1      14.631  13.084  -0.585  0.00  0.00     0.205 A 
ATOM      4  C   UNL d   1      14.002  12.174  -1.332  0.00  0.00     0.236 A 
ATOM      5  N   UNL d   1      14.086  11.869  -0.576  0.00  0.00    -0.114 NA
ENDROOT
BRANCH   4   6
ATOM      6  S   UNL d   1      13.637  11.779  -1.971  0.00  0.00    -0.039 SA
BRANCH   6   7
ATOM      7  C   UNL d   1      12.962  12.098  -2.323  0.00  0.00     0.064 C 
BRANCH   7   8
ATOM      8  C   UNL d   1      12.986  12.337  -3.111  0.00  0.00     0.107 A 
ATOM      9  O   UNL d   1      13.094  13.076  -3.464  0.00  0.00    -0.301 OA
ATOM     10  C   UNL d   1      13.065  12.972  -4.292  0.00  0.00     0.163 A 
ATOM     11  C   UNL d   1      12.940  12.171  -4.435  0.00  0.00     0.032 A 
ATOM     12  C   UNL d   1      12.891  11.779  -3.720  0.00  0.00     0.027 A 
BRANCH  10  13
ATOM     13  C   UNL d   1      13.147  13.564  -4.865  0.00  0.00     0.319 C 
ATOM     14  O   UNL d   1      13.057  13.375  -5.667  0.00  0.00    -0.257 OA
BRANCH  13  15
ATOM     15  O   UNL d   1      13.316  14.342  -4.646  0.00  0.00    -0.294 OA
ATOM     16  C   UNL d   1      12.802  14.959  -4.846  0.00  0.00     0.185 C 
ENDBRANCH  13  15
ENDBRANCH  10  13
ENDBRANCH   7   8
ENDBRANCH   6   7
ENDBRANCH   4   6
BRANCH   3  17
ATOM     17  C   UNL d   1      15.008  13.795  -0.395  0.00  0.00     0.046 A 
ATOM     18  C   UNL d   1      14.562  14.479  -0.307  0.00  0.00     0.024 A 
ATOM     19  C   UNL d   1      14.930  15.192  -0.118  0.00  0.00     0.099 A 
ATOM     20  N   UNL d   1      15.748  15.225  -0.015  0.00  0.00    -0.242 NA
ATOM     21  C   UNL d   1      16.198  14.533  -0.104  0.00  0.00     0.099 A 
ATOM     22  C   UNL d   1      15.826  13.825  -0.292  0.00  0.00     0.024 A 
ENDBRANCH   3  17
TORSDOF 6
ENDMDL
MODEL 2
REMARK VINA RESULT:      24.0      1.840      4.173
REMARK  6 active torsions:
REMARK  status: ('A' for Active; 'I' for Inactive)
REMARK    1  A    between atoms: C_13  and  C_3 
REMARK    2  A    between atoms: S_12  and  C_4 
REMARK    3  A    between atoms: C_8  and  C_6 
REMARK    4  A    between atoms: O_17  and  C_8 
REMARK    5  A    between atoms: C_10  and  C_16 
REMARK    6  A    between atoms: C_16  and  S_12 
ROOT
ATOM      1  O   UNL d   1      13.469  12.984  -3.109  0.00  0.00    -0.263 OA
ATOM      2  N   UNL d   1      13.156  12.348  -4.238  0.00  0.00    -0.120 NA
ATOM      3  C   UNL d   1      13.302  13.083  -3.917  0.00  0.00     0.205 A 
ATOM      4  C   UNL d   1      13.421  12.175  -2.946  0.00  0.00     0.236 A 
ATOM      5  N   UNL d   1      13.228  11.783  -3.640  0.00  0.00    -0.114 NA
ENDROOT
BRANCH   4   6
ATOM      6  S   UNL d   1      13.545  11.810  -2.206  0.00  0.00    -0.039 SA
BRANCH   6   7
ATOM      7  C   UNL d   1      14.302  11.782  -1.879  0.00  0.00     0.064 C 
BRANCH   7   8
ATOM      8  C   UNL d   1      14.505  12.304  -1.275  0.00  0.00     0.107 A 
ATOM      9  O   UNL d   1      14.905  13.027  -1.276  0.00  0.00    -0.301 OA
ATOM     10  C   UNL d   1      14.945  13.301  -0.489  0.00  0.00     0.163 A 
ATOM     11  C   UNL d   1      14.569  12.742  -0.016  0.00  0.00     0.032 A 
ATOM     12  C   UNL d   1      14.299  12.133  -0.487  0.00  0.00     0.027 A 
BRANCH  10  13
ATOM     13  C   UNL d   1      15.297  14.004  -0.230  0.00  0.00     0.319 C 
ATOM     14  O   UNL d   1      16.098  14.008  -0.015  0.00  0.00    -0.257 OA
BRANCH  13  15
ATOM     15  O   UNL d   1      14.858  14.702  -0.183  0.00  0.00    -0.294 OA
ATOM     16  C   UNL d   1      15.084  15.373  -0.614  0.00  0.00     0.185 C 
ENDBRANCH  13  15
ENDBRANCH  10  13
ENDBRANCH   7   8
ENDBRANCH   6   7
ENDBRANCH   4   6
BRANCH   3  17
ATOM     17  C   UNL d   1      13.301  13.828  -4.278  0.00  0.00     0.046 A 
ATOM     18  C   UNL d   1      13.654  13.923  -5.013  0.00  0.00     0.024 A 
ATOM     19  C   UNL d   1      13.656  14.662  -5.378  0.00  0.00     0.099 A 
ATOM     20  N   UNL d   1      13.304  15.312  -5.010  0.00  0.00    -0.242 NA
ATOM     21  C   UNL d   1      12.948  15.214  -4.266  0.00  0.00     0.099 A 
ATOM     22  C   UNL d   1      12.948  14.475  -3.906  0.00  0.00     0.024 A 
ENDBRANCH   3  17
TORSDOF 6
ENDMDL
