MODEL 1
REMARK VINA RESULT:      -1.5      0.000      0.000
REMARK  2 active torsions:
REMARK  status: ('A' for Active; 'I' for Inactive)
REMARK    1  A    between atoms: C_6  and  C_1 
REMARK    2  A    between atoms: C_8  and  N_3 
REMARK       I    between atoms: N_7  and  C_6 
ROOT
ATOM      1  C   UNL d   1      56.556   0.515  32.685  0.00  0.00     0.124 A 
ATOM      2  C   UNL d   1      56.634   0.278  31.884  0.00  0.00     0.181 A 
ATOM      3  N   UNL d   1      57.452   0.301  31.694  0.00  0.00    -0.276 N 
ATOM      4  C   UNL d   1      57.869   0.545  32.363  0.00  0.00     0.152 A 
ATOM      5  S   UNL d   1      57.325   0.682  32.986  0.00  0.00    -0.051 SA
ATOM      6  S   UNL d   1      58.680   0.640  32.414  0.00  0.00    -0.052 SA
ATOM      7  N   UNL d   1      55.965   0.080  31.448  0.00  0.00    -0.128 N 
ENDROOT
BRANCH   1   8
ATOM      8  C   UNL d   1      55.820   0.553  33.048  0.00  0.00     0.274 C 
ATOM      9  N   UNL d   1      55.774   0.593  33.868  0.00  0.00    -0.267 N 
ATOM     10  C   UNL d   1      56.468   0.595  34.339  0.00  0.00     0.110 A 
ATOM     11  C   UNL d   1      55.027   0.633  34.247  0.00  0.00     0.110 A 
ATOM     12  C   UNL d   1      56.410   0.636  35.171  0.00  0.00     0.142 A 
ATOM     13  O   UNL d   1      55.668   0.674  35.528  0.00  0.00    -0.300 OA
ATOM     14  C   UNL d   1      54.981   0.673  35.067  0.00  0.00     0.142 A 
ATOM     15  O   UNL d   1      55.137   0.552  32.598  0.00  0.00    -0.266 OA
ENDBRANCH   1   8
BRANCH   3  16
ATOM     16  C   UNL d   1      57.775   0.105  30.949  0.00  0.00     0.067 A 
ATOM     17  C   UNL d   1      57.862   0.682  30.374  0.00  0.00     0.018 A 
ATOM     18  C   UNL d   1      58.188   0.475  29.629  0.00  0.00     0.002 A 
ATOM     19  C   UNL d   1      58.415  -0.294  29.482  0.00  0.00     0.000 A 
ATOM     20  C   UNL d   1      58.324  -0.875  30.069  0.00  0.00     0.002 A 
ATOM     21  C   UNL d   1      58.735  -0.493  28.748  0.00  0.00     0.000 C 
ATOM     22  C   UNL d   1      58.005  -0.679  30.802  0.00  0.00     0.018 A 
ENDBRANCH   3  16
TORSDOF 2
ENDMDL
MODEL 2
REMARK VINA RESULT:      -1.4      1.720      2.487
REMARK  2 active torsions:
REMARK  status: ('A' for Active; 'I' for Inactive)
REMARK    1  A    between atoms: C_6  and  C_1 
REMARK    2  A    between atoms: C_8  and  N_3 
REMARK       I    between atoms: N_7  and  C_6 
ROOT
ATOM      1  C   UNL d   1      57.573  -0.431  30.864  0.00  0.00     0.124 A 
ATOM      2  C   UNL d   1      58.058  -1.045  30.561  0.00  0.00     0.181 A 
ATOM      3  N   UNL d   1      58.642  -0.687  30.075  0.00  0.00    -0.276 N 
ATOM      4  C   UNL d   1      58.522   0.129  30.078  0.00  0.00     0.152 A 
ATOM      5  S   UNL d   1      57.861   0.303  30.564  0.00  0.00    -0.051 SA
ATOM      6  S   UNL d   1      58.970   0.681  29.675  0.00  0.00    -0.052 SA
ATOM      7  N   UNL d   1      57.902  -1.827  30.765  0.00  0.00    -0.128 N 
ENDROOT
BRANCH   1   8
ATOM      8  C   UNL d   1      56.942  -0.593  31.364  0.00  0.00     0.274 C 
ATOM      9  N   UNL d   1      56.901  -0.225  32.098  0.00  0.00    -0.267 N 
ATOM     10  C   UNL d   1      57.496   0.314  32.344  0.00  0.00     0.110 A 
ATOM     11  C   UNL d   1      56.261  -0.384  32.615  0.00  0.00     0.110 A 
ATOM     12  C   UNL d   1      57.445   0.682  33.091  0.00  0.00     0.142 A 
ATOM     13  O   UNL d   1      56.808   0.514  33.588  0.00  0.00    -0.300 OA
ATOM     14  C   UNL d   1      56.220  -0.017  33.350  0.00  0.00     0.142 A 
ATOM     15  O   UNL d   1      56.357  -1.117  31.134  0.00  0.00    -0.266 OA
ENDBRANCH   1   8
BRANCH   3  16
ATOM     16  C   UNL d   1      59.240  -1.101  29.664  0.00  0.00     0.067 A 
ATOM     17  C   UNL d   1      59.040  -1.670  29.110  0.00  0.00     0.018 A 
ATOM     18  C   UNL d   1      59.648  -2.080  28.702  0.00  0.00     0.002 A 
ATOM     19  C   UNL d   1      60.430  -1.911  28.858  0.00  0.00     0.000 A 
ATOM     20  C   UNL d   1      60.627  -1.333  29.421  0.00  0.00     0.002 A 
ATOM     21  C   UNL d   1      61.025  -2.317  28.455  0.00  0.00     0.000 C 
ATOM     22  C   UNL d   1      60.036  -0.927  29.825  0.00  0.00     0.018 A 
ENDBRANCH   3  16
TORSDOF 2
ENDMDL
MODEL 3
REMARK VINA RESULT:      -1.0     10.119     10.966
REMARK  2 active torsions:
REMARK  status: ('A' for Active; 'I' for Inactive)
REMARK    1  A    between atoms: C_6  and  C_1 
REMARK    2  A    between atoms: C_8  and  N_3 
REMARK       I    between atoms: N_7  and  C_6 
ROOT
ATOM      1  C   UNL d   1      59.286  -9.709  31.509  0.00  0.00     0.124 A 
ATOM      2  C   UNL d   1      59.854  -9.529  32.100  0.00  0.00     0.181 A 
ATOM      3  N   UNL d   1      59.456  -9.525  32.839  0.00  0.00    -0.276 N 
ATOM      4  C   UNL d   1      58.660  -9.699  32.708  0.00  0.00     0.152 A 
ATOM      5  S   UNL d   1      58.540  -9.816  31.887  0.00  0.00    -0.051 SA
ATOM      6  S   UNL d   1      58.080  -9.751  33.282  0.00  0.00    -0.052 SA
ATOM      7  N   UNL d   1      60.638  -9.396  31.887  0.00  0.00    -0.128 N 
ENDROOT
BRANCH   1   8
ATOM      8  C   UNL d   1      59.496  -9.757  30.717  0.00  0.00     0.274 C 
ATOM      9  N   UNL d   1      58.909  -9.745  30.141  0.00  0.00    -0.267 N 
ATOM     10  C   UNL d   1      58.099  -9.685  30.352  0.00  0.00     0.110 A 
ATOM     11  C   UNL d   1      59.113  -9.793  29.329  0.00  0.00     0.110 A 
ATOM     12  C   UNL d   1      57.512  -9.674  29.759  0.00  0.00     0.142 A 
ATOM     13  O   UNL d   1      57.729  -9.722  28.965  0.00  0.00    -0.300 OA
ATOM     14  C   UNL d   1      58.527  -9.781  28.753  0.00  0.00     0.142 A 
ATOM     15  O   UNL d   1      60.282  -9.815  30.500  0.00  0.00    -0.266 OA
ENDBRANCH   1   8
BRANCH   3  16
ATOM     16  C   UNL d   1      59.817  -9.370  33.576  0.00  0.00     0.067 A 
ATOM     17  C   UNL d   1      60.456  -9.817  33.823  0.00  0.00     0.018 A 
ATOM     18  C   UNL d   1      60.812  -9.653  34.565  0.00  0.00     0.002 A 
ATOM     19  C   UNL d   1      60.522  -9.053  35.033  0.00  0.00     0.000 A 
ATOM     20  C   UNL d   1      59.873  -8.602  34.777  0.00  0.00     0.002 A 
ATOM     21  C   UNL d   1      60.875  -8.894  35.762  0.00  0.00     0.000 C 
ATOM     22  C   UNL d   1      59.519  -8.757  34.051  0.00  0.00     0.018 A 
ENDBRANCH   3  16
TORSDOF 2
ENDMDL
MODEL 4
REMARK VINA RESULT:      -0.6      1.620      2.162
REMARK  2 active torsions:
REMARK  status: ('A' for Active; 'I' for Inactive)
REMARK    1  A    between atoms: C_6  and  C_1 
REMARK    2  A    between atoms: C_8  and  N_3 
REMARK       I    between atoms: N_7  and  C_6 
ROOT
ATOM      1  C   UNL d   1      57.685   0.424  31.875  0.00  0.00     0.124 A 
ATOM      2  C   UNL d   1      58.473   0.327  31.602  0.00  0.00     0.181 A 
ATOM      3  N   UNL d   1      58.462   0.411  30.767  0.00  0.00    -0.276 N 
ATOM      4  C   UNL d   1      57.686   0.556  30.529  0.00  0.00     0.152 A 
ATOM      5  S   UNL d   1      57.192   0.567  31.206  0.00  0.00    -0.051 SA
ATOM      6  S   UNL d   1      57.434   0.671  29.759  0.00  0.00    -0.052 SA
ATOM      7  N   UNL d   1      59.077   0.180  32.142  0.00  0.00    -0.128 N 
ENDROOT
BRANCH   1   8
ATOM      8  C   UNL d   1      57.501   0.375  32.673  0.00  0.00     0.274 C 
ATOM      9  N   UNL d   1      56.800   0.016  32.907  0.00  0.00    -0.267 N 
ATOM     10  C   UNL d   1      56.269  -0.302  32.340  0.00  0.00     0.110 A 
ATOM     11  C   UNL d   1      56.603  -0.040  33.720  0.00  0.00     0.110 A 
ATOM     12  C   UNL d   1      55.559  -0.665  32.588  0.00  0.00     0.142 A 
ATOM     13  O   UNL d   1      55.381  -0.711  33.391  0.00  0.00    -0.300 OA
ATOM     14  C   UNL d   1      55.902  -0.399  33.954  0.00  0.00     0.142 A 
ATOM     15  O   UNL d   1      58.012   0.681  33.235  0.00  0.00    -0.266 OA
ENDBRANCH   1   8
BRANCH   3  16
ATOM     16  C   UNL d   1      59.133   0.354  30.272  0.00  0.00     0.067 A 
ATOM     17  C   UNL d   1      59.848   0.673  30.510  0.00  0.00     0.018 A 
ATOM     18  C   UNL d   1      60.516   0.611  30.006  0.00  0.00     0.002 A 
ATOM     19  C   UNL d   1      60.449   0.235  29.286  0.00  0.00     0.000 A 
ATOM     20  C   UNL d   1      59.721  -0.087  29.050  0.00  0.00     0.002 A 
ATOM     21  C   UNL d   1      61.108   0.175  28.793  0.00  0.00     0.000 C 
ATOM     22  C   UNL d   1      59.062  -0.030  29.539  0.00  0.00     0.018 A 
ENDBRANCH   3  16
TORSDOF 2
ENDMDL
