MODEL 1
REMARK VINA RESULT:       1.8      0.000      0.000
REMARK  5 active torsions:
REMARK  status: ('A' for Active; 'I' for Inactive)
REMARK       I    between atoms: C_7  and  N_1 
REMARK    1  A    between atoms: C_11  and  C_3 
REMARK    2  A    between atoms: C_14  and  C_5 
REMARK    3  A    between atoms: C_18  and  C_7 
REMARK    4  A    between atoms: C_17  and  O_19 
REMARK    5  A    between atoms: O_19  and  C_18 
ROOT
ATOM      1  N   UNL d   1      58.500  -1.327  29.851  0.00  0.00    -0.193 N 
ATOM      2  N   UNL d   1      58.952  -0.637  29.843  0.00  0.00    -0.162 NA
ATOM      3  C   UNL d   1      59.591  -0.765  29.332  0.00  0.00     0.109 A 
ATOM      4  C   UNL d   1      58.859  -1.875  29.348  0.00  0.00     0.088 A 
ATOM      5  C   UNL d   1      59.532  -1.522  29.031  0.00  0.00     0.041 A 
ATOM      6  C   UNL d   1      57.807  -1.527  30.252  0.00  0.00     0.305 C 
ATOM      7  O   UNL d   1      57.472  -2.275  30.150  0.00  0.00    -0.263 OA
ENDROOT
BRANCH   4   8
ATOM      8  C   UNL d   1      58.617  -2.643  29.171  0.00  0.00     0.018 A 
ATOM      9  C   UNL d   1      58.988  -3.280  29.532  0.00  0.00     0.004 A 
ATOM     10  C   UNL d   1      58.747  -4.053  29.357  0.00  0.00     0.030 A 
ATOM     11  C   UNL d   1      58.143  -4.175  28.825  0.00  0.00     0.140 A 
ATOM     12  C   UNL d   1      57.769  -3.530  28.460  0.00  0.00     0.030 A 
ATOM     13  F   UNL d   1      57.904  -4.951  28.651  0.00  0.00    -0.204 F 
ATOM     14  C   UNL d   1      58.006  -2.770  28.634  0.00  0.00     0.004 A 
ENDBRANCH   4   8
BRANCH   6  15
ATOM     15  C   UNL d   1      57.448  -0.979  30.754  0.00  0.00     0.185 C 
BRANCH  15  16
ATOM     16  O   UNL d   1      57.170  -1.219  31.493  0.00  0.00    -0.300 OA
BRANCH  16  17
ATOM     17  C   UNL d   1      56.985  -0.655  32.066  0.00  0.00     0.100 A 
ATOM     18  C   UNL d   1      56.343  -0.774  32.571  0.00  0.00     0.029 A 
ATOM     19  C   UNL d   1      56.158  -0.210  33.144  0.00  0.00     0.059 A 
ATOM     20  C   UNL d   1      55.890  -1.456  32.501  0.00  0.00     0.021 A 
ATOM     21  C   UNL d   1      55.520  -0.327  33.647  0.00  0.00     0.265 A 
ATOM     22  C   UNL d   1      56.615   0.473  33.212  0.00  0.00     0.005 A 
ATOM     23  O   UNL d   1      55.335   0.237  34.220  0.00  0.00    -0.267 OA
ATOM     24  N   UNL d   1      55.062  -1.011  33.579  0.00  0.00    -0.270 N 
ATOM     25  C   UNL d   1      55.247  -1.575  33.006  0.00  0.00     0.083 A 
ATOM     26  C   UNL d   1      54.414  -1.128  34.091  0.00  0.00     0.102 C 
ATOM     27  C   UNL d   1      57.257   0.594  32.708  0.00  0.00     0.002 A 
ATOM     28  C   UNL d   1      57.442   0.030  32.135  0.00  0.00     0.025 A 
ENDBRANCH  16  17
ENDBRANCH  15  16
ENDBRANCH   6  15
BRANCH   3  29
ATOM     29  C   UNL d   1      60.163  -0.203  29.180  0.00  0.00     0.049 A 
ATOM     30  S   UNL d   1      60.628   0.155  29.772  0.00  0.00    -0.085 SA
ATOM     31  C   UNL d   1      61.133   0.682  29.408  0.00  0.00     0.035 A 
ATOM     32  C   UNL d   1      60.993   0.660  28.597  0.00  0.00     0.007 A 
ATOM     33  C   UNL d   1      60.395   0.115  28.455  0.00  0.00     0.009 A 
ENDBRANCH   3  29
TORSDOF 5
ENDMDL
