MODEL 1
REMARK VINA RESULT:      61.3      0.000      0.000
REMARK  4 active torsions:
REMARK  status: ('A' for Active; 'I' for Inactive)
REMARK    1  A    between atoms: N_6  and  C_1 
REMARK       I    between atoms: C_7  and  N_8 
REMARK    2  A    between atoms: C_9  and  C_7 
REMARK    3  A    between atoms: O_20  and  C_10 
REMARK    4  A    between atoms: O_19  and  C_11 
ROOT
ATOM      1  C   UNL d   1      14.200  14.306  -3.019  0.00  0.00     0.180 A 
ATOM      2  N   UNL d   1      13.710  13.843  -3.496  0.00  0.00    -0.220 NA
ATOM      3  S   UNL d   1      14.408  13.846  -2.357  0.00  0.00    -0.046 SA
ATOM      4  C   UNL d   1      13.615  13.110  -3.137  0.00  0.00     0.114 A 
ATOM      5  C   UNL d   1      14.048  13.118  -2.435  0.00  0.00     0.074 A 
ATOM      6  C   UNL d   1      13.199  12.446  -3.352  0.00  0.00     0.112 A 
ATOM      7  C   UNL d   1      14.059  12.462  -1.958  0.00  0.00     0.102 A 
ATOM      8  C   UNL d   1      13.638  11.787  -2.174  0.00  0.00     0.027 A 
ATOM      9  C   UNL d   1      13.205  11.779  -2.876  0.00  0.00     0.028 A 
ENDROOT
BRANCH   1  10
ATOM     10  N   UNL d   1      14.433  15.077  -3.179  0.00  0.00    -0.281 N 
ATOM     11  C   UNL d   1      14.662  15.571  -2.557  0.00  0.00     0.101 A 
ATOM     12  C   UNL d   1      14.898  16.349  -2.701  0.00  0.00     0.102 A 
ATOM     13  N   UNL d   1      14.902  16.626  -3.483  0.00  0.00    -0.272 N 
ATOM     14  C   UNL d   1      15.139  17.410  -3.633  0.00  0.00     0.240 C 
ATOM     15  C   UNL d   1      14.672  16.132  -4.105  0.00  0.00     0.102 A 
ATOM     16  O   UNL d   1      15.366  17.899  -3.017  0.00  0.00    -0.272 OA
ATOM     17  C   UNL d   1      14.440  15.361  -3.945  0.00  0.00     0.101 A 
BRANCH  14  18
ATOM     18  C   UNL d   1      15.142  17.684  -4.412  0.00  0.00     0.072 C 
ATOM     19  C   UNL d   1      14.746  18.380  -4.582  0.00  0.00     0.009 C 
ATOM     20  C   UNL d   1      15.531  17.278  -5.026  0.00  0.00     0.009 C 
ATOM     21  C   UNL d   1      15.166  17.927  -5.203  0.00  0.00     0.009 C 
ENDBRANCH  14  18
ENDBRANCH   1  10
BRANCH   6  22
ATOM     22  O   UNL d   1      12.769  12.440  -4.052  0.00  0.00    -0.327 OA
ATOM     23  C   UNL d   1      12.939  11.882  -4.627  0.00  0.00     0.181 C 
ENDBRANCH   6  22
BRANCH   7  24
ATOM     24  O   UNL d   1      14.489  12.468  -1.258  0.00  0.00    -0.328 OA
ATOM     25  C   UNL d   1      14.223  12.039  -0.603  0.00  0.00     0.181 C 
ENDBRANCH   7  24
TORSDOF 4
ENDMDL
MODEL 2
REMARK VINA RESULT:      61.3      1.449      2.319
REMARK  4 active torsions:
REMARK  status: ('A' for Active; 'I' for Inactive)
REMARK    1  A    between atoms: N_6  and  C_1 
REMARK       I    between atoms: C_7  and  N_8 
REMARK    2  A    between atoms: C_9  and  C_7 
REMARK    3  A    between atoms: O_20  and  C_10 
REMARK    4  A    between atoms: O_19  and  C_11 
ROOT
ATOM      1  C   UNL d   1      13.901  14.089  -3.200  0.00  0.00     0.180 A 
ATOM      2  N   UNL d   1      13.788  14.012  -4.016  0.00  0.00    -0.220 NA
ATOM      3  S   UNL d   1      13.623  13.390  -2.844  0.00  0.00    -0.046 SA
ATOM      4  C   UNL d   1      13.447  13.280  -4.162  0.00  0.00     0.114 A 
ATOM      5  C   UNL d   1      13.347  12.900  -3.436  0.00  0.00     0.074 A 
ATOM      6  C   UNL d   1      13.216  12.911  -4.849  0.00  0.00     0.112 A 
ATOM      7  C   UNL d   1      13.019  12.159  -3.407  0.00  0.00     0.102 A 
ATOM      8  C   UNL d   1      12.785  11.783  -4.103  0.00  0.00     0.027 A 
ATOM      9  C   UNL d   1      12.884  12.163  -4.828  0.00  0.00     0.028 A 
ENDROOT
BRANCH   1  10
ATOM     10  N   UNL d   1      14.228  14.741  -2.823  0.00  0.00    -0.281 N 
ATOM     11  C   UNL d   1      14.301  15.455  -3.233  0.00  0.00     0.101 A 
ATOM     12  C   UNL d   1      14.628  16.120  -2.867  0.00  0.00     0.102 A 
ATOM     13  N   UNL d   1      14.882  16.057  -2.080  0.00  0.00    -0.272 N 
ATOM     14  C   UNL d   1      15.212  16.725  -1.708  0.00  0.00     0.240 C 
ATOM     15  C   UNL d   1      14.808  15.342  -1.670  0.00  0.00     0.102 A 
ATOM     16  O   UNL d   1      15.285  17.431  -2.113  0.00  0.00    -0.272 OA
ATOM     17  C   UNL d   1      14.481  14.691  -2.048  0.00  0.00     0.101 A 
BRANCH  14  18
ATOM     18  C   UNL d   1      15.464  16.660  -0.924  0.00  0.00     0.072 C 
ATOM     19  C   UNL d   1      15.789  17.320  -0.562  0.00  0.00     0.009 C 
ATOM     20  C   UNL d   1      15.400  15.951  -0.491  0.00  0.00     0.009 C 
ATOM     21  C   UNL d   1      15.705  16.557  -0.138  0.00  0.00     0.009 C 
ENDBRANCH  14  18
ENDBRANCH   1  10
BRANCH   6  22
ATOM     22  O   UNL d   1      13.316  13.291  -5.571  0.00  0.00    -0.327 OA
ATOM     23  C   UNL d   1      13.346  12.849  -6.260  0.00  0.00     0.181 C 
ENDBRANCH   6  22
BRANCH   7  24
ATOM     24  O   UNL d   1      12.919  11.780  -2.685  0.00  0.00    -0.328 OA
ATOM     25  C   UNL d   1      13.530  11.779  -2.128  0.00  0.00     0.181 C 
ENDBRANCH   7  24
TORSDOF 4
ENDMDL
MODEL 3
REMARK VINA RESULT:      62.3      1.292      2.218
REMARK  4 active torsions:
REMARK  status: ('A' for Active; 'I' for Inactive)
REMARK    1  A    between atoms: N_6  and  C_1 
REMARK       I    between atoms: C_7  and  N_8 
REMARK    2  A    between atoms: C_9  and  C_7 
REMARK    3  A    between atoms: O_20  and  C_10 
REMARK    4  A    between atoms: O_19  and  C_11 
ROOT
ATOM      1  C   UNL d   1      13.736  14.378  -4.265  0.00  0.00     0.180 A 
ATOM      2  N   UNL d   1      13.876  14.063  -3.514  0.00  0.00    -0.220 NA
ATOM      3  S   UNL d   1      13.402  13.773  -4.729  0.00  0.00    -0.046 SA
ATOM      4  C   UNL d   1      13.635  13.279  -3.512  0.00  0.00     0.114 A 
ATOM      5  C   UNL d   1      13.343  13.105  -4.264  0.00  0.00     0.074 A 
ATOM      6  C   UNL d   1      13.641  12.706  -2.935  0.00  0.00     0.112 A 
ATOM      7  C   UNL d   1      13.062  12.362  -4.429  0.00  0.00     0.102 A 
ATOM      8  C   UNL d   1      13.067  11.780  -3.845  0.00  0.00     0.027 A 
ATOM      9  C   UNL d   1      13.359  11.954  -3.093  0.00  0.00     0.028 A 
ENDROOT
BRANCH   1  10
ATOM     10  N   UNL d   1      13.899  15.148  -4.499  0.00  0.00    -0.281 N 
ATOM     11  C   UNL d   1      14.513  15.564  -4.133  0.00  0.00     0.101 A 
ATOM     12  C   UNL d   1      14.690  16.339  -4.357  0.00  0.00     0.102 A 
ATOM     13  N   UNL d   1      14.240  16.693  -4.957  0.00  0.00    -0.272 N 
ATOM     14  C   UNL d   1      14.415  17.474  -5.186  0.00  0.00     0.240 C 
ATOM     15  C   UNL d   1      13.626  16.276  -5.324  0.00  0.00     0.102 A 
ATOM     16  O   UNL d   1      15.022  17.886  -4.824  0.00  0.00    -0.272 OA
ATOM     17  C   UNL d   1      13.463  15.507  -5.090  0.00  0.00     0.101 A 
BRANCH  14  18
ATOM     18  C   UNL d   1      13.966  17.824  -5.784  0.00  0.00     0.072 C 
ATOM     19  C   UNL d   1      13.272  17.456  -6.017  0.00  0.00     0.009 C 
ATOM     20  C   UNL d   1      14.192  18.534  -6.155  0.00  0.00     0.009 C 
ATOM     21  C   UNL d   1      13.542  18.204  -6.385  0.00  0.00     0.009 C 
ENDBRANCH  14  18
ENDBRANCH   1  10
BRANCH   6  22
ATOM     22  O   UNL d   1      13.932  12.881  -2.187  0.00  0.00    -0.327 OA
ATOM     23  C   UNL d   1      14.339  12.309  -1.767  0.00  0.00     0.181 C 
ENDBRANCH   6  22
BRANCH   7  24
ATOM     24  O   UNL d   1      12.772  12.187  -5.177  0.00  0.00    -0.328 OA
ATOM     25  C   UNL d   1      13.291  11.986  -5.788  0.00  0.00     0.181 C 
ENDBRANCH   7  24
TORSDOF 4
ENDMDL
