MODEL 1
REMARK VINA RESULT:      46.2      0.000      0.000
REMARK  5 active torsions:
REMARK  status: ('A' for Active; 'I' for Inactive)
REMARK    1  A    between atoms: C_10  and  N_1 
REMARK    2  A    between atoms: S_7  and  C_4 
REMARK    3  A    between atoms: C_9  and  C_6 
REMARK    4  A    between atoms: C_8  and  S_7 
REMARK    5  A    between atoms: N_14  and  C_13 
ROOT
ATOM      1  N   UNL d   1      13.811  13.565  -3.534  0.00  0.00    -0.241 N 
ATOM      2  C   UNL d   1      13.246  13.146  -3.918  0.00  0.00     0.268 A 
ATOM      3  C   UNL d   1      14.167  13.112  -2.955  0.00  0.00     0.273 A 
ATOM      4  C   UNL d   1      13.803  12.371  -2.980  0.00  0.00     0.091 A 
ATOM      5  C   UNL d   1      13.229  12.394  -3.582  0.00  0.00     0.072 A 
ATOM      6  O   UNL d   1      12.784  13.440  -4.532  0.00  0.00    -0.267 OA
ATOM      7  O   UNL d   1      14.782  13.363  -2.439  0.00  0.00    -0.266 OA
ENDROOT
BRANCH   4   8
ATOM      8  S   UNL d   1      14.045  11.795  -2.460  0.00  0.00    -0.082 SA
BRANCH   8   9
ATOM      9  C   UNL d   1      13.827  11.821  -1.647  0.00  0.00     0.035 A 
ATOM     10  C   UNL d   1      14.415  11.843  -1.043  0.00  0.00     0.070 A 
ATOM     11  C   UNL d   1      14.157  11.869  -0.263  0.00  0.00     0.007 A 
ATOM     12  C   UNL d   1      13.340  11.873  -0.086  0.00  0.00     0.000 A 
ATOM     13  C   UNL d   1      12.769  11.850  -0.703  0.00  0.00     0.001 A 
ATOM     14  C   UNL d   1      13.018  11.825  -1.479  0.00  0.00     0.007 A 
BRANCH  10  15
ATOM     15  C   UNL d   1      15.199  11.840  -1.222  0.00  0.00     0.211 C 
ATOM     16  O   UNL d   1      15.437  11.785  -2.004  0.00  0.00    -0.644 OA
ATOM     17  O   UNL d   1      15.788  11.888  -0.654  0.00  0.00    -0.644 OA
ENDBRANCH  10  15
ENDBRANCH   8   9
ENDBRANCH   4   8
BRANCH   1  18
ATOM     18  C   UNL d   1      13.967  14.381  -3.756  0.00  0.00     0.070 A 
ATOM     19  C   UNL d   1      13.750  14.653  -4.488  0.00  0.00     0.019 A 
ATOM     20  C   UNL d   1      13.908  15.444  -4.688  0.00  0.00     0.019 A 
ATOM     21  C   UNL d   1      14.281  15.938  -4.144  0.00  0.00     0.064 A 
ATOM     22  C   UNL d   1      14.501  15.657  -3.399  0.00  0.00     0.019 A 
ATOM     23  C   UNL d   1      14.346  14.875  -3.199  0.00  0.00     0.019 A 
BRANCH  21  24
ATOM     24  N   UNL d   1      14.437  16.714  -4.340  0.00  0.00    -0.301 N 
ATOM     25  C   UNL d   1      14.911  17.170  -3.840  0.00  0.00     0.100 C 
ATOM     26  C   UNL d   1      14.122  17.027  -5.025  0.00  0.00     0.100 C 
ENDBRANCH  21  24
ENDBRANCH   1  18
TORSDOF 5
ENDMDL
MODEL 2
REMARK VINA RESULT:      48.5      1.403      1.727
REMARK  5 active torsions:
REMARK  status: ('A' for Active; 'I' for Inactive)
REMARK    1  A    between atoms: C_10  and  N_1 
REMARK    2  A    between atoms: S_7  and  C_4 
REMARK    3  A    between atoms: C_9  and  C_6 
REMARK    4  A    between atoms: C_8  and  S_7 
REMARK    5  A    between atoms: N_14  and  C_13 
ROOT
ATOM      1  N   UNL d   1      13.876  14.428  -3.400  0.00  0.00    -0.241 N 
ATOM      2  C   UNL d   1      13.753  13.641  -3.489  0.00  0.00     0.268 A 
ATOM      3  C   UNL d   1      14.079  14.606  -2.629  0.00  0.00     0.273 A 
ATOM      4  C   UNL d   1      14.081  13.891  -2.216  0.00  0.00     0.091 A 
ATOM      5  C   UNL d   1      13.878  13.290  -2.753  0.00  0.00     0.072 A 
ATOM      6  O   UNL d   1      13.541  13.279  -4.197  0.00  0.00    -0.267 OA
ATOM      7  O   UNL d   1      14.249  15.372  -2.327  0.00  0.00    -0.266 OA
ENDROOT
BRANCH   4   8
ATOM      8  S   UNL d   1      14.266  13.894  -1.424  0.00  0.00    -0.082 SA
BRANCH   8   9
ATOM      9  C   UNL d   1      14.517  13.192  -1.032  0.00  0.00     0.035 A 
ATOM     10  C   UNL d   1      15.072  13.226  -0.398  0.00  0.00     0.070 A 
ATOM     11  C   UNL d   1      15.289  12.516  -0.044  0.00  0.00     0.007 A 
ATOM     12  C   UNL d   1      14.966  11.793  -0.311  0.00  0.00     0.000 A 
ATOM     13  C   UNL d   1      14.414  11.779  -0.945  0.00  0.00     0.001 A 
ATOM     14  C   UNL d   1      14.194  12.480  -1.301  0.00  0.00     0.007 A 
BRANCH  10  15
ATOM     15  C   UNL d   1      15.378  13.926  -0.147  0.00  0.00     0.211 C 
ATOM     16  O   UNL d   1      14.880  14.563  -0.014  0.00  0.00    -0.644 OA
ATOM     17  O   UNL d   1      16.178  14.043  -0.014  0.00  0.00    -0.644 OA
ENDBRANCH  10  15
ENDBRANCH   8   9
ENDBRANCH   4   8
BRANCH   1  18
ATOM     18  C   UNL d   1      13.789  14.955  -4.073  0.00  0.00     0.070 A 
ATOM     19  C   UNL d   1      13.094  14.974  -4.489  0.00  0.00     0.019 A 
ATOM     20  C   UNL d   1      13.025  15.490  -5.138  0.00  0.00     0.019 A 
ATOM     21  C   UNL d   1      13.659  15.972  -5.347  0.00  0.00     0.064 A 
ATOM     22  C   UNL d   1      14.366  15.951  -4.920  0.00  0.00     0.019 A 
ATOM     23  C   UNL d   1      14.436  15.442  -4.279  0.00  0.00     0.019 A 
BRANCH  21  24
ATOM     24  N   UNL d   1      13.592  16.479  -5.983  0.00  0.00    -0.301 N 
ATOM     25  C   UNL d   1      14.248  16.925  -6.216  0.00  0.00     0.100 C 
ATOM     26  C   UNL d   1      12.880  16.535  -6.378  0.00  0.00     0.100 C 
ENDBRANCH  21  24
ENDBRANCH   1  18
TORSDOF 5
ENDMDL
