MODEL 1
REMARK VINA RESULT:     107.9      0.000      0.000
REMARK  5 active torsions:
REMARK  status: ('A' for Active; 'I' for Inactive)
REMARK       I    between atoms: C_5  and  N_1 
REMARK    1  A    between atoms: S_13  and  C_2 
REMARK    2  A    between atoms: S_3  and  C_9 
REMARK    3  A    between atoms: N_7  and  S_3 
REMARK    4  A    between atoms: C_12  and  C_5 
REMARK    5  A    between atoms: C_23  and  S_13 
ROOT
ATOM      1  C   UNL d   1     -55.278-102.095 -40.748  0.00  0.00     0.104 A 
ATOM      2  C   UNL d   1     -55.340-102.098 -39.100  0.00  0.00     0.057 A 
ATOM      3  C   UNL d   1     -55.776-101.570 -40.351  0.00  0.00     0.013 A 
ATOM      4  C   UNL d   1     -54.808-102.626 -40.317  0.00  0.00     0.013 A 
ATOM      5  C   UNL d   1     -54.838-102.629 -39.490  0.00  0.00     0.005 A 
ATOM      6  C   UNL d   1     -55.804-101.573 -39.530  0.00  0.00     0.005 A 
ENDROOT
BRANCH   2   7
ATOM      7  C   UNL d   1     -55.368-102.103 -38.282  0.00  0.00     0.266 C 
ATOM      8  N   UNL d   1     -56.045-102.365 -37.882  0.00  0.00    -0.253 N 
ATOM      9  C   UNL d   1     -56.736-102.640 -38.240  0.00  0.00     0.182 A 
ATOM     10  C   UNL d   1     -56.144-102.398 -37.062  0.00  0.00     0.086 A 
ATOM     11  N   UNL d   1     -57.266-102.844 -37.638  0.00  0.00    -0.221 NA
ATOM     12  C   UNL d   1     -56.903-102.695 -36.914  0.00  0.00     0.100 A 
ATOM     13  C   UNL d   1     -57.158-102.789 -36.140  0.00  0.00     0.021 A 
ATOM     14  C   UNL d   1     -56.664-102.590 -35.512  0.00  0.00     0.002 A 
ATOM     15  C   UNL d   1     -55.905-102.293 -35.664  0.00  0.00     0.002 A 
ATOM     16  C   UNL d   1     -55.652-102.199 -36.441  0.00  0.00     0.019 A 
ATOM     17  O   UNL d   1     -54.713-101.841 -37.848  0.00  0.00    -0.267 OA
BRANCH   9  18
ATOM     18  S   UNL d   1     -56.865-102.697 -39.047  0.00  0.00    -0.049 SA
BRANCH  18  19
ATOM     19  C   UNL d   1     -57.719-102.368 -39.468  0.00  0.00     0.038 C 
ATOM     20  C   UNL d   1     -58.594-102.594 -39.194  0.00  0.00     0.008 C 
ENDBRANCH  18  19
ENDBRANCH   9  18
ENDBRANCH   2   7
BRANCH   1  21
ATOM     21  S   UNL d   1     -55.251-102.089 -41.575  0.00  0.00     0.271 S 
ATOM     22  O   UNL d   1     -54.805-101.389 -41.564  0.00  0.00    -0.200 OA
ATOM     23  O   UNL d   1     -55.696-102.786 -41.599  0.00  0.00    -0.200 OA
BRANCH  21  24
ATOM     24  N   UNL d   1     -55.226-102.086 -42.403  0.00  0.00    -0.229 N 
ATOM     25  C   UNL d   1     -55.684-101.543 -42.834  0.00  0.00     0.092 A 
ATOM     26  C   UNL d   1     -55.660-101.539 -43.649  0.00  0.00     0.020 A 
ATOM     27  C   UNL d   1     -55.182-102.073 -44.045  0.00  0.00     0.003 A 
ATOM     28  C   UNL d   1     -54.721-102.620 -43.629  0.00  0.00     0.020 A 
ATOM     29  C   UNL d   1     -54.749-102.619 -42.804  0.00  0.00     0.092 A 
ENDBRANCH  21  24
ENDBRANCH   1  21
TORSDOF 5
ENDMDL
