MODEL 1
REMARK VINA RESULT:      -5.2      0.000      0.000
REMARK  3 active torsions:
REMARK  status: ('A' for Active; 'I' for Inactive)
REMARK    1  A    between atoms: C_4  and  C_1 
REMARK    2  A    between atoms: N_7  and  C_4 
REMARK    3  A    between atoms: C_9  and  N_7 
ROOT
ATOM      1  C   UNL d   1      57.823   0.240  31.090  0.00  0.00     0.171 C 
ATOM      2  S   UNL d   1      58.488   0.682  31.337  0.00  0.00    -0.054 SA
ENDROOT
BRANCH   1   3
ATOM      3  C   UNL d   1      57.225   0.060  31.625  0.00  0.00     0.191 A 
ATOM      4  N   UNL d   1      56.770   0.611  32.048  0.00  0.00    -0.223 NA
ATOM      5  C   UNL d   1      56.237   0.188  32.519  0.00  0.00     0.101 A 
ATOM      6  C   UNL d   1      55.655   0.441  33.050  0.00  0.00     0.021 A 
ATOM      7  C   UNL d   1      56.363  -0.619  32.388  0.00  0.00     0.101 A 
ATOM      8  C   UNL d   1      55.201  -0.123  33.447  0.00  0.00     0.002 A 
ATOM      9  C   UNL d   1      55.326  -0.930  33.316  0.00  0.00     0.002 A 
ATOM     10  C   UNL d   1      55.905  -1.176  32.788  0.00  0.00     0.021 A 
ATOM     11  N   UNL d   1      56.972  -0.690  31.837  0.00  0.00    -0.223 NA
ENDBRANCH   1   3
BRANCH   1  12
ATOM     12  N   UNL d   1      57.775  -0.013  30.307  0.00  0.00    -0.232 NA
BRANCH  12  13
ATOM     13  C   UNL d   1      58.456  -0.079  29.844  0.00  0.00     0.082 A 
ATOM     14  C   UNL d   1      58.818  -0.818  29.749  0.00  0.00     0.019 A 
ATOM     15  C   UNL d   1      59.496  -0.884  29.287  0.00  0.00     0.002 A 
ATOM     16  C   UNL d   1      59.819  -0.212  28.916  0.00  0.00     0.000 A 
ATOM     17  C   UNL d   1      59.449   0.523  29.017  0.00  0.00     0.002 A 
ATOM     18  C   UNL d   1      60.496  -0.277  28.455  0.00  0.00     0.000 C 
ATOM     19  C   UNL d   1      58.771   0.585  29.479  0.00  0.00     0.019 A 
ENDBRANCH  12  13
ENDBRANCH   1  12
TORSDOF 3
ENDMDL
MODEL 2
REMARK VINA RESULT:      -5.2      0.598      4.541
REMARK  3 active torsions:
REMARK  status: ('A' for Active; 'I' for Inactive)
REMARK    1  A    between atoms: C_4  and  C_1 
REMARK    2  A    between atoms: N_7  and  C_4 
REMARK    3  A    between atoms: C_9  and  N_7 
ROOT
ATOM      1  C   UNL d   1      57.529   0.227  31.399  0.00  0.00     0.171 C 
ATOM      2  S   UNL d   1      57.844   0.629  32.060  0.00  0.00    -0.054 SA
ENDROOT
BRANCH   1   3
ATOM      3  C   UNL d   1      57.987   0.117  30.725  0.00  0.00     0.191 A 
ATOM      4  N   UNL d   1      57.994  -0.561  30.247  0.00  0.00    -0.223 NA
ATOM      5  C   UNL d   1      58.533  -0.432  29.633  0.00  0.00     0.101 A 
ATOM      6  C   UNL d   1      58.766  -0.909  28.999  0.00  0.00     0.021 A 
ATOM      7  C   UNL d   1      58.858   0.323  29.732  0.00  0.00     0.101 A 
ATOM      8  C   UNL d   1      59.327  -0.622  28.466  0.00  0.00     0.002 A 
ATOM      9  C   UNL d   1      59.652   0.133  28.564  0.00  0.00     0.002 A 
ATOM     10  C   UNL d   1      59.417   0.602  29.196  0.00  0.00     0.021 A 
ATOM     11  N   UNL d   1      58.517   0.654  30.405  0.00  0.00    -0.223 NA
ENDBRANCH   1   3
BRANCH   1  12
ATOM     12  N   UNL d   1      56.755  -0.057  31.431  0.00  0.00    -0.232 NA
BRANCH  12  13
ATOM     13  C   UNL d   1      56.333  -0.048  32.141  0.00  0.00     0.082 A 
ATOM     14  C   UNL d   1      56.255  -0.745  32.582  0.00  0.00     0.019 A 
ATOM     15  C   UNL d   1      55.834  -0.736  33.289  0.00  0.00     0.002 A 
ATOM     16  C   UNL d   1      55.488  -0.030  33.563  0.00  0.00     0.000 A 
ATOM     17  C   UNL d   1      55.572   0.662  33.115  0.00  0.00     0.002 A 
ATOM     18  C   UNL d   1      55.068  -0.021  34.269  0.00  0.00     0.000 C 
ATOM     19  C   UNL d   1      55.993   0.649  32.408  0.00  0.00     0.019 A 
ENDBRANCH  12  13
ENDBRANCH   1  12
TORSDOF 3
ENDMDL
MODEL 3
REMARK VINA RESULT:      -3.7      1.246      2.124
REMARK  3 active torsions:
REMARK  status: ('A' for Active; 'I' for Inactive)
REMARK    1  A    between atoms: C_4  and  C_1 
REMARK    2  A    between atoms: N_7  and  C_4 
REMARK    3  A    between atoms: C_9  and  N_7 
ROOT
ATOM      1  C   UNL d   1      56.900   0.300  32.611  0.00  0.00     0.171 C 
ATOM      2  S   UNL d   1      57.640   0.680  32.697  0.00  0.00    -0.054 SA
ENDROOT
BRANCH   1   3
ATOM      3  C   UNL d   1      56.321   0.389  33.188  0.00  0.00     0.191 A 
ATOM      4  N   UNL d   1      55.504   0.444  33.052  0.00  0.00    -0.223 NA
ATOM      5  C   UNL d   1      55.132   0.528  33.785  0.00  0.00     0.101 A 
ATOM      6  C   UNL d   1      54.333   0.606  33.989  0.00  0.00     0.021 A 
ATOM      7  C   UNL d   1      55.715   0.525  34.371  0.00  0.00     0.101 A 
ATOM      8  C   UNL d   1      54.128   0.682  34.785  0.00  0.00     0.002 A 
ATOM      9  C   UNL d   1      54.711   0.679  35.371  0.00  0.00     0.002 A 
ATOM     10  C   UNL d   1      55.502   0.601  35.163  0.00  0.00     0.021 A 
ATOM     11  N   UNL d   1      56.444   0.440  33.996  0.00  0.00    -0.223 NA
ENDBRANCH   1   3
BRANCH   1  12
ATOM     12  N   UNL d   1      56.760  -0.162  31.943  0.00  0.00    -0.232 NA
BRANCH  12  13
ATOM     13  C   UNL d   1      57.258  -0.114  31.286  0.00  0.00     0.082 A 
ATOM     14  C   UNL d   1      57.354   0.609  30.894  0.00  0.00     0.019 A 
ATOM     15  C   UNL d   1      57.850   0.657  30.240  0.00  0.00     0.002 A 
ATOM     16  C   UNL d   1      58.257  -0.018  29.971  0.00  0.00     0.000 A 
ATOM     17  C   UNL d   1      58.155  -0.737  30.369  0.00  0.00     0.002 A 
ATOM     18  C   UNL d   1      58.753   0.029  29.317  0.00  0.00     0.000 C 
ATOM     19  C   UNL d   1      57.657  -0.781  31.023  0.00  0.00     0.019 A 
ENDBRANCH  12  13
ENDBRANCH   1  12
TORSDOF 3
ENDMDL
