MODEL 1
REMARK VINA RESULT:      -7.5      0.000      0.000
REMARK  4 active torsions:
REMARK  status: ('A' for Active; 'I' for Inactive)
REMARK    1  A    between atoms: C_15  and  N_5 
REMARK    2  A    between atoms: N_13  and  C_7 
REMARK    3  A    between atoms: C_18  and  N_13 
REMARK    4  A    between atoms: C_16  and  C_15 
ROOT
ATOM      1  N   UNL d   1     -46.908  12.534  23.330  0.00  0.00     0.039 N 
ATOM      2  C   UNL d   1     -46.755  13.322  23.146  0.00  0.00     0.755 A 
ATOM      3  C   UNL d   1     -47.672  12.255  23.395  0.00  0.00     0.134 A 
ATOM      4  C   UNL d   1     -48.311  12.769  23.275  0.00  0.00     0.081 A 
ATOM      5  N   UNL d   1     -47.395  13.839  23.025  0.00  0.00    -0.103 N 
ATOM      6  C   UNL d   1     -48.172  13.561  23.090  0.00  0.00     0.281 A 
ATOM      7  C   UNL d   1     -46.181  12.161  23.417  0.00  0.00     0.768 A 
ATOM      8  N   UNL d   1     -45.946  13.429  23.121  0.00  0.00     0.060 NA
ATOM      9  S   UNL d   1     -47.978  11.512  23.568  0.00  0.00    -0.068 SA
ATOM     10  N   UNL d   1     -45.589  12.711  23.288  0.00  0.00     0.061 NA
ATOM     11  C   UNL d   1     -49.009  12.342  23.375  0.00  0.00     0.013 A 
ATOM     12  C   UNL d   1     -48.804  11.565  23.556  0.00  0.00     0.031 A 
ATOM     13  O   UNL d   1     -48.811  14.073  22.971  0.00  0.00    -0.266 OA
ATOM     14  C   UNL d   1     -49.801  12.557  23.325  0.00  0.00     0.001 A 
ATOM     15  C   UNL d   1     -49.387  10.996  23.689  0.00  0.00     0.006 A 
ATOM     16  C   UNL d   1     -50.387  11.996  23.456  0.00  0.00     0.000 A 
ATOM     17  C   UNL d   1     -50.180  11.211  23.639  0.00  0.00     0.001 A 
ENDROOT
BRANCH   7  18
ATOM     18  N   UNL d   1     -46.069  11.360  23.603  0.00  0.00    -0.059 NA
BRANCH  18  19
ATOM     19  C   UNL d   1     -45.320  11.011  23.514  0.00  0.00     0.100 A 
ATOM     20  C   UNL d   1     -45.223  10.207  23.696  0.00  0.00     0.020 A 
ATOM     21  C   UNL d   1     -44.481   9.853  23.609  0.00  0.00     0.002 A 
ATOM     22  C   UNL d   1     -43.840  10.306  23.341  0.00  0.00     0.000 A 
ATOM     23  C   UNL d   1     -43.941  11.112  23.159  0.00  0.00     0.002 A 
ATOM     24  C   UNL d   1     -44.689  11.462  23.249  0.00  0.00     0.020 A 
ENDBRANCH  18  19
ENDBRANCH   7  18
BRANCH   5  25
ATOM     25  C   UNL d   1     -47.256  14.627  22.841  0.00  0.00     0.101 C 
BRANCH  25  26
ATOM     26  C   UNL d   1     -47.574  14.957  22.157  0.00  0.00     0.020 C 
ATOM     27  C   UNL d   1     -47.465  15.755  21.986  0.00  0.00     0.002 C 
ENDBRANCH  25  26
ENDBRANCH   5  25
TORSDOF 4
ENDMDL
MODEL 2
REMARK VINA RESULT:      -7.3      7.233      9.213
REMARK  4 active torsions:
REMARK  status: ('A' for Active; 'I' for Inactive)
REMARK    1  A    between atoms: C_15  and  N_5 
REMARK    2  A    between atoms: N_13  and  C_7 
REMARK    3  A    between atoms: C_18  and  N_13 
REMARK    4  A    between atoms: C_16  and  C_15 
ROOT
ATOM      1  N   UNL d   1     -39.938  14.543  19.547  0.00  0.00     0.039 N 
ATOM      2  C   UNL d   1     -40.709  14.278  19.659  0.00  0.00     0.755 A 
ATOM      3  C   UNL d   1     -39.505  14.856  20.163  0.00  0.00     0.134 A 
ATOM      4  C   UNL d   1     -39.841  14.913  20.918  0.00  0.00     0.081 A 
ATOM      5  N   UNL d   1     -41.049  14.334  20.416  0.00  0.00    -0.103 N 
ATOM      6  C   UNL d   1     -40.613  14.652  21.044  0.00  0.00     0.281 A 
ATOM      7  C   UNL d   1     -39.752  14.420  18.756  0.00  0.00     0.768 A 
ATOM      8  N   UNL d   1     -40.991  13.998  18.945  0.00  0.00     0.060 NA
ATOM      9  S   UNL d   1     -38.741  15.156  20.208  0.00  0.00    -0.068 SA
ATOM     10  N   UNL d   1     -40.400  14.085  18.385  0.00  0.00     0.061 NA
ATOM     11  C   UNL d   1     -39.284  15.247  21.426  0.00  0.00     0.013 A 
ATOM     12  C   UNL d   1     -38.604  15.398  20.987  0.00  0.00     0.031 A 
ATOM     13  O   UNL d   1     -40.949  14.708  21.798  0.00  0.00    -0.266 OA
ATOM     14  C   UNL d   1     -39.308  15.433  22.226  0.00  0.00     0.001 A 
ATOM     15  C   UNL d   1     -37.940  15.736  21.343  0.00  0.00     0.006 A 
ATOM     16  C   UNL d   1     -38.650  15.770  22.588  0.00  0.00     0.000 A 
ATOM     17  C   UNL d   1     -37.963  15.922  22.144  0.00  0.00     0.001 A 
ENDROOT
BRANCH   7  18
ATOM     18  N   UNL d   1     -39.029  14.606  18.395  0.00  0.00    -0.059 NA
BRANCH  18  19
ATOM     19  C   UNL d   1     -38.849  14.310  17.640  0.00  0.00     0.100 A 
ATOM     20  C   UNL d   1     -38.498  13.562  17.570  0.00  0.00     0.020 A 
ATOM     21  C   UNL d   1     -38.317  13.261  16.821  0.00  0.00     0.002 A 
ATOM     22  C   UNL d   1     -38.488  13.712  16.147  0.00  0.00     0.000 A 
ATOM     23  C   UNL d   1     -38.840  14.463  16.220  0.00  0.00     0.002 A 
ATOM     24  C   UNL d   1     -39.020  14.759  16.976  0.00  0.00     0.020 A 
ENDBRANCH  18  19
ENDBRANCH   7  18
BRANCH   5  25
ATOM     25  C   UNL d   1     -41.818  14.073  20.540  0.00  0.00     0.101 C 
BRANCH  25  26
ATOM     26  C   UNL d   1     -41.957  13.327  20.860  0.00  0.00     0.020 C 
ATOM     27  C   UNL d   1     -42.718  13.099  21.075  0.00  0.00     0.002 C 
ENDBRANCH  25  26
ENDBRANCH   5  25
TORSDOF 4
ENDMDL
MODEL 3
REMARK VINA RESULT:      -6.2      1.451      4.469
REMARK  4 active torsions:
REMARK  status: ('A' for Active; 'I' for Inactive)
REMARK    1  A    between atoms: C_15  and  N_5 
REMARK    2  A    between atoms: N_13  and  C_7 
REMARK    3  A    between atoms: C_18  and  N_13 
REMARK    4  A    between atoms: C_16  and  C_15 
ROOT
ATOM      1  N   UNL d   1     -47.364  12.161  23.225  0.00  0.00     0.039 N 
ATOM      2  C   UNL d   1     -46.984  11.434  23.287  0.00  0.00     0.755 A 
ATOM      3  C   UNL d   1     -46.955  12.836  23.017  0.00  0.00     0.134 A 
ATOM      4  C   UNL d   1     -46.142  12.795  22.865  0.00  0.00     0.081 A 
ATOM      5  N   UNL d   1     -46.168  11.391  23.135  0.00  0.00    -0.103 N 
ATOM      6  C   UNL d   1     -45.748  12.073  22.923  0.00  0.00     0.281 A 
ATOM      7  C   UNL d   1     -48.156  12.037  23.405  0.00  0.00     0.768 A 
ATOM      8  N   UNL d   1     -47.537  10.872  23.502  0.00  0.00     0.060 NA
ATOM      9  S   UNL d   1     -47.189  13.617  22.916  0.00  0.00    -0.068 SA
ATOM     10  N   UNL d   1     -48.263  11.243  23.576  0.00  0.00     0.061 NA
ATOM     11  C   UNL d   1     -45.876  13.551  22.670  0.00  0.00     0.013 A 
ATOM     12  C   UNL d   1     -46.524  14.060  22.702  0.00  0.00     0.031 A 
ATOM     13  O   UNL d   1     -44.936  12.033  22.771  0.00  0.00    -0.266 OA
ATOM     14  C   UNL d   1     -45.134  13.842  22.469  0.00  0.00     0.001 A 
ATOM     15  C   UNL d   1     -46.436  14.863  22.533  0.00  0.00     0.006 A 
ATOM     16  C   UNL d   1     -45.039  14.641  22.299  0.00  0.00     0.000 A 
ATOM     17  C   UNL d   1     -45.693  15.154  22.331  0.00  0.00     0.001 A 
ENDROOT
BRANCH   7  18
ATOM     18  N   UNL d   1     -48.747  12.619  23.412  0.00  0.00    -0.059 NA
BRANCH  18  19
ATOM     19  C   UNL d   1     -49.516  12.438  23.154  0.00  0.00     0.100 A 
ATOM     20  C   UNL d   1     -50.067  12.140  23.698  0.00  0.00     0.020 A 
ATOM     21  C   UNL d   1     -50.834  11.958  23.448  0.00  0.00     0.002 A 
ATOM     22  C   UNL d   1     -51.044  12.076  22.654  0.00  0.00     0.000 A 
ATOM     23  C   UNL d   1     -50.489  12.375  22.111  0.00  0.00     0.002 A 
ATOM     24  C   UNL d   1     -49.720  12.556  22.369  0.00  0.00     0.020 A 
ENDBRANCH  18  19
ENDBRANCH   7  18
BRANCH   5  25
ATOM     25  C   UNL d   1     -45.777  10.670  23.193  0.00  0.00     0.101 C 
BRANCH  25  26
ATOM     26  C   UNL d   1     -45.132  10.588  23.698  0.00  0.00     0.020 C 
ATOM     27  C   UNL d   1     -44.642   9.927  23.648  0.00  0.00     0.002 C 
ENDBRANCH  25  26
ENDBRANCH   5  25
TORSDOF 4
ENDMDL
MODEL 4
REMARK VINA RESULT:      -6.2      1.098      1.421
REMARK  4 active torsions:
REMARK  status: ('A' for Active; 'I' for Inactive)
REMARK    1  A    between atoms: C_15  and  N_5 
REMARK    2  A    between atoms: N_13  and  C_7 
REMARK    3  A    between atoms: C_18  and  N_13 
REMARK    4  A    between atoms: C_16  and  C_15 
ROOT
ATOM      1  N   UNL d   1     -46.862  13.315  22.820  0.00  0.00     0.039 N 
ATOM      2  C   UNL d   1     -47.033  14.119  22.773  0.00  0.00     0.755 A 
ATOM      3  C   UNL d   1     -47.437  12.770  23.015  0.00  0.00     0.134 A 
ATOM      4  C   UNL d   1     -48.211  13.023  23.168  0.00  0.00     0.081 A 
ATOM      5  N   UNL d   1     -47.809  14.375  22.926  0.00  0.00    -0.103 N 
ATOM      6  C   UNL d   1     -48.397  13.826  23.124  0.00  0.00     0.281 A 
ATOM      7  C   UNL d   1     -46.064  13.227  22.643  0.00  0.00     0.768 A 
ATOM      8  N   UNL d   1     -46.350  14.516  22.569  0.00  0.00     0.060 NA
ATOM      9  S   UNL d   1     -47.421  11.953  23.100  0.00  0.00    -0.068 SA
ATOM     10  N   UNL d   1     -45.749  13.966  22.488  0.00  0.00     0.061 NA
ATOM     11  C   UNL d   1     -48.670  12.362  23.348  0.00  0.00     0.013 A 
ATOM     12  C   UNL d   1     -48.181  11.700  23.306  0.00  0.00     0.031 A 
ATOM     13  O   UNL d   1     -49.170  14.078  23.278  0.00  0.00    -0.266 OA
ATOM     14  C   UNL d   1     -49.463  12.277  23.543  0.00  0.00     0.001 A 
ATOM     15  C   UNL d   1     -48.481  10.946  23.459  0.00  0.00     0.006 A 
ATOM     16  C   UNL d   1     -49.769  11.529  23.697  0.00  0.00     0.000 A 
ATOM     17  C   UNL d   1     -49.276  10.860  23.654  0.00  0.00     0.001 A 
ENDROOT
BRANCH   7  18
ATOM     18  N   UNL d   1     -45.650  12.508  22.624  0.00  0.00    -0.059 NA
BRANCH  18  19
ATOM     19  C   UNL d   1     -44.877  12.478  22.321  0.00  0.00     0.100 A 
ATOM     20  C   UNL d   1     -44.313  11.997  22.694  0.00  0.00     0.020 A 
ATOM     21  C   UNL d   1     -43.541  11.963  22.397  0.00  0.00     0.002 A 
ATOM     22  C   UNL d   1     -43.341  12.410  21.729  0.00  0.00     0.000 A 
ATOM     23  C   UNL d   1     -43.909  12.892  21.357  0.00  0.00     0.002 A 
ATOM     24  C   UNL d   1     -44.681  12.922  21.660  0.00  0.00     0.020 A 
ENDBRANCH  18  19
ENDBRANCH   7  18
BRANCH   5  25
ATOM     25  C   UNL d   1     -47.993  15.174  22.882  0.00  0.00     0.101 C 
BRANCH  25  26
ATOM     26  C   UNL d   1     -48.541  15.445  22.330  0.00  0.00     0.020 C 
ATOM     27  C   UNL d   1     -49.170  15.922  22.563  0.00  0.00     0.002 C 
ENDBRANCH  25  26
ENDBRANCH   5  25
TORSDOF 4
ENDMDL
MODEL 5
REMARK VINA RESULT:      -5.6      1.849      4.162
REMARK  4 active torsions:
REMARK  status: ('A' for Active; 'I' for Inactive)
REMARK    1  A    between atoms: C_15  and  N_5 
REMARK    2  A    between atoms: N_13  and  C_7 
REMARK    3  A    between atoms: C_18  and  N_13 
REMARK    4  A    between atoms: C_16  and  C_15 
ROOT
ATOM      1  N   UNL d   1     -47.672  13.784  22.967  0.00  0.00     0.039 N 
ATOM      2  C   UNL d   1     -47.023  14.249  22.768  0.00  0.00     0.755 A 
ATOM      3  C   UNL d   1     -47.590  12.990  23.131  0.00  0.00     0.134 A 
ATOM      4  C   UNL d   1     -46.841  12.637  23.098  0.00  0.00     0.081 A 
ATOM      5  N   UNL d   1     -46.270  13.897  22.734  0.00  0.00    -0.103 N 
ATOM      6  C   UNL d   1     -46.181  13.090  22.900  0.00  0.00     0.281 A 
ATOM      7  C   UNL d   1     -48.332  14.274  22.957  0.00  0.00     0.768 A 
ATOM      8  N   UNL d   1     -47.282  15.012  22.637  0.00  0.00     0.060 NA
ATOM      9  S   UNL d   1     -48.131  12.407  23.340  0.00  0.00    -0.068 SA
ATOM     10  N   UNL d   1     -48.093  15.030  22.754  0.00  0.00     0.061 NA
ATOM     11  C   UNL d   1     -46.922  11.838  23.287  0.00  0.00     0.013 A 
ATOM     12  C   UNL d   1     -47.720  11.696  23.437  0.00  0.00     0.031 A 
ATOM     13  O   UNL d   1     -45.434  12.737  22.867  0.00  0.00    -0.266 OA
ATOM     14  C   UNL d   1     -46.377  11.225  23.342  0.00  0.00     0.001 A 
ATOM     15  C   UNL d   1     -47.980  10.940  23.643  0.00  0.00     0.006 A 
ATOM     16  C   UNL d   1     -46.630  10.470  23.547  0.00  0.00     0.000 A 
ATOM     17  C   UNL d   1     -47.435  10.326  23.698  0.00  0.00     0.001 A 
ENDROOT
BRANCH   7  18
ATOM     18  N   UNL d   1     -49.110  14.040  23.124  0.00  0.00    -0.059 NA
BRANCH  18  19
ATOM     19  C   UNL d   1     -49.742  14.563  22.996  0.00  0.00     0.100 A 
ATOM     20  C   UNL d   1     -50.104  14.589  22.250  0.00  0.00     0.020 A 
ATOM     21  C   UNL d   1     -50.734  15.109  22.116  0.00  0.00     0.002 A 
ATOM     22  C   UNL d   1     -50.997  15.599  22.730  0.00  0.00     0.000 A 
ATOM     23  C   UNL d   1     -50.632  15.571  23.478  0.00  0.00     0.002 A 
ATOM     24  C   UNL d   1     -50.000  15.047  23.606  0.00  0.00     0.020 A 
ENDBRANCH  18  19
ENDBRANCH   7  18
BRANCH   5  25
ATOM     25  C   UNL d   1     -45.614  14.350  22.536  0.00  0.00     0.101 C 
BRANCH  25  26
ATOM     26  C   UNL d   1     -45.004  14.024  22.090  0.00  0.00     0.020 C 
ATOM     27  C   UNL d   1     -44.402  14.501  21.792  0.00  0.00     0.002 C 
ENDBRANCH  25  26
ENDBRANCH   5  25
TORSDOF 4
ENDMDL
