MODEL 1
REMARK VINA RESULT:      66.6      0.000      0.000
REMARK  6 active torsions:
REMARK  status: ('A' for Active; 'I' for Inactive)
REMARK    1  A    between atoms: C_3  and  N_1 
REMARK       I    between atoms: C_2  and  N_6 
REMARK       I    between atoms: N_7  and  C_2 
REMARK    2  A    between atoms: C_5  and  C_3 
REMARK    3  A    between atoms: C_8  and  C_3 
REMARK    4  A    between atoms: N_6  and  C_5 
REMARK    5  A    between atoms: C_20  and  N_7 
REMARK    6  A    between atoms: N_12  and  C_9 
ROOT
ATOM      1  C   UNL d   1      14.419  15.537  -3.929  0.00  0.00     0.084 C 
ENDROOT
BRANCH   1   2
ATOM      2  N   UNL d   1      14.569  15.811  -3.165  0.00  0.00    -0.300 N 
ATOM      3  C   UNL d   1      14.938  16.543  -3.044  0.00  0.00     0.100 A 
ATOM      4  C   UNL d   1      15.086  16.813  -2.278  0.00  0.00     0.100 A 
ATOM      5  N   UNL d   1      14.865  16.349  -1.633  0.00  0.00    -0.299 N 
ATOM      6  C   UNL d   1      14.497  15.620  -1.747  0.00  0.00     0.100 A 
ATOM      7  C   UNL d   1      15.020  16.634  -0.861  0.00  0.00     0.100 C 
ATOM      8  C   UNL d   1      14.347  15.345  -2.511  0.00  0.00     0.100 A 
ENDBRANCH   1   2
BRANCH   1   9
ATOM      9  C   UNL d   1      14.640  16.005  -4.569  0.00  0.00     0.121 C 
BRANCH   9  10
ATOM     10  N   UNL d   1      14.084  16.502  -4.931  0.00  0.00    -0.188 NA
ATOM     11  C   UNL d   1      14.295  17.267  -5.150  0.00  0.00     0.369 C 
ATOM     12  N   UNL d   1      13.739  17.764  -5.512  0.00  0.00    -0.191 NA
ATOM     13  O   UNL d   1      15.054  17.542  -5.013  0.00  0.00    -0.242 OA
BRANCH  12  14
ATOM     14  C   UNL d   1      13.951  18.528  -5.731  0.00  0.00     0.086 A 
ATOM     15  C   UNL d   1      13.385  19.040  -6.050  0.00  0.00     0.022 A 
ATOM     16  C   UNL d   1      13.596  19.804  -6.269  0.00  0.00     0.031 A 
ATOM     17  C   UNL d   1      14.381  20.064  -6.169  0.00  0.00     0.140 A 
ATOM     18  C   UNL d   1      14.936  19.562  -5.855  0.00  0.00     0.031 A 
ATOM     19  F   UNL d   1      14.596  20.835  -6.388  0.00  0.00    -0.204 F 
ATOM     20  C   UNL d   1      14.728  18.786  -5.631  0.00  0.00     0.022 A 
ENDBRANCH  12  14
ENDBRANCH   9  10
ENDBRANCH   1   9
BRANCH   1  21
ATOM     21  C   UNL d   1      14.051  14.804  -4.041  0.00  0.00     0.018 A 
ATOM     22  C   UNL d   1      14.501  14.112  -4.011  0.00  0.00     0.003 A 
ATOM     23  C   UNL d   1      14.132  13.388  -4.123  0.00  0.00     0.018 A 
ATOM     24  C   UNL d   1      13.321  13.339  -4.265  0.00  0.00     0.064 A 
ATOM     25  C   UNL d   1      12.879  14.036  -4.294  0.00  0.00     0.018 A 
ATOM     26  C   UNL d   1      13.239  14.764  -4.183  0.00  0.00     0.003 A 
BRANCH  24  27
ATOM     27  N   UNL d   1      12.952  12.609  -4.378  0.00  0.00    -0.301 N 
ATOM     28  C   UNL d   1      12.769  12.369  -5.145  0.00  0.00     0.100 C 
ATOM     29  C   UNL d   1      12.769  12.131  -3.749  0.00  0.00     0.100 C 
ENDBRANCH  24  27
ENDBRANCH   1  21
TORSDOF 6
ENDMDL
MODEL 2
REMARK VINA RESULT:      69.5      0.579      3.090
REMARK  6 active torsions:
REMARK  status: ('A' for Active; 'I' for Inactive)
REMARK    1  A    between atoms: C_3  and  N_1 
REMARK       I    between atoms: C_2  and  N_6 
REMARK       I    between atoms: N_7  and  C_2 
REMARK    2  A    between atoms: C_5  and  C_3 
REMARK    3  A    between atoms: C_8  and  C_3 
REMARK    4  A    between atoms: N_6  and  C_5 
REMARK    5  A    between atoms: C_20  and  N_7 
REMARK    6  A    between atoms: N_12  and  C_9 
ROOT
ATOM      1  C   UNL d   1      14.456  15.725  -3.812  0.00  0.00     0.084 C 
ENDROOT
BRANCH   1   2
ATOM      2  N   UNL d   1      14.039  15.039  -4.001  0.00  0.00    -0.300 N 
ATOM      3  C   UNL d   1      13.324  15.080  -4.417  0.00  0.00     0.100 A 
ATOM      4  C   UNL d   1      12.911  14.391  -4.605  0.00  0.00     0.100 A 
ATOM      5  N   UNL d   1      13.214  13.659  -4.374  0.00  0.00    -0.299 N 
ATOM      6  C   UNL d   1      13.926  13.611  -3.960  0.00  0.00     0.100 A 
ATOM      7  C   UNL d   1      12.786  12.967  -4.570  0.00  0.00     0.100 C 
ATOM      8  C   UNL d   1      14.343  14.298  -3.770  0.00  0.00     0.100 A 
ENDBRANCH   1   2
BRANCH   1   9
ATOM      9  C   UNL d   1      14.661  16.245  -4.417  0.00  0.00     0.121 C 
BRANCH   9  10
ATOM     10  N   UNL d   1      14.106  16.794  -4.698  0.00  0.00    -0.188 NA
ATOM     11  C   UNL d   1      14.355  17.526  -4.978  0.00  0.00     0.369 C 
ATOM     12  N   UNL d   1      13.800  18.075  -5.259  0.00  0.00    -0.191 NA
ATOM     13  O   UNL d   1      15.151  17.719  -4.981  0.00  0.00    -0.242 OA
BRANCH  12  14
ATOM     14  C   UNL d   1      14.050  18.807  -5.539  0.00  0.00     0.086 A 
ATOM     15  C   UNL d   1      14.776  19.118  -5.295  0.00  0.00     0.022 A 
ATOM     16  C   UNL d   1      15.026  19.850  -5.575  0.00  0.00     0.031 A 
ATOM     17  C   UNL d   1      14.547  20.279  -6.105  0.00  0.00     0.140 A 
ATOM     18  C   UNL d   1      13.834  19.974  -6.343  0.00  0.00     0.031 A 
ATOM     19  F   UNL d   1      14.797  21.018  -6.388  0.00  0.00    -0.204 F 
ATOM     20  C   UNL d   1      13.575  19.232  -6.063  0.00  0.00     0.022 A 
ENDBRANCH  12  14
ENDBRANCH   9  10
ENDBRANCH   1   9
BRANCH   1  21
ATOM     21  C   UNL d   1      14.662  15.882  -3.025  0.00  0.00     0.018 A 
ATOM     22  C   UNL d   1      15.133  16.536  -2.848  0.00  0.00     0.003 A 
ATOM     23  C   UNL d   1      15.334  16.686  -2.067  0.00  0.00     0.018 A 
ATOM     24  C   UNL d   1      15.075  16.196  -1.457  0.00  0.00     0.064 A 
ATOM     25  C   UNL d   1      14.604  15.544  -1.643  0.00  0.00     0.018 A 
ATOM     26  C   UNL d   1      14.398  15.385  -2.421  0.00  0.00     0.003 A 
BRANCH  24  27
ATOM     27  N   UNL d   1      15.278  16.349  -0.671  0.00  0.00    -0.301 N 
ATOM     28  C   UNL d   1      15.183  15.752  -0.111  0.00  0.00     0.100 C 
ATOM     29  C   UNL d   1      15.567  17.073  -0.448  0.00  0.00     0.100 C 
ENDBRANCH  24  27
ENDBRANCH   1  21
TORSDOF 6
ENDMDL
