MODEL 1
REMARK VINA RESULT:      -2.6      0.000      0.000
REMARK  3 active torsions:
REMARK  status: ('A' for Active; 'I' for Inactive)
REMARK    1  A    between atoms: C_4  and  C_1 
REMARK       I    between atoms: N_8  and  C_4 
REMARK    2  A    between atoms: C_15  and  C_11 
REMARK    3  A    between atoms: C_12  and  C_15 
ROOT
ATOM      1  C   UNL d   1      31.883  16.885 -24.284  0.00  0.00     0.120 A 
ATOM      2  C   UNL d   1      32.052  16.967 -23.477  0.00  0.00     0.305 A 
ATOM      3  O   UNL d   1      32.438  17.657 -23.199  0.00  0.00    -0.273 OA
ATOM      4  C   UNL d   1      32.095  17.488 -24.826  0.00  0.00     0.012 A 
ATOM      5  C   UNL d   1      32.648  18.251 -23.726  0.00  0.00     0.103 A 
ATOM      6  C   UNL d   1      32.476  18.168 -24.542  0.00  0.00     0.023 A 
ATOM      7  O   UNL d   1      31.844  16.373 -22.945  0.00  0.00    -0.259 OA
ATOM      8  C   UNL d   1      33.031  18.940 -23.461  0.00  0.00     0.023 A 
ATOM      9  C   UNL d   1      32.688  18.769 -25.075  0.00  0.00     0.002 A 
ATOM     10  C   UNL d   1      33.069  19.449 -24.795  0.00  0.00     0.000 A 
ATOM     11  C   UNL d   1      33.240  19.534 -23.993  0.00  0.00     0.002 A 
ENDROOT
BRANCH   1  12
ATOM     12  C   UNL d   1      31.504  16.207 -24.556  0.00  0.00     0.270 C 
ATOM     13  N   UNL d   1      30.712  16.233 -24.782  0.00  0.00    -0.269 N 
ATOM     14  C   UNL d   1      30.332  15.555 -25.054  0.00  0.00     0.102 C 
ATOM     15  C   UNL d   1      30.300  16.947 -24.733  0.00  0.00     0.102 C 
ATOM     16  O   UNL d   1      31.915  15.494 -24.605  0.00  0.00    -0.266 OA
ENDBRANCH   1  12
BRANCH   8  17
ATOM     17  C   UNL d   1      33.202  19.025 -22.659  0.00  0.00     0.002 C 
BRANCH  17  18
ATOM     18  C   UNL d   1      33.217  19.775 -22.317  0.00  0.00     0.000 C 
ATOM     19  C   UNL d   1      33.240  19.855 -21.497  0.00  0.00     0.000 C 
ENDBRANCH  17  18
ENDBRANCH   8  17
TORSDOF 3
ENDMDL
MODEL 2
REMARK VINA RESULT:      -1.6      1.838      2.805
REMARK  3 active torsions:
REMARK  status: ('A' for Active; 'I' for Inactive)
REMARK    1  A    between atoms: C_4  and  C_1 
REMARK       I    between atoms: N_8  and  C_4 
REMARK    2  A    between atoms: C_15  and  C_11 
REMARK    3  A    between atoms: C_12  and  C_15 
ROOT
ATOM      1  C   UNL d   1      29.166  16.341 -23.704  0.00  0.00     0.120 A 
ATOM      2  C   UNL d   1      29.777  16.020 -23.244  0.00  0.00     0.305 A 
ATOM      3  O   UNL d   1      30.567  16.274 -23.366  0.00  0.00    -0.273 OA
ATOM      4  C   UNL d   1      29.332  16.917 -24.289  0.00  0.00     0.012 A 
ATOM      5  C   UNL d   1      30.735  16.837 -23.938  0.00  0.00     0.103 A 
ATOM      6  C   UNL d   1      30.117  17.161 -24.402  0.00  0.00     0.023 A 
ATOM      7  O   UNL d   1      29.613  15.454 -22.669  0.00  0.00    -0.259 OA
ATOM      8  C   UNL d   1      31.515  17.096 -24.067  0.00  0.00     0.023 A 
ATOM      9  C   UNL d   1      30.287  17.732 -24.981  0.00  0.00     0.002 A 
ATOM     10  C   UNL d   1      31.069  17.978 -25.097  0.00  0.00     0.000 A 
ATOM     11  C   UNL d   1      31.679  17.662 -24.642  0.00  0.00     0.002 A 
ENDROOT
BRANCH   1  12
ATOM     12  C   UNL d   1      28.391  16.092 -23.584  0.00  0.00     0.270 C 
ATOM     13  N   UNL d   1      27.980  15.704 -24.184  0.00  0.00    -0.269 N 
ATOM     14  C   UNL d   1      27.204  15.454 -24.064  0.00  0.00     0.102 C 
ATOM     15  C   UNL d   1      28.352  15.566 -24.907  0.00  0.00     0.102 C 
ATOM     16  O   UNL d   1      28.019  16.230 -22.862  0.00  0.00    -0.266 OA
ENDBRANCH   1  12
BRANCH   8  17
ATOM     17  C   UNL d   1      32.126  16.779 -23.611  0.00  0.00     0.002 C 
BRANCH  17  18
ATOM     18  C   UNL d   1      32.756  17.256 -23.377  0.00  0.00     0.000 C 
ATOM     19  C   UNL d   1      33.175  17.078 -22.691  0.00  0.00     0.000 C 
ENDBRANCH  17  18
ENDBRANCH   8  17
TORSDOF 3
ENDMDL
MODEL 3
REMARK VINA RESULT:      -1.5      3.172      5.190
REMARK  3 active torsions:
REMARK  status: ('A' for Active; 'I' for Inactive)
REMARK    1  A    between atoms: C_4  and  C_1 
REMARK       I    between atoms: N_8  and  C_4 
REMARK    2  A    between atoms: C_15  and  C_11 
REMARK    3  A    between atoms: C_12  and  C_15 
ROOT
ATOM      1  C   UNL d   1      32.808  21.785 -21.070  0.00  0.00     0.120 A 
ATOM      2  C   UNL d   1      32.734  20.986 -20.862  0.00  0.00     0.305 A 
ATOM      3  O   UNL d   1      32.806  20.393 -21.450  0.00  0.00    -0.273 OA
ATOM      4  C   UNL d   1      32.954  22.004 -21.866  0.00  0.00     0.012 A 
ATOM      5  C   UNL d   1      32.950  20.603 -22.230  0.00  0.00     0.103 A 
ATOM      6  C   UNL d   1      33.025  21.411 -22.441  0.00  0.00     0.023 A 
ATOM      7  O   UNL d   1      32.590  20.771 -20.080  0.00  0.00    -0.259 OA
ATOM      8  C   UNL d   1      33.023  20.023 -22.822  0.00  0.00     0.023 A 
ATOM      9  C   UNL d   1      33.170  21.623 -23.230  0.00  0.00     0.002 A 
ATOM     10  C   UNL d   1      33.241  21.033 -23.807  0.00  0.00     0.000 A 
ATOM     11  C   UNL d   1      33.168  20.238 -23.604  0.00  0.00     0.002 A 
ENDROOT
BRANCH   1  12
ATOM     12  C   UNL d   1      32.737  22.367 -20.493  0.00  0.00     0.270 C 
ATOM     13  N   UNL d   1      32.165  22.955 -20.562  0.00  0.00    -0.269 N 
ATOM     14  C   UNL d   1      32.093  23.538 -19.984  0.00  0.00     0.102 C 
ATOM     15  C   UNL d   1      31.662  22.958 -21.216  0.00  0.00     0.102 C 
ATOM     16  O   UNL d   1      33.238  22.364 -19.839  0.00  0.00    -0.266 OA
ENDBRANCH   1  12
BRANCH   8  17
ATOM     17  C   UNL d   1      32.951  19.226 -22.618  0.00  0.00     0.002 C 
BRANCH  17  18
ATOM     18  C   UNL d   1      33.234  18.643 -23.126  0.00  0.00     0.000 C 
ATOM     19  C   UNL d   1      33.136  17.847 -22.937  0.00  0.00     0.000 C 
ENDBRANCH  17  18
ENDBRANCH   8  17
TORSDOF 3
ENDMDL
MODEL 4
REMARK VINA RESULT:      -1.4      1.807      2.776
REMARK  3 active torsions:
REMARK  status: ('A' for Active; 'I' for Inactive)
REMARK    1  A    between atoms: C_4  and  C_1 
REMARK       I    between atoms: N_8  and  C_4 
REMARK    2  A    between atoms: C_15  and  C_11 
REMARK    3  A    between atoms: C_12  and  C_15 
ROOT
ATOM      1  C   UNL d   1      29.505  16.581 -24.413  0.00  0.00     0.120 A 
ATOM      2  C   UNL d   1      29.605  17.404 -24.405  0.00  0.00     0.305 A 
ATOM      3  O   UNL d   1      30.371  17.732 -24.501  0.00  0.00    -0.273 OA
ATOM      4  C   UNL d   1      30.165  16.074 -24.515  0.00  0.00     0.012 A 
ATOM      5  C   UNL d   1      31.019  17.240 -24.601  0.00  0.00     0.103 A 
ATOM      6  C   UNL d   1      30.918  16.408 -24.609  0.00  0.00     0.023 A 
ATOM      7  O   UNL d   1      28.956  17.902 -24.305  0.00  0.00    -0.259 OA
ATOM      8  C   UNL d   1      31.783  17.556 -24.697  0.00  0.00     0.023 A 
ATOM      9  C   UNL d   1      31.575  15.911 -24.710  0.00  0.00     0.002 A 
ATOM     10  C   UNL d   1      32.329  16.241 -24.804  0.00  0.00     0.000 A 
ATOM     11  C   UNL d   1      32.432  17.058 -24.798  0.00  0.00     0.002 A 
ENDROOT
BRANCH   1  12
ATOM     12  C   UNL d   1      28.754  16.259 -24.319  0.00  0.00     0.270 C 
ATOM     13  N   UNL d   1      28.526  15.934 -23.597  0.00  0.00    -0.269 N 
ATOM     14  C   UNL d   1      27.774  15.611 -23.503  0.00  0.00     0.102 C 
ATOM     15  C   UNL d   1      29.059  15.933 -22.967  0.00  0.00     0.102 C 
ATOM     16  O   UNL d   1      28.222  16.260 -24.948  0.00  0.00    -0.266 OA
ENDBRANCH   1  12
BRANCH   8  17
ATOM     17  C   UNL d   1      31.886  18.374 -24.691  0.00  0.00     0.002 C 
BRANCH  17  18
ATOM     18  C   UNL d   1      32.604  18.702 -24.929  0.00  0.00     0.000 C 
ATOM     19  C   UNL d   1      33.041  19.164 -24.405  0.00  0.00     0.000 C 
ENDBRANCH  17  18
ENDBRANCH   8  17
TORSDOF 3
ENDMDL
MODEL 5
REMARK VINA RESULT:      -1.4      1.088      1.662
REMARK  3 active torsions:
REMARK  status: ('A' for Active; 'I' for Inactive)
REMARK    1  A    between atoms: C_4  and  C_1 
REMARK       I    between atoms: N_8  and  C_4 
REMARK    2  A    between atoms: C_15  and  C_11 
REMARK    3  A    between atoms: C_12  and  C_15 
ROOT
ATOM      1  C   UNL d   1      32.711  18.244 -23.834  0.00  0.00     0.120 A 
ATOM      2  C   UNL d   1      32.758  18.281 -23.007  0.00  0.00     0.305 A 
ATOM      3  O   UNL d   1      32.903  19.015 -22.629  0.00  0.00    -0.273 OA
ATOM      4  C   UNL d   1      32.809  18.937 -24.296  0.00  0.00     0.012 A 
ATOM      5  C   UNL d   1      33.000  19.696 -23.077  0.00  0.00     0.103 A 
ATOM      6  C   UNL d   1      32.952  19.659 -23.913  0.00  0.00     0.023 A 
ATOM      7  O   UNL d   1      32.662  17.600 -22.554  0.00  0.00    -0.259 OA
ATOM      8  C   UNL d   1      33.145  20.429 -22.712  0.00  0.00     0.023 A 
ATOM      9  C   UNL d   1      33.050  20.348 -24.366  0.00  0.00     0.002 A 
ATOM     10  C   UNL d   1      33.194  21.070 -23.987  0.00  0.00     0.000 A 
ATOM     11  C   UNL d   1      33.241  21.111 -23.165  0.00  0.00     0.002 A 
ENDROOT
BRANCH   1  12
ATOM     12  C   UNL d   1      32.568  17.524 -24.204  0.00  0.00     0.270 C 
ATOM     13  N   UNL d   1      31.806  17.323 -24.446  0.00  0.00    -0.269 N 
ATOM     14  C   UNL d   1      31.663  16.602 -24.818  0.00  0.00     0.102 C 
ATOM     15  C   UNL d   1      31.186  17.851 -24.315  0.00  0.00     0.102 C 
ATOM     16  O   UNL d   1      33.187  16.996 -24.336  0.00  0.00    -0.266 OA
ENDBRANCH   1  12
BRANCH   8  17
ATOM     17  C   UNL d   1      33.192  20.470 -21.890  0.00  0.00     0.002 C 
BRANCH  17  18
ATOM     18  C   UNL d   1      32.884  21.121 -21.490  0.00  0.00     0.000 C 
ATOM     19  C   UNL d   1      32.779  21.092 -20.673  0.00  0.00     0.000 C 
ENDBRANCH  17  18
ENDBRANCH   8  17
TORSDOF 3
ENDMDL
MODEL 6
REMARK VINA RESULT:      -0.2      2.401      4.228
REMARK  3 active torsions:
REMARK  status: ('A' for Active; 'I' for Inactive)
REMARK    1  A    between atoms: C_4  and  C_1 
REMARK       I    between atoms: N_8  and  C_4 
REMARK    2  A    between atoms: C_15  and  C_11 
REMARK    3  A    between atoms: C_12  and  C_15 
ROOT
ATOM      1  C   UNL d   1      33.214  20.451 -22.083  0.00  0.00     0.120 A 
ATOM      2  C   UNL d   1      33.216  19.700 -21.730  0.00  0.00     0.305 A 
ATOM      3  O   UNL d   1      33.223  19.013 -22.211  0.00  0.00    -0.273 OA
ATOM      4  C   UNL d   1      33.219  20.528 -22.918  0.00  0.00     0.012 A 
ATOM      5  C   UNL d   1      33.229  19.084 -23.029  0.00  0.00     0.103 A 
ATOM      6  C   UNL d   1      33.227  19.842 -23.385  0.00  0.00     0.023 A 
ATOM      7  O   UNL d   1      33.211  19.626 -20.910  0.00  0.00    -0.259 OA
ATOM      8  C   UNL d   1      33.236  18.409 -23.515  0.00  0.00     0.023 A 
ATOM      9  C   UNL d   1      33.232  19.913 -24.212  0.00  0.00     0.002 A 
ATOM     10  C   UNL d   1      33.239  19.231 -24.682  0.00  0.00     0.000 A 
ATOM     11  C   UNL d   1      33.241  18.483 -24.335  0.00  0.00     0.002 A 
ENDROOT
BRANCH   1  12
ATOM     12  C   UNL d   1      33.207  21.125 -21.611  0.00  0.00     0.270 C 
ATOM     13  N   UNL d   1      33.219  21.874 -21.953  0.00  0.00    -0.269 N 
ATOM     14  C   UNL d   1      33.212  22.549 -21.481  0.00  0.00     0.102 C 
ATOM     15  C   UNL d   1      33.238  21.944 -22.775  0.00  0.00     0.102 C 
ATOM     16  O   UNL d   1      33.188  21.055 -20.790  0.00  0.00    -0.266 OA
ENDBRANCH   1  12
BRANCH   8  17
ATOM     17  C   UNL d   1      33.238  17.660 -23.167  0.00  0.00     0.002 C 
BRANCH  17  18
ATOM     18  C   UNL d   1      33.136  16.989 -23.634  0.00  0.00     0.000 C 
ATOM     19  C   UNL d   1      32.838  16.296 -23.301  0.00  0.00     0.000 C 
ENDBRANCH  17  18
ENDBRANCH   8  17
TORSDOF 3
ENDMDL
