MODEL 1
REMARK VINA RESULT:      55.1      0.000      0.000
REMARK  6 active torsions:
REMARK  status: ('A' for Active; 'I' for Inactive)
REMARK    1  A    between atoms: N_5  and  C_1 
REMARK       I    between atoms: C_9  and  N_5 
REMARK    2  A    between atoms: C_20  and  C_6 
REMARK    3  A    between atoms: C_17  and  C_9 
REMARK    4  A    between atoms: C_12  and  C_10 
REMARK    5  A    between atoms: C_11  and  S_13 
REMARK    6  A    between atoms: S_13  and  C_17 
ROOT
ATOM      1  N   UNL d   1     -56.703 -99.489 -43.412  0.00  0.00    -0.148 NA
ATOM      2  N   UNL d   1     -56.053 -99.803 -43.012  0.00  0.00    -0.141 NA
ATOM      3  C   UNL d   1     -56.842 -99.694 -44.203  0.00  0.00     0.104 A 
ATOM      4  C   UNL d   1     -55.540-100.318 -43.389  0.00  0.00     0.133 A 
ATOM      5  C   UNL d   1     -56.326-100.214 -44.587  0.00  0.00     0.023 A 
ATOM      6  C   UNL d   1     -55.679-100.525 -44.185  0.00  0.00     0.029 A 
ENDROOT
BRANCH   4   7
ATOM      7  S   UNL d   1     -54.890-100.632 -42.989  0.00  0.00    -0.061 SA
BRANCH   7   8
ATOM      8  C   UNL d   1     -54.758-101.442 -42.984  0.00  0.00     0.099 C 
BRANCH   8   9
ATOM      9  C   UNL d   1     -54.768-101.853 -42.266  0.00  0.00     0.288 C 
ATOM     10  N   UNL d   1     -54.832-101.438 -41.559  0.00  0.00    -0.181 NA
ATOM     11  O   UNL d   1     -54.714-102.672 -42.258  0.00  0.00    -0.265 OA
BRANCH  10  12
ATOM     12  C   UNL d   1     -54.842-101.840 -40.847  0.00  0.00     0.219 A 
ATOM     13  S   UNL d   1     -54.987-101.509 -40.101  0.00  0.00    -0.026 SA
ATOM     14  C   UNL d   1     -54.945-102.107 -39.548  0.00  0.00     0.135 A 
ATOM     15  N   UNL d   1     -54.775-102.809 -39.942  0.00  0.00    -0.139 NA
ATOM     16  N   UNL d   1     -54.713-102.640 -40.739  0.00  0.00    -0.121 NA
BRANCH  14  17
ATOM     17  C   UNL d   1     -55.053-102.023 -38.732  0.00  0.00     0.028 C 
ATOM     18  C   UNL d   1     -54.760-102.586 -38.214  0.00  0.00     0.002 C 
ENDBRANCH  14  17
ENDBRANCH  10  12
ENDBRANCH   8   9
ENDBRANCH   7   8
ENDBRANCH   4   7
BRANCH   3  19
ATOM     19  C   UNL d   1     -57.492 -99.380 -44.603  0.00  0.00     0.039 A 
ATOM     20  C   UNL d   1     -58.203 -99.301 -44.216  0.00  0.00     0.101 A 
ATOM     21  N   UNL d   1     -58.851 -98.990 -44.609  0.00  0.00    -0.242 NA
ATOM     22  C   UNL d   1     -58.778 -98.756 -45.404  0.00  0.00     0.099 A 
ATOM     23  C   UNL d   1     -58.061 -98.837 -45.789  0.00  0.00     0.021 A 
ATOM     24  C   UNL d   1     -57.405 -99.150 -45.396  0.00  0.00     0.005 A 
ENDBRANCH   3  19
TORSDOF 6
ENDMDL
MODEL 2
REMARK VINA RESULT:      55.8      1.382      2.011
REMARK  6 active torsions:
REMARK  status: ('A' for Active; 'I' for Inactive)
REMARK    1  A    between atoms: N_5  and  C_1 
REMARK       I    between atoms: C_9  and  N_5 
REMARK    2  A    between atoms: C_20  and  C_6 
REMARK    3  A    between atoms: C_17  and  C_9 
REMARK    4  A    between atoms: C_12  and  C_10 
REMARK    5  A    between atoms: C_11  and  S_13 
REMARK    6  A    between atoms: S_13  and  C_17 
ROOT
ATOM      1  N   UNL d   1     -55.481-100.664 -42.773  0.00  0.00    -0.148 NA
ATOM      2  N   UNL d   1     -55.245-101.310 -42.318  0.00  0.00    -0.141 NA
ATOM      3  C   UNL d   1     -55.502-100.723 -43.599  0.00  0.00     0.104 A 
ATOM      4  C   UNL d   1     -55.031-102.016 -42.675  0.00  0.00     0.133 A 
ATOM      5  C   UNL d   1     -55.286-101.434 -43.963  0.00  0.00     0.023 A 
ATOM      6  C   UNL d   1     -55.052-102.077 -43.506  0.00  0.00     0.029 A 
ENDROOT
BRANCH   4   7
ATOM      7  S   UNL d   1     -54.796-102.662 -42.220  0.00  0.00    -0.061 SA
BRANCH   7   8
ATOM      8  C   UNL d   1     -55.222-102.877 -41.552  0.00  0.00     0.099 C 
BRANCH   8   9
ATOM      9  C   UNL d   1     -55.143-102.436 -40.858  0.00  0.00     0.288 C 
ATOM     10  N   UNL d   1     -55.352-102.769 -40.135  0.00  0.00    -0.181 NA
ATOM     11  O   UNL d   1     -54.855-101.667 -40.888  0.00  0.00    -0.265 OA
BRANCH  10  12
ATOM     12  C   UNL d   1     -55.275-102.335 -39.446  0.00  0.00     0.219 A 
ATOM     13  S   UNL d   1     -54.979-102.614 -38.724  0.00  0.00    -0.026 SA
ATOM     14  C   UNL d   1     -55.001-101.999 -38.189  0.00  0.00     0.135 A 
ATOM     15  N   UNL d   1     -55.307-101.338 -38.571  0.00  0.00    -0.139 NA
ATOM     16  N   UNL d   1     -55.474-101.549 -39.341  0.00  0.00    -0.121 NA
BRANCH  14  17
ATOM     17  C   UNL d   1     -54.757-102.033 -37.399  0.00  0.00     0.028 C 
ATOM     18  C   UNL d   1     -55.301-101.956 -36.792  0.00  0.00     0.002 C 
ENDBRANCH  14  17
ENDBRANCH  10  12
ENDBRANCH   8   9
ENDBRANCH   7   8
ENDBRANCH   4   7
BRANCH   3  19
ATOM     19  C   UNL d   1     -55.737-100.077 -44.054  0.00  0.00     0.039 A 
ATOM     20  C   UNL d   1     -55.229 -99.769 -44.611  0.00  0.00     0.101 A 
ATOM     21  N   UNL d   1     -55.458 -99.127 -45.064  0.00  0.00    -0.242 NA
ATOM     22  C   UNL d   1     -56.212 -98.791 -44.955  0.00  0.00     0.099 A 
ATOM     23  C   UNL d   1     -56.719 -99.104 -44.395  0.00  0.00     0.021 A 
ATOM     24  C   UNL d   1     -56.492 -99.752 -43.934  0.00  0.00     0.005 A 
ENDBRANCH   3  19
TORSDOF 6
ENDMDL
MODEL 3
REMARK VINA RESULT:      57.7      1.647      2.831
REMARK  6 active torsions:
REMARK  status: ('A' for Active; 'I' for Inactive)
REMARK    1  A    between atoms: N_5  and  C_1 
REMARK       I    between atoms: C_9  and  N_5 
REMARK    2  A    between atoms: C_20  and  C_6 
REMARK    3  A    between atoms: C_17  and  C_9 
REMARK    4  A    between atoms: C_12  and  C_10 
REMARK    5  A    between atoms: C_11  and  S_13 
REMARK    6  A    between atoms: S_13  and  C_17 
ROOT
ATOM      1  N   UNL d   1     -54.961-100.795 -42.330  0.00  0.00    -0.148 NA
ATOM      2  N   UNL d   1     -54.734-101.144 -41.618  0.00  0.00    -0.141 NA
ATOM      3  C   UNL d   1     -55.478-101.194 -42.842  0.00  0.00     0.104 A 
ATOM      4  C   UNL d   1     -55.014-101.885 -41.408  0.00  0.00     0.133 A 
ATOM      5  C   UNL d   1     -55.762-101.942 -42.633  0.00  0.00     0.023 A 
ATOM      6  C   UNL d   1     -55.534-102.287 -41.922  0.00  0.00     0.029 A 
ENDROOT
BRANCH   4   7
ATOM      7  S   UNL d   1     -54.787-102.234 -40.696  0.00  0.00    -0.061 SA
BRANCH   7   8
ATOM      8  C   UNL d   1     -54.712-101.780 -40.017  0.00  0.00     0.099 C 
BRANCH   8   9
ATOM      9  C   UNL d   1     -54.973-102.082 -39.293  0.00  0.00     0.288 C 
ATOM     10  N   UNL d   1     -55.337-101.584 -38.748  0.00  0.00    -0.181 NA
ATOM     11  O   UNL d   1     -54.871-102.878 -39.117  0.00  0.00    -0.265 OA
BRANCH  10  12
ATOM     12  C   UNL d   1     -55.597-101.880 -38.031  0.00  0.00     0.219 A 
ATOM     13  S   UNL d   1     -55.147-101.943 -37.338  0.00  0.00    -0.026 SA
ATOM     14  C   UNL d   1     -55.622-102.266 -36.759  0.00  0.00     0.135 A 
ATOM     15  N   UNL d   1     -56.365-102.405 -37.086  0.00  0.00    -0.139 NA
ATOM     16  N   UNL d   1     -56.344-102.167 -37.866  0.00  0.00    -0.121 NA
BRANCH  14  17
ATOM     17  C   UNL d   1     -55.398-102.426 -35.979  0.00  0.00     0.028 C 
ATOM     18  C   UNL d   1     -55.105-101.830 -35.500  0.00  0.00     0.002 C 
ENDBRANCH  14  17
ENDBRANCH  10  12
ENDBRANCH   8   9
ENDBRANCH   7   8
ENDBRANCH   4   7
BRANCH   3  19
ATOM     19  C   UNL d   1     -55.705-100.845 -43.554  0.00  0.00     0.039 A 
ATOM     20  C   UNL d   1     -56.358-100.360 -43.575  0.00  0.00     0.101 A 
ATOM     21  N   UNL d   1     -56.587-100.012 -44.279  0.00  0.00    -0.242 NA
ATOM     22  C   UNL d   1     -56.150-100.155 -44.973  0.00  0.00     0.099 A 
ATOM     23  C   UNL d   1     -55.494-100.642 -44.947  0.00  0.00     0.021 A 
ATOM     24  C   UNL d   1     -55.259-100.996 -44.238  0.00  0.00     0.005 A 
ENDBRANCH   3  19
TORSDOF 6
ENDMDL
