MODEL 1
REMARK VINA RESULT:      47.2      0.000      0.000
REMARK  4 active torsions:
REMARK  status: ('A' for Active; 'I' for Inactive)
REMARK    1  A    between atoms: C_3  and  C_14 
REMARK    2  A    between atoms: C_21  and  C_4 
REMARK    3  A    between atoms: S_15  and  C_5 
REMARK    4  A    between atoms: C_14  and  S_15 
ROOT
ATOM      1  C   UNL d   1      14.569  13.627  -1.394  0.00  0.00     0.092 A 
ATOM      2  C   UNL d   1      14.970  14.983  -1.230  0.00  0.00     0.057 A 
ATOM      3  C   UNL d   1      14.914  14.217  -0.935  0.00  0.00     0.016 A 
ATOM      4  C   UNL d   1      14.282  13.805  -2.148  0.00  0.00     0.120 A 
ATOM      5  N   UNL d   1      14.336  14.562  -2.445  0.00  0.00    -0.239 NA
ATOM      6  C   UNL d   1      14.683  15.160  -1.984  0.00  0.00     0.081 A 
ATOM      7  C   UNL d   1      15.316  15.577  -0.769  0.00  0.00     0.193 A 
ATOM      8  C   UNL d   1      14.512  12.858  -1.100  0.00  0.00     0.103 C 
ATOM      9  N   UNL d   1      14.454  12.089  -0.805  0.00  0.00    -0.191 NA
ATOM     10  C   UNL d   1      15.084  16.526  -1.824  0.00  0.00     0.042 A 
ATOM     11  C   UNL d   1      15.377  16.353  -1.061  0.00  0.00     0.019 A 
ATOM     12  C   UNL d   1      14.737  15.933  -2.288  0.00  0.00    -0.003 A 
ATOM     13  O   UNL d   1      15.603  15.399  -0.015  0.00  0.00    -0.287 OA
ATOM     14  C   UNL d   1      14.871  16.907  -2.520  0.00  0.00     0.009 C 
ATOM     15  C   UNL d   1      15.431  17.114  -1.358  0.00  0.00     0.009 C 
ENDROOT
BRANCH   3  16
ATOM     16  C   UNL d   1      15.201  14.040  -0.181  0.00  0.00     0.001 C 
ATOM     17  C   UNL d   1      15.799  13.485  -0.100  0.00  0.00     0.000 C 
ENDBRANCH   3  16
BRANCH   4  18
ATOM     18  S   UNL d   1      13.938  13.209  -2.605  0.00  0.00    -0.067 SA
BRANCH  18  19
ATOM     19  C   UNL d   1      13.468  13.412  -3.252  0.00  0.00     0.041 C 
BRANCH  19  20
ATOM     20  C   UNL d   1      13.356  12.874  -3.867  0.00  0.00     0.051 A 
ATOM     21  C   UNL d   1      13.512  12.944  -4.592  0.00  0.00     0.127 A 
ATOM     22  O   UNL d   1      13.338  12.317  -5.066  0.00  0.00    -0.211 OA
ATOM     23  C   UNL d   1      13.772  13.320  -5.188  0.00  0.00     0.029 C 
ATOM     24  N   UNL d   1      13.026  11.784  -4.534  0.00  0.00    -0.126 NA
ATOM     25  C   UNL d   1      13.034  12.124  -3.792  0.00  0.00     0.111 A 
ATOM     26  C   UNL d   1      12.771  11.780  -3.097  0.00  0.00     0.023 C 
ENDBRANCH  19  20
ENDBRANCH  18  19
ENDBRANCH   4  18
TORSDOF 4
ENDMDL
