MODEL 1
REMARK VINA RESULT:      54.7      0.000      0.000
REMARK  3 active torsions:
REMARK  status: ('A' for Active; 'I' for Inactive)
REMARK    1  A    between atoms: C_11  and  C_4 
REMARK       I    between atoms: C_6  and  N_8 
REMARK    2  A    between atoms: C_9  and  C_6 
REMARK    3  A    between atoms: N_8  and  C_19 
ROOT
ATOM      1  C   UNL d   1     -54.755-101.878 -40.213  0.00  0.00     0.021 A 
ATOM      2  C   UNL d   1     -54.738-101.481 -41.595  0.00  0.00     0.085 A 
ATOM      3  C   UNL d   1     -54.735-101.287 -40.793  0.00  0.00     0.021 A 
ATOM      4  C   UNL d   1     -54.779-102.680 -40.443  0.00  0.00     0.002 A 
ATOM      5  C   UNL d   1     -54.782-102.879 -41.243  0.00  0.00     0.002 A 
ATOM      6  C   UNL d   1     -54.762-102.283 -41.825  0.00  0.00     0.019 A 
ENDROOT
BRANCH   2   7
ATOM      7  N   UNL d   1     -54.718-100.887 -42.164  0.00  0.00    -0.208 NA
ATOM      8  C   UNL d   1     -54.805-101.067 -42.969  0.00  0.00     0.279 C 
ATOM      9  O   UNL d   1     -54.915-101.862 -43.198  0.00  0.00    -0.265 OA
BRANCH   8  10
ATOM     10  C   UNL d   1     -54.785-100.474 -43.540  0.00  0.00     0.060 A 
ATOM     11  C   UNL d   1     -54.798-100.667 -44.337  0.00  0.00     0.031 A 
ATOM     12  C   UNL d   1     -54.777-100.077 -44.895  0.00  0.00     0.119 A 
ATOM     13  O   UNL d   1     -54.783-100.096 -45.729  0.00  0.00    -0.300 OA
ATOM     14  C   UNL d   1     -54.745 -99.286 -44.666  0.00  0.00     0.119 A 
ATOM     15  C   UNL d   1     -54.754 -99.315 -46.002  0.00  0.00     0.304 A 
ATOM     16  O   UNL d   1     -54.730 -98.816 -45.345  0.00  0.00    -0.300 OA
ATOM     17  C   UNL d   1     -54.732 -99.087 -43.867  0.00  0.00     0.026 A 
ATOM     18  C   UNL d   1     -54.753 -99.685 -43.298  0.00  0.00     0.007 A 
ENDBRANCH   8  10
ENDBRANCH   2   7
BRANCH   1  19
ATOM     19  C   UNL d   1     -54.752-101.684 -39.412  0.00  0.00     0.118 A 
ATOM     20  N   UNL d   1     -54.752-100.924 -39.094  0.00  0.00    -0.059 NA
ATOM     21  C   UNL d   1     -54.749-100.995 -38.267  0.00  0.00     0.735 A 
ATOM     22  N   UNL d   1     -54.746-101.798 -38.080  0.00  0.00    -0.136 N 
ATOM     23  N   UNL d   1     -54.747-100.421 -37.672  0.00  0.00    -0.059 NA
ATOM     24  C   UNL d   1     -54.749-102.227 -38.786  0.00  0.00     0.118 A 
ATOM     25  C   UNL d   1     -54.743-102.029 -37.282  0.00  0.00     0.100 A 
ATOM     26  C   UNL d   1     -54.741-101.468 -36.686  0.00  0.00     0.041 A 
ATOM     27  C   UNL d   1     -54.744-100.659 -36.882  0.00  0.00     0.119 A 
ENDBRANCH   1  19
TORSDOF 3
ENDMDL
