MODEL 1
REMARK VINA RESULT:      -3.0      0.000      0.000
REMARK  3 active torsions:
REMARK  status: ('A' for Active; 'I' for Inactive)
REMARK    1  A    between atoms: N_11  and  C_1 
REMARK    2  A    between atoms: N_5  and  C_4 
REMARK    3  A    between atoms: C_7  and  C_10 
REMARK       I    between atoms: C_10  and  N_12 
ROOT
ATOM      1  C   UNL d   1      32.923  18.311 -24.312  0.00  0.00     0.288 C 
ATOM      2  N   UNL d   1      32.950  20.172 -22.672  0.00  0.00    -0.281 N 
ATOM      3  N   UNL d   1      32.931  18.934 -23.759  0.00  0.00    -0.267 N 
ATOM      4  C   UNL d   1      32.653  19.441 -22.457  0.00  0.00     0.101 A 
ATOM      5  C   UNL d   1      33.241  20.287 -23.438  0.00  0.00     0.101 A 
ATOM      6  C   UNL d   1      32.640  18.818 -22.994  0.00  0.00     0.102 A 
ATOM      7  C   UNL d   1      33.235  19.671 -23.989  0.00  0.00     0.102 A 
ATOM      8  O   UNL d   1      33.211  18.425 -25.070  0.00  0.00    -0.264 OA
ENDROOT
BRANCH   2   9
ATOM      9  C   UNL d   1      32.963  20.793 -22.136  0.00  0.00     0.179 A 
ATOM     10  N   UNL d   1      32.868  21.594 -22.323  0.00  0.00    -0.222 NA
ATOM     11  C   UNL d   1      32.918  22.031 -21.630  0.00  0.00     0.089 A 
ATOM     12  C   UNL d   1      32.866  22.830 -21.482  0.00  0.00     0.018 A 
ATOM     13  C   UNL d   1      33.043  21.501 -21.009  0.00  0.00     0.050 A 
ATOM     14  C   UNL d   1      32.937  23.115 -20.718  0.00  0.00     0.002 A 
ATOM     15  C   UNL d   1      32.740  23.358 -22.104  0.00  0.00     0.002 C 
ATOM     16  C   UNL d   1      33.063  22.586 -20.097  0.00  0.00     0.001 A 
ATOM     17  C   UNL d   1      33.116  21.777 -20.250  0.00  0.00     0.007 A 
ATOM     18  C   UNL d   1      33.241  21.252 -19.630  0.00  0.00     0.001 C 
ATOM     19  S   UNL d   1      33.072  20.743 -21.313  0.00  0.00    -0.048 SA
ENDBRANCH   2   9
BRANCH   1  20
ATOM     20  C   UNL d   1      32.619  17.578 -24.081  0.00  0.00     0.158 A 
ATOM     21  O   UNL d   1      31.836  17.318 -24.178  0.00  0.00    -0.281 OA
ATOM     22  C   UNL d   1      31.793  16.549 -23.864  0.00  0.00     0.228 A 
ATOM     23  C   UNL d   1      32.541  16.353 -23.584  0.00  0.00     0.051 A 
ATOM     24  C   UNL d   1      33.047  16.990 -23.720  0.00  0.00     0.034 A 
BRANCH  22  25
ATOM     25  N   UNL d   1      31.121  16.063 -23.835  0.00  0.00    -0.089 N 
ATOM     26  O   UNL d   1      30.862  15.673 -24.533  0.00  0.00    -0.530 OA
ATOM     27  O   UNL d   1      30.707  15.959 -23.136  0.00  0.00    -0.530 OA
ENDBRANCH  22  25
ENDBRANCH   1  20
TORSDOF 3
ENDMDL
MODEL 2
REMARK VINA RESULT:      -1.6      1.270      2.064
REMARK  3 active torsions:
REMARK  status: ('A' for Active; 'I' for Inactive)
REMARK    1  A    between atoms: N_11  and  C_1 
REMARK    2  A    between atoms: N_5  and  C_4 
REMARK    3  A    between atoms: C_7  and  C_10 
REMARK       I    between atoms: C_10  and  N_12 
ROOT
ATOM      1  C   UNL d   1      32.165  16.698 -23.790  0.00  0.00     0.288 C 
ATOM      2  N   UNL d   1      32.565  19.042 -23.084  0.00  0.00    -0.281 N 
ATOM      3  N   UNL d   1      32.297  17.486 -23.554  0.00  0.00    -0.267 N 
ATOM      4  C   UNL d   1      31.867  18.841 -23.459  0.00  0.00     0.101 A 
ATOM      5  C   UNL d   1      33.136  18.461 -22.942  0.00  0.00     0.101 A 
ATOM      6  C   UNL d   1      31.726  18.067 -23.697  0.00  0.00     0.102 A 
ATOM      7  C   UNL d   1      33.009  17.679 -23.174  0.00  0.00     0.102 A 
ATOM      8  O   UNL d   1      32.731  16.123 -23.649  0.00  0.00    -0.264 OA
ENDROOT
BRANCH   2   9
ATOM      9  C   UNL d   1      32.706  19.815 -22.847  0.00  0.00     0.179 A 
ATOM     10  N   UNL d   1      32.708  20.087 -22.065  0.00  0.00    -0.222 NA
ATOM     11  C   UNL d   1      32.872  20.892 -22.071  0.00  0.00     0.089 A 
ATOM     12  C   UNL d   1      32.942  21.440 -21.473  0.00  0.00     0.018 A 
ATOM     13  C   UNL d   1      32.972  21.122 -22.857  0.00  0.00     0.050 A 
ATOM     14  C   UNL d   1      33.113  22.222 -21.645  0.00  0.00     0.002 A 
ATOM     15  C   UNL d   1      32.842  21.209 -20.687  0.00  0.00     0.002 C 
ATOM     16  C   UNL d   1      33.213  22.452 -22.431  0.00  0.00     0.001 A 
ATOM     17  C   UNL d   1      33.141  21.895 -23.036  0.00  0.00     0.007 A 
ATOM     18  C   UNL d   1      33.241  22.126 -23.818  0.00  0.00     0.001 C 
ATOM     19  S   UNL d   1      32.872  20.468 -23.336  0.00  0.00    -0.048 SA
ENDBRANCH   2   9
BRANCH   1  20
ATOM     20  C   UNL d   1      31.456  16.508 -24.168  0.00  0.00     0.158 A 
ATOM     21  O   UNL d   1      30.691  16.636 -23.869  0.00  0.00    -0.281 OA
ATOM     22  C   UNL d   1      30.156  16.358 -24.441  0.00  0.00     0.228 A 
ATOM     23  C   UNL d   1      30.595  16.068 -25.073  0.00  0.00     0.051 A 
ATOM     24  C   UNL d   1      31.396  16.163 -24.900  0.00  0.00     0.034 A 
BRANCH  22  25
ATOM     25  N   UNL d   1      29.327  16.368 -24.390  0.00  0.00    -0.089 N 
ATOM     26  O   UNL d   1      28.928  15.737 -24.004  0.00  0.00    -0.530 OA
ATOM     27  O   UNL d   1      28.894  16.985 -24.711  0.00  0.00    -0.530 OA
ENDBRANCH  22  25
ENDBRANCH   1  20
TORSDOF 3
ENDMDL
MODEL 3
REMARK VINA RESULT:      -0.8      3.253      5.688
REMARK  3 active torsions:
REMARK  status: ('A' for Active; 'I' for Inactive)
REMARK    1  A    between atoms: N_11  and  C_1 
REMARK    2  A    between atoms: N_5  and  C_4 
REMARK    3  A    between atoms: C_7  and  C_10 
REMARK       I    between atoms: C_10  and  N_12 
ROOT
ATOM      1  C   UNL d   1      32.974  23.014 -20.669  0.00  0.00     0.288 C 
ATOM      2  N   UNL d   1      32.994  20.856 -21.891  0.00  0.00    -0.281 N 
ATOM      3  N   UNL d   1      32.980  22.288 -21.077  0.00  0.00    -0.267 N 
ATOM      4  C   UNL d   1      32.749  20.883 -21.112  0.00  0.00     0.101 A 
ATOM      5  C   UNL d   1      33.234  21.551 -22.270  0.00  0.00     0.101 A 
ATOM      6  C   UNL d   1      32.740  21.593 -20.699  0.00  0.00     0.102 A 
ATOM      7  C   UNL d   1      33.230  22.273 -21.869  0.00  0.00     0.102 A 
ATOM      8  O   UNL d   1      33.212  23.702 -21.044  0.00  0.00    -0.264 OA
ENDROOT
BRANCH   2   9
ATOM      9  C   UNL d   1      33.003  20.146 -22.304  0.00  0.00     0.179 A 
ATOM     10  N   UNL d   1      32.920  20.063 -23.123  0.00  0.00    -0.222 NA
ATOM     11  C   UNL d   1      32.961  19.264 -23.309  0.00  0.00     0.089 A 
ATOM     12  C   UNL d   1      32.915  18.864 -24.016  0.00  0.00     0.018 A 
ATOM     13  C   UNL d   1      33.071  18.848 -22.604  0.00  0.00     0.050 A 
ATOM     14  C   UNL d   1      32.976  18.047 -24.035  0.00  0.00     0.002 A 
ATOM     15  C   UNL d   1      32.805  19.280 -24.720  0.00  0.00     0.002 C 
ATOM     16  C   UNL d   1      33.085  17.632 -23.331  0.00  0.00     0.001 A 
ATOM     17  C   UNL d   1      33.132  18.040 -22.615  0.00  0.00     0.007 A 
ATOM     18  C   UNL d   1      33.241  17.624 -21.915  0.00  0.00     0.001 C 
ATOM     19  S   UNL d   1      33.097  19.383 -21.986  0.00  0.00    -0.048 SA
ENDBRANCH   2   9
BRANCH   1  20
ATOM     20  C   UNL d   1      32.725  23.027 -19.882  0.00  0.00     0.158 A 
ATOM     21  O   UNL d   1      33.081  22.625 -19.248  0.00  0.00    -0.281 OA
ATOM     22  C   UNL d   1      32.639  22.803 -18.567  0.00  0.00     0.228 A 
ATOM     23  C   UNL d   1      32.028  23.306 -18.791  0.00  0.00     0.051 A 
ATOM     24  C   UNL d   1      32.085  23.441 -19.603  0.00  0.00     0.034 A 
BRANCH  22  25
ATOM     25  N   UNL d   1      32.783  22.528 -17.797  0.00  0.00    -0.089 N 
ATOM     26  O   UNL d   1      32.477  22.955 -17.140  0.00  0.00    -0.530 OA
ATOM     27  O   UNL d   1      33.220  21.847 -17.669  0.00  0.00    -0.530 OA
ENDBRANCH  22  25
ENDBRANCH   1  20
TORSDOF 3
ENDMDL
MODEL 4
REMARK VINA RESULT:      -0.4      3.475      5.929
REMARK  3 active torsions:
REMARK  status: ('A' for Active; 'I' for Inactive)
REMARK    1  A    between atoms: N_11  and  C_1 
REMARK    2  A    between atoms: N_5  and  C_4 
REMARK    3  A    between atoms: C_7  and  C_10 
REMARK       I    between atoms: C_10  and  N_12 
ROOT
ATOM      1  C   UNL d   1      32.068  23.036 -20.185  0.00  0.00     0.288 C 
ATOM      2  N   UNL d   1      32.563  21.057 -21.595  0.00  0.00    -0.281 N 
ATOM      3  N   UNL d   1      32.236  22.371 -20.656  0.00  0.00    -0.267 N 
ATOM      4  C   UNL d   1      32.890  21.120 -20.848  0.00  0.00     0.101 A 
ATOM      5  C   UNL d   1      32.066  21.655 -21.877  0.00  0.00     0.101 A 
ATOM      6  C   UNL d   1      32.732  21.772 -20.374  0.00  0.00     0.102 A 
ATOM      7  C   UNL d   1      31.897  22.317 -21.412  0.00  0.00     0.102 A 
ATOM      8  O   UNL d   1      31.576  23.629 -20.464  0.00  0.00    -0.264 OA
ENDROOT
BRANCH   2   9
ATOM      9  C   UNL d   1      32.721  20.405 -22.068  0.00  0.00     0.179 A 
ATOM     10  N   UNL d   1      32.817  19.627 -21.802  0.00  0.00    -0.222 NA
ATOM     11  C   UNL d   1      32.968  19.147 -22.451  0.00  0.00     0.089 A 
ATOM     12  C   UNL d   1      33.105  18.348 -22.520  0.00  0.00     0.018 A 
ATOM     13  C   UNL d   1      32.965  19.627 -23.123  0.00  0.00     0.050 A 
ATOM     14  C   UNL d   1      33.241  18.012 -23.255  0.00  0.00     0.002 A 
ATOM     15  C   UNL d   1      33.107  17.869 -21.847  0.00  0.00     0.002 C 
ATOM     16  C   UNL d   1      33.238  18.491 -23.926  0.00  0.00     0.001 A 
ATOM     17  C   UNL d   1      33.099  19.302 -23.854  0.00  0.00     0.007 A 
ATOM     18  C   UNL d   1      33.097  19.777 -24.524  0.00  0.00     0.001 C 
ATOM     19  S   UNL d   1      32.815  20.397 -22.895  0.00  0.00    -0.048 SA
ENDBRANCH   2   9
BRANCH   1  20
ATOM     20  C   UNL d   1      32.405  23.088 -19.433  0.00  0.00     0.158 A 
ATOM     21  O   UNL d   1      32.131  22.712 -18.744  0.00  0.00    -0.281 OA
ATOM     22  C   UNL d   1      32.645  22.926 -18.127  0.00  0.00     0.228 A 
ATOM     23  C   UNL d   1      33.219  23.422 -18.444  0.00  0.00     0.051 A 
ATOM     24  C   UNL d   1      33.068  23.519 -19.248  0.00  0.00     0.034 A 
BRANCH  22  25
ATOM     25  N   UNL d   1      32.594  22.686 -17.335  0.00  0.00    -0.089 N 
ATOM     26  O   UNL d   1      33.232  22.261 -16.989  0.00  0.00    -0.530 OA
ATOM     27  O   UNL d   1      31.931  22.857 -16.885  0.00  0.00    -0.530 OA
ENDBRANCH  22  25
ENDBRANCH   1  20
TORSDOF 3
ENDMDL
