MODEL 1
REMARK VINA RESULT:      -4.3      0.000      0.000
REMARK  3 active torsions:
REMARK  status: ('A' for Active; 'I' for Inactive)
REMARK    1  A    between atoms: S_11  and  C_2 
REMARK    2  A    between atoms: C_7  and  C_12 
REMARK    3  A    between atoms: C_12  and  S_11 
ROOT
ATOM      1  S   UNL d   1      57.083   0.225  31.673  0.00  0.00    -0.058 SA
ENDROOT
BRANCH   1   2
ATOM      2  C   UNL d   1      56.535  -0.099  32.206  0.00  0.00     0.164 A 
ATOM      3  S   UNL d   1      56.069   0.321  32.744  0.00  0.00    -0.039 SA
ATOM      4  C   UNL d   1      55.607  -0.222  33.161  0.00  0.00     0.134 A 
ATOM      5  N   UNL d   1      55.787  -0.982  32.882  0.00  0.00    -0.140 NA
ATOM      6  C   UNL d   1      55.055  -0.046  33.759  0.00  0.00     0.030 C 
ATOM      7  N   UNL d   1      56.365  -0.911  32.286  0.00  0.00    -0.134 NA
ENDBRANCH   1   2
BRANCH   1   8
ATOM      8  C   UNL d   1      57.428  -0.253  31.095  0.00  0.00     0.057 C 
BRANCH   8   9
ATOM      9  C   UNL d   1      57.939   0.074  30.531  0.00  0.00     0.095 A 
ATOM     10  N   UNL d   1      57.828   0.088  29.729  0.00  0.00    -0.238 NA
ATOM     11  C   UNL d   1      58.464   0.463  29.388  0.00  0.00     0.111 A 
ATOM     12  C   UNL d   1      58.593   0.606  28.586  0.00  0.00     0.028 C 
ATOM     13  S   UNL d   1      58.972   0.681  29.983  0.00  0.00    -0.066 SA
ATOM     14  C   UNL d   1      58.651   0.444  30.685  0.00  0.00     0.057 A 
ENDBRANCH   8   9
ENDBRANCH   1   8
TORSDOF 3
ENDMDL
MODEL 2
REMARK VINA RESULT:      -2.9      1.331      1.858
REMARK  3 active torsions:
REMARK  status: ('A' for Active; 'I' for Inactive)
REMARK    1  A    between atoms: S_11  and  C_2 
REMARK    2  A    between atoms: C_7  and  C_12 
REMARK    3  A    between atoms: C_12  and  S_11 
ROOT
ATOM      1  S   UNL d   1      58.215   0.397  30.421  0.00  0.00    -0.058 SA
ENDROOT
BRANCH   1   2
ATOM      2  C   UNL d   1      57.670   0.165  31.002  0.00  0.00     0.164 A 
ATOM      3  S   UNL d   1      57.620   0.461  31.773  0.00  0.00    -0.039 SA
ATOM      4  C   UNL d   1      57.000   0.075  32.156  0.00  0.00     0.134 A 
ATOM      5  N   UNL d   1      56.662  -0.464  31.623  0.00  0.00    -0.140 NA
ATOM      6  C   UNL d   1      56.750   0.197  32.941  0.00  0.00     0.030 C 
ATOM      7  N   UNL d   1      57.077  -0.411  30.902  0.00  0.00    -0.134 NA
ENDBRANCH   1   2
BRANCH   1   8
ATOM      8  C   UNL d   1      58.614  -0.174  29.979  0.00  0.00     0.057 C 
BRANCH   8   9
ATOM      9  C   UNL d   1      59.198   0.049  29.436  0.00  0.00     0.095 A 
ATOM     10  N   UNL d   1      59.934  -0.279  29.356  0.00  0.00    -0.238 NA
ATOM     11  C   UNL d   1      60.325   0.108  28.756  0.00  0.00     0.111 A 
ATOM     12  C   UNL d   1      61.087  -0.035  28.477  0.00  0.00     0.028 C 
ATOM     13  S   UNL d   1      59.826   0.680  28.464  0.00  0.00    -0.066 SA
ATOM     14  C   UNL d   1      59.135   0.644  28.880  0.00  0.00     0.057 A 
ENDBRANCH   8   9
ENDBRANCH   1   8
TORSDOF 3
ENDMDL
MODEL 3
REMARK VINA RESULT:      -2.9      1.182      1.486
REMARK  3 active torsions:
REMARK  status: ('A' for Active; 'I' for Inactive)
REMARK    1  A    between atoms: S_11  and  C_2 
REMARK    2  A    between atoms: C_7  and  C_12 
REMARK    3  A    between atoms: C_12  and  S_11 
ROOT
ATOM      1  S   UNL d   1      56.398   0.161  32.535  0.00  0.00    -0.058 SA
ENDROOT
BRANCH   1   2
ATOM      2  C   UNL d   1      55.976   0.324  33.231  0.00  0.00     0.164 A 
ATOM      3  S   UNL d   1      55.158   0.252  33.337  0.00  0.00    -0.039 SA
ATOM      4  C   UNL d   1      54.980   0.471  34.112  0.00  0.00     0.134 A 
ATOM      5  N   UNL d   1      55.688   0.681  34.491  0.00  0.00    -0.140 NA
ATOM      6  C   UNL d   1      54.225   0.483  34.462  0.00  0.00     0.030 C 
ATOM      7  N   UNL d   1      56.311   0.591  33.945  0.00  0.00    -0.134 NA
ENDBRANCH   1   2
BRANCH   1   8
ATOM      8  C   UNL d   1      56.983   0.681  32.276  0.00  0.00     0.057 C 
BRANCH   8   9
ATOM      9  C   UNL d   1      57.503   0.460  31.671  0.00  0.00     0.095 A 
ATOM     10  N   UNL d   1      57.330  -0.007  31.032  0.00  0.00    -0.238 NA
ATOM     11  C   UNL d   1      58.001  -0.082  30.579  0.00  0.00     0.111 A 
ATOM     12  C   UNL d   1      58.089  -0.505  29.877  0.00  0.00     0.028 C 
ATOM     13  S   UNL d   1      58.592   0.343  30.939  0.00  0.00    -0.066 SA
ATOM     14  C   UNL d   1      58.288   0.675  31.609  0.00  0.00     0.057 A 
ENDBRANCH   8   9
ENDBRANCH   1   8
TORSDOF 3
ENDMDL
MODEL 4
REMARK VINA RESULT:      -2.4      9.945     10.129
REMARK  3 active torsions:
REMARK  status: ('A' for Active; 'I' for Inactive)
REMARK    1  A    between atoms: S_11  and  C_2 
REMARK    2  A    between atoms: C_7  and  C_12 
REMARK    3  A    between atoms: C_12  and  S_11 
ROOT
ATOM      1  S   UNL d   1      58.934  -9.125  34.016  0.00  0.00    -0.058 SA
ENDROOT
BRANCH   1   2
ATOM      2  C   UNL d   1      59.371  -9.081  34.721  0.00  0.00     0.164 A 
ATOM      3  S   UNL d   1      59.660  -8.392  35.076  0.00  0.00    -0.039 SA
ATOM      4  C   UNL d   1      60.060  -8.606  35.765  0.00  0.00     0.134 A 
ATOM      5  N   UNL d   1      60.020  -9.432  35.840  0.00  0.00    -0.140 NA
ATOM      6  C   UNL d   1      60.440  -8.092  36.297  0.00  0.00     0.030 C 
ATOM      7  N   UNL d   1      59.591  -9.732  35.191  0.00  0.00    -0.134 NA
ENDBRANCH   1   2
BRANCH   1   8
ATOM      8  C   UNL d   1      59.018  -9.778  33.520  0.00  0.00     0.057 C 
BRANCH   8   9
ATOM      9  C   UNL d   1      58.648  -9.791  32.779  0.00  0.00     0.095 A 
ATOM     10  N   UNL d   1      57.851  -9.795  32.637  0.00  0.00    -0.238 NA
ATOM     11  C   UNL d   1      57.733  -9.810  31.832  0.00  0.00     0.111 A 
ATOM     12  C   UNL d   1      57.013  -9.818  31.429  0.00  0.00     0.028 C 
ATOM     13  S   UNL d   1      58.462  -9.814  31.475  0.00  0.00    -0.066 SA
ATOM     14  C   UNL d   1      59.024  -9.803  32.055  0.00  0.00     0.057 A 
ENDBRANCH   8   9
ENDBRANCH   1   8
TORSDOF 3
ENDMDL
