MODEL 1
REMARK VINA RESULT:      -7.0      0.000      0.000
REMARK  3 active torsions:
REMARK  status: ('A' for Active; 'I' for Inactive)
REMARK    1  A    between atoms: C_6  and  C_1 
REMARK    2  A    between atoms: O_9  and  C_6 
REMARK    3  A    between atoms: C_12  and  O_9 
ROOT
ATOM      1  C   UNL d   1     -47.795  13.676  22.848  0.00  0.00     0.089 A 
ATOM      2  C   UNL d   1     -46.998  13.915  22.870  0.00  0.00     0.138 A 
ATOM      3  S   UNL d   1     -46.564  13.300  23.154  0.00  0.00    -0.066 SA
ATOM      4  C   UNL d   1     -47.820  12.917  23.121  0.00  0.00     0.013 A 
ATOM      5  C   UNL d   1     -47.080  12.681  23.309  0.00  0.00     0.031 A 
ATOM      6  N   UNL d   1     -46.686  14.651  22.644  0.00  0.00    -0.141 N 
ATOM      7  C   UNL d   1     -48.472  12.407  23.217  0.00  0.00     0.001 A 
ATOM      8  C   UNL d   1     -46.941  11.915  23.607  0.00  0.00     0.006 A 
ATOM      9  C   UNL d   1     -48.329  11.641  23.517  0.00  0.00     0.000 A 
ATOM     10  C   UNL d   1     -47.591  11.421  23.698  0.00  0.00     0.001 A 
ENDROOT
BRANCH   1  11
ATOM     11  C   UNL d   1     -48.429  14.161  22.584  0.00  0.00     0.302 C 
ATOM     12  O   UNL d   1     -48.643  14.132  21.806  0.00  0.00    -0.259 OA
BRANCH  11  13
ATOM     13  O   UNL d   1     -48.794  14.631  23.116  0.00  0.00    -0.271 OA
BRANCH  13  14
ATOM     14  C   UNL d   1     -49.408  15.104  22.873  0.00  0.00     0.126 C 
ATOM     15  C   UNL d   1     -49.823  15.547  23.432  0.00  0.00     0.029 C 
ENDBRANCH  13  14
ENDBRANCH  11  13
ENDBRANCH   1  11
TORSDOF 3
ENDMDL
MODEL 2
REMARK VINA RESULT:      -6.9      1.697      2.442
REMARK  3 active torsions:
REMARK  status: ('A' for Active; 'I' for Inactive)
REMARK    1  A    between atoms: C_6  and  C_1 
REMARK    2  A    between atoms: O_9  and  C_6 
REMARK    3  A    between atoms: C_12  and  O_9 
ROOT
ATOM      1  C   UNL d   1     -47.959  12.297  23.061  0.00  0.00     0.089 A 
ATOM      2  C   UNL d   1     -47.393  11.821  23.444  0.00  0.00     0.138 A 
ATOM      3  S   UNL d   1     -46.731  12.264  23.551  0.00  0.00    -0.066 SA
ATOM      4  C   UNL d   1     -47.619  13.020  22.946  0.00  0.00     0.013 A 
ATOM      5  C   UNL d   1     -46.875  13.009  23.240  0.00  0.00     0.031 A 
ATOM      6  N   UNL d   1     -47.478  11.030  23.681  0.00  0.00    -0.141 N 
ATOM      7  C   UNL d   1     -47.932  13.706  22.590  0.00  0.00     0.001 A 
ATOM      8  C   UNL d   1     -46.392  13.688  23.196  0.00  0.00     0.006 A 
ATOM      9  C   UNL d   1     -47.444  14.383  22.549  0.00  0.00     0.000 A 
ATOM     10  C   UNL d   1     -46.711  14.357  22.843  0.00  0.00     0.001 A 
ENDROOT
BRANCH   1  11
ATOM     11  C   UNL d   1     -48.731  12.040  22.848  0.00  0.00     0.302 C 
ATOM     12  O   UNL d   1     -48.836  11.678  22.134  0.00  0.00    -0.259 OA
BRANCH  11  13
ATOM     13  O   UNL d   1     -49.327  12.165  23.363  0.00  0.00    -0.271 OA
BRANCH  13  14
ATOM     14  C   UNL d   1     -50.077  11.917  23.171  0.00  0.00     0.126 C 
ATOM     15  C   UNL d   1     -50.696  12.055  23.698  0.00  0.00     0.029 C 
ENDBRANCH  13  14
ENDBRANCH  11  13
ENDBRANCH   1  11
TORSDOF 3
ENDMDL
MODEL 3
REMARK VINA RESULT:      -6.7      1.533      2.545
REMARK  3 active torsions:
REMARK  status: ('A' for Active; 'I' for Inactive)
REMARK    1  A    between atoms: C_6  and  C_1 
REMARK    2  A    between atoms: O_9  and  C_6 
REMARK    3  A    between atoms: C_12  and  O_9 
ROOT
ATOM      1  C   UNL d   1     -47.277  13.311  23.035  0.00  0.00     0.089 A 
ATOM      2  C   UNL d   1     -47.805  13.914  22.810  0.00  0.00     0.138 A 
ATOM      3  S   UNL d   1     -48.553  13.630  22.891  0.00  0.00    -0.066 SA
ATOM      4  C   UNL d   1     -47.725  12.674  23.247  0.00  0.00     0.013 A 
ATOM      5  C   UNL d   1     -48.498  12.858  23.163  0.00  0.00     0.031 A 
ATOM      6  N   UNL d   1     -47.614  14.678  22.546  0.00  0.00    -0.141 N 
ATOM      7  C   UNL d   1     -47.488  11.922  23.517  0.00  0.00     0.001 A 
ATOM      8  C   UNL d   1     -49.090  12.298  23.345  0.00  0.00     0.006 A 
ATOM      9  C   UNL d   1     -48.083  11.365  23.698  0.00  0.00     0.000 A 
ATOM     10  C   UNL d   1     -48.844  11.561  23.610  0.00  0.00     0.001 A 
ENDROOT
BRANCH   1  11
ATOM     11  C   UNL d   1     -46.439  13.386  23.030  0.00  0.00     0.302 C 
ATOM     12  O   UNL d   1     -46.069  13.646  23.698  0.00  0.00    -0.259 OA
BRANCH  11  13
ATOM     13  O   UNL d   1     -46.046  13.196  22.361  0.00  0.00    -0.271 OA
BRANCH  13  14
ATOM     14  C   UNL d   1     -45.241  13.300  22.332  0.00  0.00     0.126 C 
ATOM     15  C   UNL d   1     -44.813  12.968  21.709  0.00  0.00     0.029 C 
ENDBRANCH  13  14
ENDBRANCH  11  13
ENDBRANCH   1  11
TORSDOF 3
ENDMDL
MODEL 4
REMARK VINA RESULT:      -6.6      1.727      3.129
REMARK  3 active torsions:
REMARK  status: ('A' for Active; 'I' for Inactive)
REMARK    1  A    between atoms: C_6  and  C_1 
REMARK    2  A    between atoms: O_9  and  C_6 
REMARK    3  A    between atoms: C_12  and  O_9 
ROOT
ATOM      1  C   UNL d   1     -47.302  13.309  22.989  0.00  0.00     0.089 A 
ATOM      2  C   UNL d   1     -47.748  12.625  23.148  0.00  0.00     0.138 A 
ATOM      3  S   UNL d   1     -48.526  12.817  23.079  0.00  0.00    -0.066 SA
ATOM      4  C   UNL d   1     -47.827  13.900  22.827  0.00  0.00     0.013 A 
ATOM      5  C   UNL d   1     -48.571  13.611  22.879  0.00  0.00     0.031 A 
ATOM      6  N   UNL d   1     -47.462  11.870  23.345  0.00  0.00    -0.141 N 
ATOM      7  C   UNL d   1     -47.688  14.698  22.631  0.00  0.00     0.001 A 
ATOM      8  C   UNL d   1     -49.229  14.104  22.738  0.00  0.00     0.006 A 
ATOM      9  C   UNL d   1     -48.349  15.188  22.491  0.00  0.00     0.000 A 
ATOM     10  C   UNL d   1     -49.079  14.889  22.546  0.00  0.00     0.001 A 
ENDROOT
BRANCH   1  11
ATOM     11  C   UNL d   1     -46.461  13.342  23.003  0.00  0.00     0.302 C 
ATOM     12  O   UNL d   1     -46.092  13.520  23.698  0.00  0.00    -0.259 OA
BRANCH  11  13
ATOM     13  O   UNL d   1     -46.066  13.196  22.326  0.00  0.00    -0.271 OA
BRANCH  13  14
ATOM     14  C   UNL d   1     -45.258  13.287  22.310  0.00  0.00     0.126 C 
ATOM     15  C   UNL d   1     -44.828  12.979  21.678  0.00  0.00     0.029 C 
ENDBRANCH  13  14
ENDBRANCH  11  13
ENDBRANCH   1  11
TORSDOF 3
ENDMDL
MODEL 5
REMARK VINA RESULT:      -6.3      2.094      3.214
REMARK  3 active torsions:
REMARK  status: ('A' for Active; 'I' for Inactive)
REMARK    1  A    between atoms: C_6  and  C_1 
REMARK    2  A    between atoms: O_9  and  C_6 
REMARK    3  A    between atoms: C_12  and  O_9 
ROOT
ATOM      1  C   UNL d   1     -49.035  12.400  22.355  0.00  0.00     0.089 A 
ATOM      2  C   UNL d   1     -48.961  12.771  21.614  0.00  0.00     0.138 A 
ATOM      3  S   UNL d   1     -49.579  13.278  21.529  0.00  0.00    -0.066 SA
ATOM      4  C   UNL d   1     -49.702  12.696  22.700  0.00  0.00     0.013 A 
ATOM      5  C   UNL d   1     -50.038  13.228  22.207  0.00  0.00     0.031 A 
ATOM      6  N   UNL d   1     -48.363  12.653  21.048  0.00  0.00    -0.141 N 
ATOM      7  C   UNL d   1     -50.041  12.521  23.441  0.00  0.00     0.001 A 
ATOM      8  C   UNL d   1     -50.739  13.624  22.424  0.00  0.00     0.006 A 
ATOM      9  C   UNL d   1     -50.744  12.919  23.653  0.00  0.00     0.000 A 
ATOM     10  C   UNL d   1     -51.064  13.443  23.156  0.00  0.00     0.001 A 
ENDROOT
BRANCH   1  11
ATOM     11  C   UNL d   1     -48.497  11.827  22.656  0.00  0.00     0.302 C 
ATOM     12  O   UNL d   1     -48.656  11.045  22.538  0.00  0.00    -0.259 OA
BRANCH  11  13
ATOM     13  O   UNL d   1     -47.851  12.084  23.047  0.00  0.00    -0.271 OA
BRANCH  13  14
ATOM     14  C   UNL d   1     -47.359  11.542  23.400  0.00  0.00     0.126 C 
ATOM     15  C   UNL d   1     -46.631  11.791  23.697  0.00  0.00     0.029 C 
ENDBRANCH  13  14
ENDBRANCH  11  13
ENDBRANCH   1  11
TORSDOF 3
ENDMDL
