MODEL 1
REMARK VINA RESULT:      -7.2      0.000      0.000
REMARK  4 active torsions:
REMARK  status: ('A' for Active; 'I' for Inactive)
REMARK    1  A    between atoms: N_2  and  S_1 
REMARK    2  A    between atoms: C_3  and  S_1 
REMARK    3  A    between atoms: O_16  and  C_8 
REMARK    4  A    between atoms: O_17  and  C_11 
ROOT
ATOM      1  S   UNL d   1     -48.113  13.607  22.888  0.00  0.00     0.271 S 
ATOM      2  O   UNL d   1     -48.414  13.127  23.484  0.00  0.00    -0.200 OA
ATOM      3  O   UNL d   1     -47.809  14.092  22.285  0.00  0.00    -0.200 OA
ENDROOT
BRANCH   1   4
ATOM      4  N   UNL d   1     -47.406  13.182  22.896  0.00  0.00    -0.229 N 
ATOM      5  C   UNL d   1     -47.368  12.456  23.288  0.00  0.00     0.092 A 
ATOM      6  C   UNL d   1     -46.661  12.031  23.296  0.00  0.00     0.018 A 
ATOM      7  C   UNL d   1     -46.624  11.306  23.688  0.00  0.00     0.002 A 
ATOM      8  C   UNL d   1     -45.993  12.330  22.913  0.00  0.00     0.003 A 
ATOM      9  C   UNL d   1     -45.916  10.880  23.697  0.00  0.00     0.000 A 
ATOM     10  C   UNL d   1     -45.249  11.179  23.313  0.00  0.00     0.000 A 
ATOM     11  C   UNL d   1     -45.286  11.904  22.921  0.00  0.00     0.000 A 
ATOM     12  C   UNL d   1     -46.031  13.055  22.521  0.00  0.00     0.020 A 
ATOM     13  C   UNL d   1     -46.738  13.481  22.513  0.00  0.00     0.092 A 
ENDBRANCH   1   4
BRANCH   1  14
ATOM     14  C   UNL d   1     -48.814  14.035  22.874  0.00  0.00     0.106 A 
ATOM     15  C   UNL d   1     -49.419  13.810  22.357  0.00  0.00     0.039 A 
ATOM     16  C   UNL d   1     -50.122  14.237  22.341  0.00  0.00     0.117 A 
ATOM     17  C   UNL d   1     -50.227  14.886  22.836  0.00  0.00     0.116 A 
ATOM     18  C   UNL d   1     -49.622  15.110  23.353  0.00  0.00     0.027 A 
ATOM     19  C   UNL d   1     -48.922  14.682  23.367  0.00  0.00     0.015 A 
BRANCH  16  20
ATOM     20  O   UNL d   1     -50.727  14.013  21.824  0.00  0.00    -0.326 OA
ATOM     21  C   UNL d   1     -50.967  13.220  21.787  0.00  0.00     0.181 C 
ENDBRANCH  16  20
BRANCH  17  22
ATOM     22  O   UNL d   1     -50.936  15.314  22.819  0.00  0.00    -0.326 OA
ATOM     23  C   UNL d   1     -51.064  15.922  23.362  0.00  0.00     0.181 C 
ENDBRANCH  17  22
ENDBRANCH   1  14
TORSDOF 4
ENDMDL
MODEL 2
REMARK VINA RESULT:      -6.5      8.866      9.277
REMARK  4 active torsions:
REMARK  status: ('A' for Active; 'I' for Inactive)
REMARK    1  A    between atoms: N_2  and  S_1 
REMARK    2  A    between atoms: C_3  and  S_1 
REMARK    3  A    between atoms: O_16  and  C_8 
REMARK    4  A    between atoms: O_17  and  C_11 
ROOT
ATOM      1  S   UNL d   1     -40.021  15.205  19.910  0.00  0.00     0.271 S 
ATOM      2  O   UNL d   1     -39.310  15.530  19.653  0.00  0.00    -0.200 OA
ATOM      3  O   UNL d   1     -40.740  14.877  20.170  0.00  0.00    -0.200 OA
ENDROOT
BRANCH   1   4
ATOM      4  N   UNL d   1     -39.736  15.183  20.684  0.00  0.00    -0.229 N 
ATOM      5  C   UNL d   1     -39.538  14.460  21.028  0.00  0.00     0.092 A 
ATOM      6  C   UNL d   1     -39.253  14.438  21.802  0.00  0.00     0.018 A 
ATOM      7  C   UNL d   1     -39.055  13.714  22.146  0.00  0.00     0.002 A 
ATOM      8  C   UNL d   1     -39.167  15.138  22.232  0.00  0.00     0.003 A 
ATOM      9  C   UNL d   1     -38.770  13.692  22.920  0.00  0.00     0.000 A 
ATOM     10  C   UNL d   1     -38.684  14.392  23.350  0.00  0.00     0.000 A 
ATOM     11  C   UNL d   1     -38.882  15.116  23.006  0.00  0.00     0.000 A 
ATOM     12  C   UNL d   1     -39.365  15.862  21.888  0.00  0.00     0.020 A 
ATOM     13  C   UNL d   1     -39.650  15.884  21.114  0.00  0.00     0.092 A 
ENDBRANCH   1   4
BRANCH   1  14
ATOM     14  C   UNL d   1     -40.311  15.224  19.142  0.00  0.00     0.106 A 
ATOM     15  C   UNL d   1     -40.202  14.570  18.649  0.00  0.00     0.039 A 
ATOM     16  C   UNL d   1     -40.491  14.586  17.879  0.00  0.00     0.117 A 
ATOM     17  C   UNL d   1     -40.889  15.248  17.597  0.00  0.00     0.116 A 
ATOM     18  C   UNL d   1     -40.999  15.903  18.091  0.00  0.00     0.027 A 
ATOM     19  C   UNL d   1     -40.709  15.884  18.858  0.00  0.00     0.015 A 
BRANCH  16  20
ATOM     20  O   UNL d   1     -40.382  13.932  17.386  0.00  0.00    -0.326 OA
ATOM     21  C   UNL d   1     -39.653  13.537  17.377  0.00  0.00     0.181 C 
ENDBRANCH  16  20
BRANCH  17  22
ATOM     22  O   UNL d   1     -41.180  15.263  16.822  0.00  0.00    -0.326 OA
ATOM     23  C   UNL d   1     -41.613  15.912  16.555  0.00  0.00     0.181 C 
ENDBRANCH  17  22
ENDBRANCH   1  14
TORSDOF 4
ENDMDL
MODEL 3
REMARK VINA RESULT:      -6.2      9.151      9.872
REMARK  4 active torsions:
REMARK  status: ('A' for Active; 'I' for Inactive)
REMARK    1  A    between atoms: N_2  and  S_1 
REMARK    2  A    between atoms: C_3  and  S_1 
REMARK    3  A    between atoms: O_16  and  C_8 
REMARK    4  A    between atoms: O_17  and  C_11 
ROOT
ATOM      1  S   UNL d   1     -39.515  14.631  18.996  0.00  0.00     0.271 S 
ATOM      2  O   UNL d   1     -39.767  13.878  18.780  0.00  0.00    -0.200 OA
ATOM      3  O   UNL d   1     -39.260  15.392  19.215  0.00  0.00    -0.200 OA
ENDROOT
BRANCH   1   4
ATOM      4  N   UNL d   1     -39.132  14.318  19.657  0.00  0.00    -0.229 N 
ATOM      5  C   UNL d   1     -39.504  14.336  20.394  0.00  0.00     0.092 A 
ATOM      6  C   UNL d   1     -39.120  14.023  21.054  0.00  0.00     0.018 A 
ATOM      7  C   UNL d   1     -39.492  14.040  21.791  0.00  0.00     0.002 A 
ATOM      8  C   UNL d   1     -38.367  13.693  20.978  0.00  0.00     0.003 A 
ATOM      9  C   UNL d   1     -39.109  13.728  22.451  0.00  0.00     0.000 A 
ATOM     10  C   UNL d   1     -38.355  13.398  22.375  0.00  0.00     0.000 A 
ATOM     11  C   UNL d   1     -37.984  13.380  21.639  0.00  0.00     0.000 A 
ATOM     12  C   UNL d   1     -37.995  13.675  20.242  0.00  0.00     0.020 A 
ATOM     13  C   UNL d   1     -38.378  13.988  19.581  0.00  0.00     0.092 A 
ENDBRANCH   1   4
BRANCH   1  14
ATOM     14  C   UNL d   1     -39.894  14.949  18.341  0.00  0.00     0.106 A 
ATOM     15  C   UNL d   1     -39.444  15.252  17.717  0.00  0.00     0.039 A 
ATOM     16  C   UNL d   1     -39.821  15.571  17.059  0.00  0.00     0.117 A 
ATOM     17  C   UNL d   1     -40.642  15.592  17.019  0.00  0.00     0.116 A 
ATOM     18  C   UNL d   1     -41.092  15.289  17.643  0.00  0.00     0.027 A 
ATOM     19  C   UNL d   1     -40.713  14.971  18.298  0.00  0.00     0.015 A 
BRANCH  16  20
ATOM     20  O   UNL d   1     -39.371  15.874  16.435  0.00  0.00    -0.326 OA
ATOM     21  C   UNL d   1     -38.683  15.481  16.192  0.00  0.00     0.181 C 
ENDBRANCH  16  20
BRANCH  17  22
ATOM     22  O   UNL d   1     -41.020  15.914  16.356  0.00  0.00    -0.326 OA
ATOM     23  C   UNL d   1     -41.844  15.922  16.313  0.00  0.00     0.181 C 
ENDBRANCH  17  22
ENDBRANCH   1  14
TORSDOF 4
ENDMDL
MODEL 4
REMARK VINA RESULT:      -6.0      9.072      9.913
REMARK  4 active torsions:
REMARK  status: ('A' for Active; 'I' for Inactive)
REMARK    1  A    between atoms: N_2  and  S_1 
REMARK    2  A    between atoms: C_3  and  S_1 
REMARK    3  A    between atoms: O_16  and  C_8 
REMARK    4  A    between atoms: O_17  and  C_11 
ROOT
ATOM      1  S   UNL d   1     -39.576  14.981  20.099  0.00  0.00     0.271 S 
ATOM      2  O   UNL d   1     -38.823  15.242  19.892  0.00  0.00    -0.200 OA
ATOM      3  O   UNL d   1     -40.337  14.718  20.308  0.00  0.00    -0.200 OA
ENDROOT
BRANCH   1   4
ATOM      4  N   UNL d   1     -39.781  14.926  19.301  0.00  0.00    -0.229 N 
ATOM      5  C   UNL d   1     -40.331  15.452  18.982  0.00  0.00     0.092 A 
ATOM      6  C   UNL d   1     -40.536  15.396  18.185  0.00  0.00     0.018 A 
ATOM      7  C   UNL d   1     -41.087  15.922  17.865  0.00  0.00     0.002 A 
ATOM      8  C   UNL d   1     -40.191  14.817  17.707  0.00  0.00     0.003 A 
ATOM      9  C   UNL d   1     -41.291  15.867  17.068  0.00  0.00     0.000 A 
ATOM     10  C   UNL d   1     -40.946  15.287  16.591  0.00  0.00     0.000 A 
ATOM     11  C   UNL d   1     -40.396  14.762  16.910  0.00  0.00     0.000 A 
ATOM     12  C   UNL d   1     -39.640  14.292  18.027  0.00  0.00     0.020 A 
ATOM     13  C   UNL d   1     -39.436  14.347  18.824  0.00  0.00     0.092 A 
ENDBRANCH   1   4
BRANCH   1  14
ATOM     14  C   UNL d   1     -39.379  15.034  20.894  0.00  0.00     0.106 A 
ATOM     15  C   UNL d   1     -39.222  14.344  21.322  0.00  0.00     0.039 A 
ATOM     16  C   UNL d   1     -39.025  14.393  22.120  0.00  0.00     0.117 A 
ATOM     17  C   UNL d   1     -38.983  15.125  22.494  0.00  0.00     0.116 A 
ATOM     18  C   UNL d   1     -39.140  15.815  22.066  0.00  0.00     0.027 A 
ATOM     19  C   UNL d   1     -39.336  15.762  21.271  0.00  0.00     0.015 A 
BRANCH  16  20
ATOM     20  O   UNL d   1     -38.868  13.704  22.547  0.00  0.00    -0.326 OA
ATOM     21  C   UNL d   1     -38.391  13.112  22.218  0.00  0.00     0.181 C 
ENDBRANCH  16  20
BRANCH  17  22
ATOM     22  O   UNL d   1     -38.784  15.173  23.296  0.00  0.00    -0.326 OA
ATOM     23  C   UNL d   1     -38.668  15.909  23.650  0.00  0.00     0.181 C 
ENDBRANCH  17  22
ENDBRANCH   1  14
TORSDOF 4
ENDMDL
MODEL 5
REMARK VINA RESULT:      -5.9      9.064     10.247
REMARK  4 active torsions:
REMARK  status: ('A' for Active; 'I' for Inactive)
REMARK    1  A    between atoms: N_2  and  S_1 
REMARK    2  A    between atoms: C_3  and  S_1 
REMARK    3  A    between atoms: O_16  and  C_8 
REMARK    4  A    between atoms: O_17  and  C_11 
ROOT
ATOM      1  S   UNL d   1     -39.211  14.817  19.086  0.00  0.00     0.271 S 
ATOM      2  O   UNL d   1     -39.084  15.586  19.350  0.00  0.00    -0.200 OA
ATOM      3  O   UNL d   1     -39.340  14.039  18.820  0.00  0.00    -0.200 OA
ENDROOT
BRANCH   1   4
ATOM      4  N   UNL d   1     -39.286  14.557  19.866  0.00  0.00    -0.229 N 
ATOM      5  C   UNL d   1     -38.653  14.175  20.233  0.00  0.00     0.092 A 
ATOM      6  C   UNL d   1     -38.727  13.915  21.013  0.00  0.00     0.018 A 
ATOM      7  C   UNL d   1     -38.094  13.533  21.380  0.00  0.00     0.002 A 
ATOM      8  C   UNL d   1     -39.433  14.036  21.425  0.00  0.00     0.003 A 
ATOM      9  C   UNL d   1     -38.168  13.273  22.160  0.00  0.00     0.000 A 
ATOM     10  C   UNL d   1     -38.874  13.394  22.571  0.00  0.00     0.000 A 
ATOM     11  C   UNL d   1     -39.507  13.776  22.204  0.00  0.00     0.000 A 
ATOM     12  C   UNL d   1     -40.066  14.418  21.058  0.00  0.00     0.020 A 
ATOM     13  C   UNL d   1     -39.991  14.678  20.278  0.00  0.00     0.092 A 
ENDBRANCH   1   4
BRANCH   1  14
ATOM     14  C   UNL d   1     -39.139  15.068  18.308  0.00  0.00     0.106 A 
ATOM     15  C   UNL d   1     -39.818  15.183  17.851  0.00  0.00     0.039 A 
ATOM     16  C   UNL d   1     -39.749  15.435  17.071  0.00  0.00     0.117 A 
ATOM     17  C   UNL d   1     -39.007  15.573  16.743  0.00  0.00     0.116 A 
ATOM     18  C   UNL d   1     -38.327  15.459  17.200  0.00  0.00     0.027 A 
ATOM     19  C   UNL d   1     -38.400  15.208  17.978  0.00  0.00     0.015 A 
BRANCH  16  20
ATOM     20  O   UNL d   1     -40.428  15.549  16.614  0.00  0.00    -0.326 OA
ATOM     21  C   UNL d   1     -41.135  15.787  16.976  0.00  0.00     0.181 C 
ENDBRANCH  16  20
BRANCH  17  22
ATOM     22  O   UNL d   1     -38.939  15.827  15.957  0.00  0.00    -0.326 OA
ATOM     23  C   UNL d   1     -38.193  15.921  15.617  0.00  0.00     0.181 C 
ENDBRANCH  17  22
ENDBRANCH   1  14
TORSDOF 4
ENDMDL
MODEL 6
REMARK VINA RESULT:      -5.9      8.749     10.775
REMARK  4 active torsions:
REMARK  status: ('A' for Active; 'I' for Inactive)
REMARK    1  A    between atoms: N_2  and  S_1 
REMARK    2  A    between atoms: C_3  and  S_1 
REMARK    3  A    between atoms: O_16  and  C_8 
REMARK    4  A    between atoms: O_17  and  C_11 
ROOT
ATOM      1  S   UNL d   1     -39.457  14.673  18.088  0.00  0.00     0.271 S 
ATOM      2  O   UNL d   1     -40.190  14.506  17.754  0.00  0.00    -0.200 OA
ATOM      3  O   UNL d   1     -38.716  14.842  18.426  0.00  0.00    -0.200 OA
ENDROOT
BRANCH   1   4
ATOM      4  N   UNL d   1     -39.827  14.986  18.756  0.00  0.00    -0.229 N 
ATOM      5  C   UNL d   1     -39.566  14.770  19.508  0.00  0.00     0.092 A 
ATOM      6  C   UNL d   1     -39.937  15.082  20.176  0.00  0.00     0.018 A 
ATOM      7  C   UNL d   1     -39.675  14.866  20.929  0.00  0.00     0.002 A 
ATOM      8  C   UNL d   1     -40.567  15.609  20.092  0.00  0.00     0.003 A 
ATOM      9  C   UNL d   1     -40.046  15.179  21.597  0.00  0.00     0.000 A 
ATOM     10  C   UNL d   1     -40.676  15.706  21.512  0.00  0.00     0.000 A 
ATOM     11  C   UNL d   1     -40.938  15.922  20.760  0.00  0.00     0.000 A 
ATOM     12  C   UNL d   1     -40.828  15.825  19.339  0.00  0.00     0.020 A 
ATOM     13  C   UNL d   1     -40.458  15.513  18.671  0.00  0.00     0.092 A 
ENDBRANCH   1   4
BRANCH   1  14
ATOM     14  C   UNL d   1     -39.081  14.364  17.426  0.00  0.00     0.106 A 
ATOM     15  C   UNL d   1     -38.761  13.602  17.458  0.00  0.00     0.039 A 
ATOM     16  C   UNL d   1     -38.384  13.289  16.797  0.00  0.00     0.117 A 
ATOM     17  C   UNL d   1     -38.324  13.730  16.105  0.00  0.00     0.116 A 
ATOM     18  C   UNL d   1     -38.644  14.491  16.073  0.00  0.00     0.027 A 
ATOM     19  C   UNL d   1     -39.020  14.801  16.734  0.00  0.00     0.015 A 
BRANCH  16  20
ATOM     20  O   UNL d   1     -38.064  12.528  16.829  0.00  0.00    -0.326 OA
ATOM     21  C   UNL d   1     -38.086  12.099  17.537  0.00  0.00     0.181 C 
ENDBRANCH  16  20
BRANCH  17  22
ATOM     22  O   UNL d   1     -37.944  13.413  15.440  0.00  0.00    -0.326 OA
ATOM     23  C   UNL d   1     -37.958  13.821  14.723  0.00  0.00     0.181 C 
ENDBRANCH  17  22
ENDBRANCH   1  14
TORSDOF 4
ENDMDL
