MODEL 1
REMARK VINA RESULT:      11.4      0.000      0.000
REMARK  2 active torsions:
REMARK  status: ('A' for Active; 'I' for Inactive)
REMARK    1  A    between atoms: C_7  and  C_1 
REMARK    2  A    between atoms: C_11  and  C_7 
ROOT
ATOM      1  C   UNL d   1      14.397  12.358  -0.993  0.00  0.00     0.116 A 
ATOM      2  N   UNL d   1      15.653  13.030  -0.958  0.00  0.00    -0.152 NA
ATOM      3  N   UNL d   1      14.628  13.394  -0.039  0.00  0.00    -0.152 NA
ATOM      4  C   UNL d   1      14.126  12.824  -0.366  0.00  0.00     0.288 A 
ATOM      5  C   UNL d   1      15.155  12.460  -1.287  0.00  0.00     0.288 A 
ATOM      6  C   UNL d   1      15.386  13.496  -0.333  0.00  0.00     0.374 A 
ATOM      7  O   UNL d   1      15.438  11.987  -1.928  0.00  0.00    -0.265 OA
ATOM      8  O   UNL d   1      13.365  12.722  -0.070  0.00  0.00    -0.265 OA
ATOM      9  O   UNL d   1      15.901  14.065  -0.014  0.00  0.00    -0.242 OA
ENDROOT
BRANCH   1  10
ATOM     10  C   UNL d   1      13.893  11.779  -1.328  0.00  0.00     0.010 C 
BRANCH  10  11
ATOM     11  C   UNL d   1      13.719  11.804  -2.136  0.00  0.00     0.001 A 
ATOM     12  C   UNL d   1      12.941  11.781  -2.392  0.00  0.00     0.003 A 
ATOM     13  C   UNL d   1      12.771  11.806  -3.199  0.00  0.00     0.042 A 
ATOM     14  C   UNL d   1      13.382  11.853  -3.740  0.00  0.00     0.196 A 
ATOM     15  C   UNL d   1      14.161  11.875  -3.484  0.00  0.00     0.042 A 
ATOM     16  O   UNL d   1      13.218  11.878  -4.565  0.00  0.00    -0.287 OA
ATOM     17  C   UNL d   1      14.337  11.851  -2.684  0.00  0.00     0.003 A 
ENDBRANCH  10  11
ENDBRANCH   1  10
TORSDOF 2
ENDMDL
MODEL 2
REMARK VINA RESULT:      13.4      0.634      1.538
REMARK  2 active torsions:
REMARK  status: ('A' for Active; 'I' for Inactive)
REMARK    1  A    between atoms: C_7  and  C_1 
REMARK    2  A    between atoms: C_11  and  C_7 
ROOT
ATOM      1  C   UNL d   1      14.969  12.729  -0.819  0.00  0.00     0.116 A 
ATOM      2  N   UNL d   1      14.758  13.933  -0.087  0.00  0.00    -0.152 NA
ATOM      3  N   UNL d   1      15.997  13.717  -0.757  0.00  0.00    -0.152 NA
ATOM      4  C   UNL d   1      15.729  12.983  -1.024  0.00  0.00     0.288 A 
ATOM      5  C   UNL d   1      14.487  13.201  -0.353  0.00  0.00     0.288 A 
ATOM      6  C   UNL d   1      15.514  14.189  -0.291  0.00  0.00     0.374 A 
ATOM      7  O   UNL d   1      13.710  12.947  -0.138  0.00  0.00    -0.265 OA
ATOM      8  O   UNL d   1      16.213  12.509  -1.492  0.00  0.00    -0.265 OA
ATOM      9  O   UNL d   1      15.771  14.930  -0.014  0.00  0.00    -0.242 OA
ENDROOT
BRANCH   1  10
ATOM     10  C   UNL d   1      14.692  11.986  -1.087  0.00  0.00     0.010 C 
BRANCH  10  11
ATOM     11  C   UNL d   1      14.222  11.943  -1.766  0.00  0.00     0.001 A 
ATOM     12  C   UNL d   1      14.563  11.996  -2.509  0.00  0.00     0.003 A 
ATOM     13  C   UNL d   1      14.091  11.952  -3.184  0.00  0.00     0.042 A 
ATOM     14  C   UNL d   1      13.282  11.857  -3.107  0.00  0.00     0.196 A 
ATOM     15  C   UNL d   1      12.941  11.804  -2.363  0.00  0.00     0.042 A 
ATOM     16  O   UNL d   1      12.793  11.812  -3.790  0.00  0.00    -0.287 OA
ATOM     17  C   UNL d   1      13.404  11.846  -1.688  0.00  0.00     0.003 A 
ENDBRANCH  10  11
ENDBRANCH   1  10
TORSDOF 2
ENDMDL
