MODEL 1
REMARK VINA RESULT:      49.6      0.000      0.000
REMARK  10 active torsions:
REMARK  status: ('A' for Active; 'I' for Inactive)
REMARK    1  A    between atoms: C_2  and  C_1 
REMARK       I    between atoms: N_3  and  C_1 
REMARK    2  A    between atoms: C_5  and  C_2 
REMARK    3  A    between atoms: C_6  and  N_3 
REMARK    4  A    between atoms: C_4  and  C_5 
REMARK    5  A    between atoms: O_11  and  C_4 
REMARK    6  A    between atoms: N_10  and  C_5 
REMARK    7  A    between atoms: O_13  and  C_9 
REMARK    8  A    between atoms: C_14  and  N_10 
REMARK    9  A    between atoms: N_12  and  C_16 
REMARK   10  A    between atoms: C_16  and  C_14 
ROOT
ATOM      1  C   UNK d   1     -48.890  28.624  33.954  0.00  0.00     0.084 C 
ENDROOT
BRANCH   1   2
ATOM      2  C   UNK d   1     -49.589  28.202  33.910  0.00  0.00     0.259 C 
ATOM      3  N   UNK d   1     -49.617  27.492  33.493  0.00  0.00    -0.320 N 
ATOM      4  H   UNK d   1     -48.930  27.209  33.119  0.00  0.00     0.169 HD
ATOM      5  O   UNK d   1     -50.272  28.492  34.286  0.00  0.00    -0.267 OA
BRANCH   3   6
ATOM      6  C   UNK d   1     -50.313  27.068  33.446  0.00  0.00     0.082 A 
ATOM      7  C   UNK d   1     -50.279  26.238  33.355  0.00  0.00     0.110 A 
ATOM      8  C   UNK d   1     -50.985  25.800  33.307  0.00  0.00     0.026 A 
ATOM      9  C   UNK d   1     -51.706  26.206  33.352  0.00  0.00     0.002 A 
ATOM     10  C   UNK d   1     -51.734  27.031  33.443  0.00  0.00     0.002 A 
ATOM     11  C   UNK d   1     -51.040  27.461  33.490  0.00  0.00     0.019 A 
BRANCH   7  12
ATOM     12  O   UNK d   1     -49.551  25.857  33.312  0.00  0.00    -0.327 OA
ATOM     13  C   UNK d   1     -49.516  25.036  33.375  0.00  0.00     0.181 C 
ENDBRANCH   7  12
ENDBRANCH   3   6
ENDBRANCH   1   2
BRANCH   1  14
ATOM     14  C   UNK d   1     -48.602  28.862  34.684  0.00  0.00     0.124 C 
BRANCH  14  15
ATOM     15  C   UNK d   1     -48.270  28.303  35.202  0.00  0.00     0.194 C 
ATOM     16  O   UNK d   1     -48.533  28.244  35.978  0.00  0.00    -0.645 OA
BRANCH  15  17
ATOM     17  O   UNK d   1     -47.669  27.797  34.942  0.00  0.00    -0.772 OA
ATOM     18  H   UNK d   1     -47.746  26.988  35.057  0.00  0.00     0.167 HD
ENDBRANCH  15  17
ENDBRANCH  14  15
BRANCH  14  19
ATOM     19  N   UNK d   1     -48.642  29.644  34.896  0.00  0.00    -0.346 N 
ATOM     20  H   UNK d   1     -49.276  29.914  35.350  0.00  0.00     0.166 HD
BRANCH  19  21
ATOM     21  C   UNK d   0     -48.058  30.175  34.662  0.00  0.00     0.092 C 
BRANCH  21  22
ATOM     22  C   UNK d   0     -47.957  30.891  35.051  0.00  0.00     0.099 C 
BRANCH  22  23
ATOM     23  N   UNK d   0     -47.886  31.586  34.614  0.00  0.00    -0.299 N 
ATOM     24  C   UNK d   0     -47.147  31.834  34.351  0.00  0.00     0.100 C 
ATOM     25  C   UNK d   0     -48.554  32.039  34.438  0.00  0.00     0.100 C 
ENDBRANCH  22  23
ENDBRANCH  21  22
ENDBRANCH  19  21
ENDBRANCH  14  19
ENDBRANCH   1  14
TORSDOF 10
ENDMDL
MODEL 2
REMARK VINA RESULT:      50.4      1.177      1.828
REMARK  10 active torsions:
REMARK  status: ('A' for Active; 'I' for Inactive)
REMARK    1  A    between atoms: C_2  and  C_1 
REMARK       I    between atoms: N_3  and  C_1 
REMARK    2  A    between atoms: C_5  and  C_2 
REMARK    3  A    between atoms: C_6  and  N_3 
REMARK    4  A    between atoms: C_4  and  C_5 
REMARK    5  A    between atoms: O_11  and  C_4 
REMARK    6  A    between atoms: N_10  and  C_5 
REMARK    7  A    between atoms: O_13  and  C_9 
REMARK    8  A    between atoms: C_14  and  N_10 
REMARK    9  A    between atoms: N_12  and  C_16 
REMARK   10  A    between atoms: C_16  and  C_14 
ROOT
ATOM      1  C   UNK d   1     -50.232  27.751  33.854  0.00  0.00     0.084 C 
ENDROOT
BRANCH   1   2
ATOM      2  C   UNK d   1     -50.769  27.145  33.747  0.00  0.00     0.259 C 
ATOM      3  N   UNK d   1     -50.504  26.373  33.635  0.00  0.00    -0.320 N 
ATOM      4  H   UNK d   1     -49.686  26.217  33.633  0.00  0.00     0.169 HD
ATOM      5  O   UNK d   1     -51.585  27.308  33.750  0.00  0.00    -0.267 OA
BRANCH   3   6
ATOM      6  C   UNK d   1     -51.037  25.764  33.527  0.00  0.00     0.082 A 
ATOM      7  C   UNK d   1     -50.752  24.986  33.418  0.00  0.00     0.110 A 
ATOM      8  C   UNK d   1     -51.290  24.361  33.307  0.00  0.00     0.026 A 
ATOM      9  C   UNK d   1     -52.101  24.534  33.309  0.00  0.00     0.002 A 
ATOM     10  C   UNK d   1     -52.380  25.309  33.418  0.00  0.00     0.002 A 
ATOM     11  C   UNK d   1     -51.849  25.922  33.527  0.00  0.00     0.019 A 
BRANCH   7  12
ATOM     12  O   UNK d   1     -49.942  24.840  33.420  0.00  0.00    -0.327 OA
ATOM     13  C   UNK d   1     -49.666  24.075  33.556  0.00  0.00     0.181 C 
ENDBRANCH   7  12
ENDBRANCH   3   6
ENDBRANCH   1   2
BRANCH   1  14
ATOM     14  C   UNK d   1     -49.693  27.715  34.473  0.00  0.00     0.124 C 
BRANCH  14  15
ATOM     15  C   UNK d   1     -49.916  27.376  35.198  0.00  0.00     0.194 C 
ATOM     16  O   UNK d   1     -49.447  26.803  35.554  0.00  0.00    -0.645 OA
BRANCH  15  17
ATOM     17  O   UNK d   1     -50.617  27.612  35.573  0.00  0.00    -0.772 OA
ATOM     18  H   UNK d   1     -51.107  27.044  35.904  0.00  0.00     0.167 HD
ENDBRANCH  15  17
ENDBRANCH  14  15
BRANCH  14  19
ATOM     19  N   UNK d   1     -48.946  28.012  34.371  0.00  0.00    -0.346 N 
ATOM     20  H   UNK d   1     -48.477  27.738  33.750  0.00  0.00     0.166 HD
BRANCH  19  21
ATOM     21  C   UNK d   0     -48.647  28.586  34.881  0.00  0.00     0.092 C 
BRANCH  21  22
ATOM     22  C   UNK d   0     -47.917  28.936  34.741  0.00  0.00     0.099 C 
BRANCH  22  23
ATOM     23  N   UNK d   0     -47.698  29.607  35.167  0.00  0.00    -0.299 N 
ATOM     24  C   UNK d   0     -47.816  30.355  34.845  0.00  0.00     0.100 C 
ATOM     25  C   UNK d   0     -47.361  29.534  35.917  0.00  0.00     0.100 C 
ENDBRANCH  22  23
ENDBRANCH  21  22
ENDBRANCH  19  21
ENDBRANCH  14  19
ENDBRANCH   1  14
TORSDOF 10
ENDMDL
