MODEL 1
REMARK VINA RESULT:      -8.0      0.000      0.000
REMARK  4 active torsions:
REMARK  status: ('A' for Active; 'I' for Inactive)
REMARK    1  A    between atoms: C_5  and  C_1 
REMARK       I    between atoms: N_7  and  C_5 
REMARK    2  A    between atoms: C_9  and  N_7 
REMARK    3  A    between atoms: C_8  and  C_9 
REMARK    4  A    between atoms: O_13  and  C_11 
ROOT
ATOM      1  C   UNL d   1      53.282  31.716  53.288  0.00  0.00     0.299 C 
ATOM      2  N   UNL d   1      52.639  32.237  53.215  0.00  0.00    -0.205 NA
ATOM      3  O   UNL d   1      54.029  32.007  53.474  0.00  0.00    -0.263 OA
ENDROOT
BRANCH   1   4
ATOM      4  C   UNL d   1      53.169  30.902  53.174  0.00  0.00     0.162 A 
ATOM      5  N   UNL d   1      52.995  30.538  52.457  0.00  0.00    -0.143 NA
ATOM      6  N   UNL d   1      52.927  29.716  52.590  0.00  0.00    -0.148 NA
ATOM      7  C   UNL d   1      53.063  29.587  53.406  0.00  0.00     0.105 A 
ATOM      8  C   UNL d   1      53.212  30.321  53.763  0.00  0.00     0.044 A 
ATOM      9  C   UNL d   1      53.068  28.900  53.852  0.00  0.00     0.021 A 
ATOM     10  C   UNL d   1      53.366  30.352  54.574  0.00  0.00     0.003 A 
ATOM     11  C   UNL d   1      53.371  29.668  55.017  0.00  0.00     0.000 A 
ATOM     12  C   UNL d   1      53.223  28.944  54.660  0.00  0.00     0.002 A 
ENDBRANCH   1   4
BRANCH   2  13
ATOM     13  C   UNL d   1      52.753  33.048  53.329  0.00  0.00     0.104 C 
BRANCH  13  14
ATOM     14  C   UNL d   1      52.129  33.580  53.254  0.00  0.00     0.042 A 
ATOM     15  C   UNL d   1      52.231  34.376  53.465  0.00  0.00     0.096 A 
ATOM     16  C   UNL d   1      51.606  34.894  53.387  0.00  0.00     0.024 A 
ATOM     17  C   UNL d   1      50.878  34.633  53.101  0.00  0.00     0.002 A 
ATOM     18  C   UNL d   1      50.766  33.851  52.889  0.00  0.00     0.000 A 
ATOM     19  C   UNL d   1      51.396  33.313  52.965  0.00  0.00     0.004 A 
BRANCH  15  20
ATOM     20  O   UNL d   1      52.957  34.648  53.754  0.00  0.00    -0.328 OA
ATOM     21  C   UNL d   1      53.017  35.358  54.159  0.00  0.00     0.181 C 
ENDBRANCH  15  20
ENDBRANCH  13  14
ENDBRANCH   2  13
TORSDOF 4
ENDMDL
MODEL 2
REMARK VINA RESULT:      -7.4      1.381      4.560
REMARK  4 active torsions:
REMARK  status: ('A' for Active; 'I' for Inactive)
REMARK    1  A    between atoms: C_5  and  C_1 
REMARK       I    between atoms: N_7  and  C_5 
REMARK    2  A    between atoms: C_9  and  N_7 
REMARK    3  A    between atoms: C_8  and  C_9 
REMARK    4  A    between atoms: O_13  and  C_11 
ROOT
ATOM      1  C   UNL d   1      54.134  32.622  53.957  0.00  0.00     0.299 C 
ATOM      2  N   UNL d   1      53.728  31.926  54.162  0.00  0.00    -0.205 NA
ATOM      3  O   UNL d   1      54.686  32.613  53.347  0.00  0.00    -0.263 OA
ENDROOT
BRANCH   1   4
ATOM      4  C   UNL d   1      53.981  33.325  54.370  0.00  0.00     0.162 A 
ATOM      5  N   UNL d   1      54.306  33.536  55.096  0.00  0.00    -0.143 NA
ATOM      6  N   UNL d   1      54.005  34.286  55.311  0.00  0.00    -0.148 NA
ATOM      7  C   UNL d   1      53.488  34.527  54.698  0.00  0.00     0.105 A 
ATOM      8  C   UNL d   1      53.475  33.933  54.119  0.00  0.00     0.044 A 
ATOM      9  C   UNL d   1      53.039  35.205  54.605  0.00  0.00     0.021 A 
ATOM     10  C   UNL d   1      53.004  34.032  53.448  0.00  0.00     0.003 A 
ATOM     11  C   UNL d   1      52.558  34.706  53.356  0.00  0.00     0.000 A 
ATOM     12  C   UNL d   1      52.573  35.292  53.931  0.00  0.00     0.002 A 
ENDBRANCH   1   4
BRANCH   2  13
ATOM     13  C   UNL d   1      53.882  31.226  53.750  0.00  0.00     0.104 C 
BRANCH  13  14
ATOM     14  C   UNL d   1      53.571  30.507  54.004  0.00  0.00     0.042 A 
ATOM     15  C   UNL d   1      53.207  29.994  53.462  0.00  0.00     0.096 A 
ATOM     16  C   UNL d   1      52.903  29.285  53.724  0.00  0.00     0.024 A 
ATOM     17  C   UNL d   1      52.955  29.075  54.520  0.00  0.00     0.002 A 
ATOM     18  C   UNL d   1      53.312  29.572  55.063  0.00  0.00     0.000 A 
ATOM     19  C   UNL d   1      53.625  30.298  54.807  0.00  0.00     0.004 A 
BRANCH  15  20
ATOM     20  O   UNL d   1      53.150  30.196  52.661  0.00  0.00    -0.328 OA
ATOM     21  C   UNL d   1      52.781  29.701  52.121  0.00  0.00     0.181 C 
ENDBRANCH  15  20
ENDBRANCH  13  14
ENDBRANCH   2  13
TORSDOF 4
ENDMDL
MODEL 3
REMARK VINA RESULT:      -7.3      1.648      4.483
REMARK  4 active torsions:
REMARK  status: ('A' for Active; 'I' for Inactive)
REMARK    1  A    between atoms: C_5  and  C_1 
REMARK       I    between atoms: N_7  and  C_5 
REMARK    2  A    between atoms: C_9  and  N_7 
REMARK    3  A    between atoms: C_8  and  C_9 
REMARK    4  A    between atoms: O_13  and  C_11 
ROOT
ATOM      1  C   UNL d   1      51.750  34.123  52.652  0.00  0.00     0.299 C 
ATOM      2  N   UNL d   1      52.025  33.357  52.822  0.00  0.00    -0.205 NA
ATOM      3  O   UNL d   1      52.148  34.778  52.951  0.00  0.00    -0.263 OA
ENDROOT
BRANCH   1   4
ATOM      4  C   UNL d   1      51.075  34.225  52.182  0.00  0.00     0.162 A 
ATOM      5  N   UNL d   1      51.017  34.049  51.380  0.00  0.00    -0.143 NA
ATOM      6  N   UNL d   1      50.243  34.234  51.125  0.00  0.00    -0.148 NA
ATOM      7  C   UNL d   1      49.829  34.528  51.791  0.00  0.00     0.105 A 
ATOM      8  C   UNL d   1      50.345  34.521  52.441  0.00  0.00     0.044 A 
ATOM      9  C   UNL d   1      49.060  34.794  51.875  0.00  0.00     0.021 A 
ATOM     10  C   UNL d   1      50.074  34.785  53.175  0.00  0.00     0.003 A 
ATOM     11  C   UNL d   1      49.308  35.050  53.258  0.00  0.00     0.000 A 
ATOM     12  C   UNL d   1      48.801  35.056  52.613  0.00  0.00     0.002 A 
ENDBRANCH   1   4
BRANCH   2  13
ATOM     13  C   UNL d   1      52.698  33.258  53.290  0.00  0.00     0.104 C 
BRANCH  13  14
ATOM     14  C   UNL d   1      53.012  32.509  53.430  0.00  0.00     0.042 A 
ATOM     15  C   UNL d   1      53.588  32.400  54.018  0.00  0.00     0.096 A 
ATOM     16  C   UNL d   1      53.891  31.655  54.147  0.00  0.00     0.024 A 
ATOM     17  C   UNL d   1      53.631  31.012  53.701  0.00  0.00     0.002 A 
ATOM     18  C   UNL d   1      53.064  31.107  53.120  0.00  0.00     0.000 A 
ATOM     19  C   UNL d   1      52.747  31.863  52.978  0.00  0.00     0.004 A 
BRANCH  15  20
ATOM     20  O   UNL d   1      53.856  33.039  54.471  0.00  0.00    -0.328 OA
ATOM     21  C   UNL d   1      54.384  32.932  55.089  0.00  0.00     0.181 C 
ENDBRANCH  15  20
ENDBRANCH  13  14
ENDBRANCH   2  13
TORSDOF 4
ENDMDL
MODEL 4
REMARK VINA RESULT:      -7.2      1.283      1.981
REMARK  4 active torsions:
REMARK  status: ('A' for Active; 'I' for Inactive)
REMARK    1  A    between atoms: C_5  and  C_1 
REMARK       I    between atoms: N_7  and  C_5 
REMARK    2  A    between atoms: C_9  and  N_7 
REMARK    3  A    between atoms: C_8  and  C_9 
REMARK    4  A    between atoms: O_13  and  C_11 
ROOT
ATOM      1  C   UNL d   1      52.732  31.926  53.340  0.00  0.00     0.299 C 
ATOM      2  N   UNL d   1      53.364  32.371  53.643  0.00  0.00    -0.205 NA
ATOM      3  O   UNL d   1      51.975  32.248  53.315  0.00  0.00    -0.263 OA
ENDROOT
BRANCH   1   4
ATOM      4  C   UNL d   1      52.865  31.155  53.062  0.00  0.00     0.162 A 
ATOM      5  N   UNL d   1      52.923  30.933  52.271  0.00  0.00    -0.143 NA
ATOM      6  N   UNL d   1      53.058  30.109  52.238  0.00  0.00    -0.148 NA
ATOM      7  C   UNL d   1      53.081  29.833  53.029  0.00  0.00     0.105 A 
ATOM      8  C   UNL d   1      52.962  30.481  53.534  0.00  0.00     0.044 A 
ATOM      9  C   UNL d   1      53.195  29.083  53.336  0.00  0.00     0.021 A 
ATOM     10  C   UNL d   1      52.959  30.361  54.351  0.00  0.00     0.003 A 
ATOM     11  C   UNL d   1      53.072  29.614  54.656  0.00  0.00     0.000 A 
ATOM     12  C   UNL d   1      53.190  28.976  54.154  0.00  0.00     0.002 A 
ENDBRANCH   1   4
BRANCH   2  13
ATOM     13  C   UNL d   1      53.230  33.138  53.919  0.00  0.00     0.104 C 
BRANCH  13  14
ATOM     14  C   UNL d   1      53.794  33.532  54.370  0.00  0.00     0.042 A 
ATOM     15  C   UNL d   1      53.664  34.315  54.612  0.00  0.00     0.096 A 
ATOM     16  C   UNL d   1      54.231  34.696  55.058  0.00  0.00     0.024 A 
ATOM     17  C   UNL d   1      54.928  34.310  55.269  0.00  0.00     0.002 A 
ATOM     18  C   UNL d   1      55.067  33.539  55.037  0.00  0.00     0.000 A 
ATOM     19  C   UNL d   1      54.497  33.140  54.582  0.00  0.00     0.004 A 
BRANCH  15  20
ATOM     20  O   UNL d   1      52.968  34.712  54.405  0.00  0.00    -0.328 OA
ATOM     21  C   UNL d   1      52.888  35.521  54.516  0.00  0.00     0.181 C 
ENDBRANCH  15  20
ENDBRANCH  13  14
ENDBRANCH   2  13
TORSDOF 4
ENDMDL
MODEL 5
REMARK VINA RESULT:      -7.1      2.417      3.654
REMARK  4 active torsions:
REMARK  status: ('A' for Active; 'I' for Inactive)
REMARK    1  A    between atoms: C_5  and  C_1 
REMARK       I    between atoms: N_7  and  C_5 
REMARK    2  A    between atoms: C_9  and  N_7 
REMARK    3  A    between atoms: C_8  and  C_9 
REMARK    4  A    between atoms: O_13  and  C_11 
ROOT
ATOM      1  C   UNL d   1      51.700  34.179  52.757  0.00  0.00     0.299 C 
ATOM      2  N   UNL d   1      50.949  34.461  52.972  0.00  0.00    -0.205 NA
ATOM      3  O   UNL d   1      51.833  33.903  51.993  0.00  0.00    -0.263 OA
ENDROOT
BRANCH   1   4
ATOM      4  C   UNL d   1      52.315  34.176  53.313  0.00  0.00     0.162 A 
ATOM      5  N   UNL d   1      52.583  34.829  53.736  0.00  0.00    -0.143 NA
ATOM      6  N   UNL d   1      53.208  34.582  54.233  0.00  0.00    -0.148 NA
ATOM      7  C   UNL d   1      53.315  33.762  54.103  0.00  0.00     0.105 A 
ATOM      8  C   UNL d   1      52.764  33.515  53.535  0.00  0.00     0.044 A 
ATOM      9  C   UNL d   1      53.841  33.227  54.430  0.00  0.00     0.021 A 
ATOM     10  C   UNL d   1      52.750  32.722  53.302  0.00  0.00     0.003 A 
ATOM     11  C   UNL d   1      53.274  32.190  53.628  0.00  0.00     0.000 A 
ATOM     12  C   UNL d   1      53.818  32.439  54.190  0.00  0.00     0.002 A 
ENDBRANCH   1   4
BRANCH   2  13
ATOM     13  C   UNL d   1      50.337  34.463  52.417  0.00  0.00     0.104 C 
BRANCH  13  14
ATOM     14  C   UNL d   1      49.623  34.843  52.573  0.00  0.00     0.042 A 
ATOM     15  C   UNL d   1      49.031  34.875  51.992  0.00  0.00     0.096 A 
ATOM     16  C   UNL d   1      48.329  35.254  52.157  0.00  0.00     0.024 A 
ATOM     17  C   UNL d   1      48.203  35.603  52.893  0.00  0.00     0.002 A 
ATOM     18  C   UNL d   1      48.778  35.577  53.473  0.00  0.00     0.000 A 
ATOM     19  C   UNL d   1      49.499  35.194  53.317  0.00  0.00     0.004 A 
BRANCH  15  20
ATOM     20  O   UNL d   1      49.148  34.528  51.249  0.00  0.00    -0.328 OA
ATOM     21  C   UNL d   1      48.564  34.547  50.673  0.00  0.00     0.181 C 
ENDBRANCH  15  20
ENDBRANCH  13  14
ENDBRANCH   2  13
TORSDOF 4
ENDMDL
