MODEL 1
REMARK VINA RESULT:      60.2      0.000      0.000
REMARK  7 active torsions:
REMARK  status: ('A' for Active; 'I' for Inactive)
REMARK    1  A    between atoms: C_21  and  C_3 
REMARK    2  A    between atoms: S_17  and  C_5 
REMARK    3  A    between atoms: C_11  and  C_16 
REMARK       I    between atoms: N_14  and  C_11 
REMARK    4  A    between atoms: C_19  and  N_14 
REMARK    5  A    between atoms: C_16  and  C_20 
REMARK    6  A    between atoms: C_20  and  S_17 
REMARK    7  A    between atoms: O_27  and  C_22 
ROOT
ATOM      1  C   UNL d   1      13.839  13.244  -3.218  0.00  0.00     0.092 A 
ATOM      2  C   UNL d   1      14.428  13.327  -1.917  0.00  0.00     0.057 A 
ATOM      3  C   UNL d   1      14.086  12.881  -2.516  0.00  0.00     0.016 A 
ATOM      4  N   UNL d   1      14.284  14.504  -2.709  0.00  0.00    -0.239 NA
ATOM      5  C   UNL d   1      13.938  14.056  -3.315  0.00  0.00     0.120 A 
ATOM      6  C   UNL d   1      14.527  14.139  -2.013  0.00  0.00     0.081 A 
ATOM      7  C   UNL d   1      14.671  12.963  -1.222  0.00  0.00     0.193 A 
ATOM      8  C   UNL d   1      13.494  12.792  -3.820  0.00  0.00     0.103 C 
ATOM      9  N   UNL d   1      13.148  12.332  -4.425  0.00  0.00    -0.191 NA
ATOM     10  C   UNL d   1      15.114  14.222  -0.716  0.00  0.00     0.042 A 
ATOM     11  C   UNL d   1      15.015  13.410  -0.620  0.00  0.00     0.019 A 
ATOM     12  C   UNL d   1      14.870  14.587  -1.415  0.00  0.00    -0.003 A 
ATOM     13  O   UNL d   1      14.572  12.151  -1.125  0.00  0.00    -0.287 OA
ATOM     14  C   UNL d   1      15.325  15.010  -0.551  0.00  0.00     0.009 C 
ATOM     15  C   UNL d   1      15.362  13.866  -0.014  0.00  0.00     0.009 C 
ENDROOT
BRANCH   3  16
ATOM     16  C   UNL d   1      13.986  12.068  -2.419  0.00  0.00     0.001 C 
ATOM     17  C   UNL d   1      13.554  11.779  -1.782  0.00  0.00     0.000 C 
ENDBRANCH   3  16
BRANCH   5  18
ATOM     18  S   UNL d   1      13.693  14.421  -4.015  0.00  0.00    -0.067 SA
BRANCH  18  19
ATOM     19  C   UNL d   1      13.850  15.220  -4.136  0.00  0.00     0.042 C 
BRANCH  19  20
ATOM     20  C   UNL d   1      14.321  15.457  -4.776  0.00  0.00     0.070 C 
BRANCH  20  21
ATOM     21  C   UNL d   1      14.386  16.266  -4.960  0.00  0.00     0.280 C 
ATOM     22  N   UNL d   1      13.824  16.617  -5.459  0.00  0.00    -0.208 NA
ATOM     23  O   UNL d   1      15.001  16.716  -4.650  0.00  0.00    -0.265 OA
BRANCH  22  24
ATOM     24  C   UNL d   1      13.888  17.425  -5.643  0.00  0.00     0.085 A 
ATOM     25  C   UNL d   1      14.455  17.894  -5.272  0.00  0.00     0.021 A 
ATOM     26  C   UNL d   1      14.513  18.692  -5.459  0.00  0.00     0.026 A 
ATOM     27  C   UNL d   1      14.008  19.035  -6.018  0.00  0.00     0.094 A 
ATOM     28  C   UNL d   1      13.442  18.568  -6.389  0.00  0.00     0.026 A 
ATOM     29  C   UNL d   1      13.377  17.759  -6.205  0.00  0.00     0.021 A 
BRANCH  27  30
ATOM     30  O   UNL d   1      14.070  19.851  -6.206  0.00  0.00    -0.328 OA
ATOM     31  C   UNL d   1      14.778  20.256  -6.055  0.00  0.00     0.181 C 
ENDBRANCH  27  30
ENDBRANCH  22  24
ENDBRANCH  20  21
ENDBRANCH  19  20
ENDBRANCH  18  19
ENDBRANCH   5  18
TORSDOF 7
ENDMDL
