MODEL 1
REMARK VINA RESULT:      -9.8      0.000      0.000
REMARK  4 active torsions:
REMARK  status: ('A' for Active; 'I' for Inactive)
REMARK    1  A    between atoms: C_7  and  C_2 
REMARK    2  A    between atoms: C_12  and  C_4 
REMARK    3  A    between atoms: C_11  and  C_7 
REMARK    4  A    between atoms: N_18  and  C_12 
ROOT
ATOM      1  C   UNL d   1      52.977  33.337  53.469  0.00  0.00     0.108 A 
ATOM      2  C   UNL d   1      53.727  32.228  53.551  0.00  0.00     0.141 A 
ATOM      3  C   UNL d   1      53.542  33.455  54.059  0.00  0.00     0.064 A 
ATOM      4  C   UNL d   1      52.434  33.929  53.294  0.00  0.00     0.079 A 
ATOM      5  O   UNL d   1      53.089  32.578  53.153  0.00  0.00    -0.304 OA
ATOM      6  C   UNL d   1      54.004  32.769  54.108  0.00  0.00     0.220 A 
ATOM      7  C   UNL d   1      53.567  34.166  54.476  0.00  0.00     0.008 A 
ATOM      8  C   UNL d   1      52.456  34.641  53.708  0.00  0.00     0.199 A 
ATOM      9  C   UNL d   1      53.023  34.760  54.300  0.00  0.00     0.042 A 
ATOM     10  O   UNL d   1      54.639  32.646  54.628  0.00  0.00    -0.284 OA
ATOM     11  O   UNL d   1      51.916  35.234  53.536  0.00  0.00    -0.286 OA
ATOM     12  C   UNL d   1      54.132  34.284  55.065  0.00  0.00     0.000 C 
ENDROOT
BRANCH   2  13
ATOM     13  C   UNL d   1      54.028  31.473  53.413  0.00  0.00     0.053 C 
BRANCH  13  14
ATOM     14  C   UNL d   1      53.511  30.826  53.356  0.00  0.00     0.102 A 
ATOM     15  O   UNL d   1      53.034  30.643  52.711  0.00  0.00    -0.305 OA
ATOM     16  C   UNL d   1      52.616  29.958  52.896  0.00  0.00     0.123 A 
ATOM     17  C   UNL d   1      52.836  29.722  53.653  0.00  0.00     0.029 A 
ATOM     18  C   UNL d   1      53.393  30.264  53.936  0.00  0.00     0.027 A 
ENDBRANCH  13  14
ENDBRANCH   2  13
BRANCH   4  19
ATOM     19  C   UNL d   1      51.867  33.815  52.705  0.00  0.00     0.086 C 
BRANCH  19  20
ATOM     20  N   UNL d   1      51.069  33.808  52.898  0.00  0.00    -0.300 N 
ATOM     21  C   UNL d   1      50.572  34.414  52.640  0.00  0.00     0.100 C 
ATOM     22  C   UNL d   1      50.752  33.190  53.355  0.00  0.00     0.100 C 
ENDBRANCH  19  20
ENDBRANCH   4  19
TORSDOF 4
ENDMDL
MODEL 2
REMARK VINA RESULT:      -9.7      1.371      2.432
REMARK  4 active torsions:
REMARK  status: ('A' for Active; 'I' for Inactive)
REMARK    1  A    between atoms: C_7  and  C_2 
REMARK    2  A    between atoms: C_12  and  C_4 
REMARK    3  A    between atoms: C_11  and  C_7 
REMARK    4  A    between atoms: N_18  and  C_12 
ROOT
ATOM      1  C   UNL d   1      53.171  33.086  53.909  0.00  0.00     0.108 A 
ATOM      2  C   UNL d   1      52.824  32.133  53.033  0.00  0.00     0.141 A 
ATOM      3  C   UNL d   1      52.608  33.404  53.397  0.00  0.00     0.064 A 
ATOM      4  C   UNL d   1      53.489  33.548  54.511  0.00  0.00     0.079 A 
ATOM      5  O   UNL d   1      53.307  32.299  53.686  0.00  0.00    -0.304 OA
ATOM      6  C   UNL d   1      52.394  32.815  52.856  0.00  0.00     0.220 A 
ATOM      7  C   UNL d   1      52.360  34.186  53.485  0.00  0.00     0.008 A 
ATOM      8  C   UNL d   1      53.244  34.329  54.602  0.00  0.00     0.199 A 
ATOM      9  C   UNL d   1      52.678  34.649  54.088  0.00  0.00     0.042 A 
ATOM     10  O   UNL d   1      51.843  32.894  52.242  0.00  0.00    -0.284 OA
ATOM     11  O   UNL d   1      53.559  34.792  55.202  0.00  0.00    -0.286 OA
ATOM     12  C   UNL d   1      51.797  34.505  52.973  0.00  0.00     0.000 C 
ENDROOT
BRANCH   2  13
ATOM     13  C   UNL d   1      52.782  31.414  52.631  0.00  0.00     0.053 C 
BRANCH  13  14
ATOM     14  C   UNL d   1      52.832  30.701  53.055  0.00  0.00     0.102 A 
ATOM     15  O   UNL d   1      52.209  30.318  53.433  0.00  0.00    -0.305 OA
ATOM     16  C   UNL d   1      52.510  29.635  53.781  0.00  0.00     0.123 A 
ATOM     17  C   UNL d   1      53.315  29.599  53.617  0.00  0.00     0.029 A 
ATOM     18  C   UNL d   1      53.513  30.264  53.166  0.00  0.00     0.027 A 
ENDBRANCH  13  14
ENDBRANCH   2  13
BRANCH   4  19
ATOM     19  C   UNL d   1      54.053  33.232  55.026  0.00  0.00     0.086 C 
BRANCH  19  20
ATOM     20  N   UNL d   1      54.827  33.507  55.006  0.00  0.00    -0.300 N 
ATOM     21  C   UNL d   1      55.141  33.913  55.652  0.00  0.00     0.100 C 
ATOM     22  C   UNL d   1      55.302  33.379  54.337  0.00  0.00     0.100 C 
ENDBRANCH  19  20
ENDBRANCH   4  19
TORSDOF 4
ENDMDL
MODEL 3
REMARK VINA RESULT:      -9.4      1.170      3.316
REMARK  4 active torsions:
REMARK  status: ('A' for Active; 'I' for Inactive)
REMARK    1  A    between atoms: C_7  and  C_2 
REMARK    2  A    between atoms: C_12  and  C_4 
REMARK    3  A    between atoms: C_11  and  C_7 
REMARK    4  A    between atoms: N_18  and  C_12 
ROOT
ATOM      1  C   UNL d   1      53.083  32.797  53.433  0.00  0.00     0.108 A 
ATOM      2  C   UNL d   1      52.529  34.009  53.284  0.00  0.00     0.141 A 
ATOM      3  C   UNL d   1      53.413  33.299  53.998  0.00  0.00     0.064 A 
ATOM      4  C   UNL d   1      53.320  32.011  53.391  0.00  0.00     0.079 A 
ATOM      5  O   UNL d   1      52.535  33.234  52.989  0.00  0.00    -0.304 OA
ATOM      6  C   UNL d   1      53.070  34.047  53.906  0.00  0.00     0.220 A 
ATOM      7  C   UNL d   1      53.981  33.016  54.526  0.00  0.00     0.008 A 
ATOM      8  C   UNL d   1      53.887  31.724  53.915  0.00  0.00     0.199 A 
ATOM      9  C   UNL d   1      54.218  32.228  54.484  0.00  0.00     0.042 A 
ATOM     10  O   UNL d   1      53.240  34.720  54.359  0.00  0.00    -0.284 OA
ATOM     11  O   UNL d   1      54.125  30.940  53.876  0.00  0.00    -0.286 OA
ATOM     12  C   UNL d   1      54.311  33.518  55.091  0.00  0.00     0.000 C 
ENDROOT
BRANCH   2  13
ATOM     13  C   UNL d   1      52.064  34.630  53.005  0.00  0.00     0.053 C 
BRANCH  13  14
ATOM     14  C   UNL d   1      51.317  34.472  52.678  0.00  0.00     0.102 A 
ATOM     15  O   UNL d   1      51.162  34.295  51.889  0.00  0.00    -0.305 OA
ATOM     16  C   UNL d   1      50.351  34.179  51.813  0.00  0.00     0.123 A 
ATOM     17  C   UNL d   1      50.008  34.285  52.554  0.00  0.00     0.029 A 
ATOM     18  C   UNL d   1      50.612  34.467  53.089  0.00  0.00     0.027 A 
ENDBRANCH  13  14
ENDBRANCH   2  13
BRANCH   4  19
ATOM     19  C   UNL d   1      52.991  31.506  52.826  0.00  0.00     0.086 C 
BRANCH  19  20
ATOM     20  N   UNL d   1      52.576  30.837  53.063  0.00  0.00    -0.300 N 
ATOM     21  C   UNL d   1      52.917  30.089  52.994  0.00  0.00     0.100 C 
ATOM     22  C   UNL d   1      51.809  30.907  53.373  0.00  0.00     0.100 C 
ENDBRANCH  19  20
ENDBRANCH   4  19
TORSDOF 4
ENDMDL
MODEL 4
REMARK VINA RESULT:      -8.2      1.432      3.203
REMARK  4 active torsions:
REMARK  status: ('A' for Active; 'I' for Inactive)
REMARK    1  A    between atoms: C_7  and  C_2 
REMARK    2  A    between atoms: C_12  and  C_4 
REMARK    3  A    between atoms: C_11  and  C_7 
REMARK    4  A    between atoms: N_18  and  C_12 
ROOT
ATOM      1  C   UNL d   1      53.043  33.425  54.058  0.00  0.00     0.108 A 
ATOM      2  C   UNL d   1      52.050  32.941  53.298  0.00  0.00     0.141 A 
ATOM      3  C   UNL d   1      53.334  32.774  53.643  0.00  0.00     0.064 A 
ATOM      4  C   UNL d   1      53.533  33.838  54.574  0.00  0.00     0.079 A 
ATOM      5  O   UNL d   1      52.248  33.531  53.847  0.00  0.00    -0.304 OA
ATOM      6  C   UNL d   1      52.721  32.476  53.174  0.00  0.00     0.220 A 
ATOM      7  C   UNL d   1      54.117  32.534  53.741  0.00  0.00     0.008 A 
ATOM      8  C   UNL d   1      54.315  33.602  54.675  0.00  0.00     0.199 A 
ATOM      9  C   UNL d   1      54.608  32.948  54.258  0.00  0.00     0.042 A 
ATOM     10  O   UNL d   1      52.769  31.823  52.666  0.00  0.00    -0.284 OA
ATOM     11  O   UNL d   1      54.807  34.012  55.188  0.00  0.00    -0.286 OA
ATOM     12  C   UNL d   1      54.409  31.883  53.326  0.00  0.00     0.000 C 
ENDROOT
BRANCH   2  13
ATOM     13  C   UNL d   1      51.314  32.839  52.941  0.00  0.00     0.053 C 
BRANCH  13  14
ATOM     14  C   UNL d   1      50.843  33.502  52.768  0.00  0.00     0.102 A 
ATOM     15  O   UNL d   1      50.272  33.830  53.260  0.00  0.00    -0.305 OA
ATOM     16  C   UNL d   1      49.945  34.476  52.866  0.00  0.00     0.123 A 
ATOM     17  C   UNL d   1      50.315  34.543  52.135  0.00  0.00     0.029 A 
ATOM     18  C   UNL d   1      50.874  33.935  52.077  0.00  0.00     0.027 A 
ENDBRANCH  13  14
ENDBRANCH   2  13
BRANCH   4  19
ATOM     19  C   UNL d   1      53.245  34.490  54.991  0.00  0.00     0.086 C 
BRANCH  19  20
ATOM     20  N   UNL d   1      53.274  35.239  54.655  0.00  0.00    -0.300 N 
ATOM     21  C   UNL d   1      53.880  35.438  54.132  0.00  0.00     0.100 C 
ATOM     22  C   UNL d   1      52.695  35.806  54.840  0.00  0.00     0.100 C 
ENDBRANCH  19  20
ENDBRANCH   4  19
TORSDOF 4
ENDMDL
MODEL 5
REMARK VINA RESULT:      -7.7      1.142      2.866
REMARK  4 active torsions:
REMARK  status: ('A' for Active; 'I' for Inactive)
REMARK    1  A    between atoms: C_7  and  C_2 
REMARK    2  A    between atoms: C_12  and  C_4 
REMARK    3  A    between atoms: C_11  and  C_7 
REMARK    4  A    between atoms: N_18  and  C_12 
ROOT
ATOM      1  C   UNL d   1      52.707  32.712  53.442  0.00  0.00     0.108 A 
ATOM      2  C   UNL d   1      54.020  32.614  53.692  0.00  0.00     0.141 A 
ATOM      3  C   UNL d   1      52.935  31.931  53.304  0.00  0.00     0.064 A 
ATOM      4  C   UNL d   1      51.924  32.938  53.333  0.00  0.00     0.079 A 
ATOM      5  O   UNL d   1      53.377  33.137  53.683  0.00  0.00    -0.304 OA
ATOM      6  C   UNL d   1      53.746  31.872  53.459  0.00  0.00     0.220 A 
ATOM      7  C   UNL d   1      52.381  31.372  53.057  0.00  0.00     0.008 A 
ATOM      8  C   UNL d   1      51.367  32.384  53.086  0.00  0.00     0.199 A 
ATOM      9  C   UNL d   1      51.596  31.599  52.947  0.00  0.00     0.042 A 
ATOM     10  O   UNL d   1      54.207  31.186  53.392  0.00  0.00    -0.284 OA
ATOM     11  O   UNL d   1      50.585  32.606  52.976  0.00  0.00    -0.286 OA
ATOM     12  C   UNL d   1      52.609  30.591  52.918  0.00  0.00     0.000 C 
ENDROOT
BRANCH   2  13
ATOM     13  C   UNL d   1      54.796  32.804  53.899  0.00  0.00     0.053 C 
BRANCH  13  14
ATOM     14  C   UNL d   1      54.944  33.256  54.580  0.00  0.00     0.102 A 
ATOM     15  O   UNL d   1      54.733  33.053  55.349  0.00  0.00    -0.305 OA
ATOM     16  C   UNL d   1      54.987  33.660  55.845  0.00  0.00     0.123 A 
ATOM     17  C   UNL d   1      55.351  34.233  55.382  0.00  0.00     0.029 A 
ATOM     18  C   UNL d   1      55.323  33.979  54.595  0.00  0.00     0.027 A 
ENDBRANCH  13  14
ENDBRANCH   2  13
BRANCH   4  19
ATOM     19  C   UNL d   1      51.692  33.718  53.471  0.00  0.00     0.086 C 
BRANCH  19  20
ATOM     20  N   UNL d   1      51.399  34.175  52.854  0.00  0.00    -0.300 N 
ATOM     21  C   UNL d   1      50.596  34.362  52.819  0.00  0.00     0.100 C 
ATOM     22  C   UNL d   1      51.906  34.454  52.258  0.00  0.00     0.100 C 
ENDBRANCH  19  20
ENDBRANCH   4  19
TORSDOF 4
ENDMDL
