MODEL 1
REMARK VINA RESULT:      -9.5      0.000      0.000
REMARK  5 active torsions:
REMARK  status: ('A' for Active; 'I' for Inactive)
REMARK    1  A    between atoms: N_4  and  S_1 
REMARK    2  A    between atoms: C_5  and  S_1 
REMARK       I    between atoms: N_2  and  C_3 
REMARK    3  A    between atoms: C_3  and  C_11 
REMARK    4  A    between atoms: C_21  and  N_4 
REMARK    5  A    between atoms: C_12  and  C_13 
ROOT
ATOM      1  C   UNL d   1      52.336  34.399  53.587  0.00  0.00     0.057 A 
ATOM      2  C   UNL d   1      51.084  34.048  52.576  0.00  0.00     0.094 A 
ATOM      3  C   UNL d   1      52.368  34.635  52.802  0.00  0.00     0.006 A 
ATOM      4  C   UNL d   1      51.676  33.986  53.872  0.00  0.00     0.006 A 
ATOM      5  C   UNL d   1      51.744  34.462  52.291  0.00  0.00     0.020 A 
ATOM      6  C   UNL d   1      51.052  33.813  53.361  0.00  0.00     0.020 A 
ENDROOT
BRANCH   2   7
ATOM      7  N   UNL d   1      50.460  33.876  52.065  0.00  0.00    -0.158 NA
BRANCH   7   8
ATOM      8  S   UNL d   1      49.770  34.337  52.075  0.00  0.00     0.285 S 
ATOM      9  O   UNL d   1      50.020  34.726  51.391  0.00  0.00    -0.198 OA
ATOM     10  O   UNL d   1      49.522  33.944  52.763  0.00  0.00    -0.198 OA
BRANCH   8  11
ATOM     11  C   UNL d   1      49.076  34.801  52.087  0.00  0.00     0.105 A 
ATOM     12  C   UNL d   1      48.894  35.241  52.758  0.00  0.00     0.013 A 
ATOM     13  C   UNL d   1      48.212  35.698  52.773  0.00  0.00    -0.004 A 
ATOM     14  C   UNL d   1      47.710  35.717  52.118  0.00  0.00    -0.023 A 
ATOM     15  C   UNL d   1      47.902  35.272  51.452  0.00  0.00    -0.004 A 
ATOM     16  C   UNL d   1      48.580  34.815  51.430  0.00  0.00     0.013 A 
BRANCH  14  17
ATOM     17  C   UNL d   1      47.014  36.177  52.121  0.00  0.00     0.019 C 
ATOM     18  C   UNL d   1      46.325  36.636  52.126  0.00  0.00     0.004 C 
ATOM     19  C   UNL d   1      47.358  36.694  52.671  0.00  0.00     0.004 C 
ATOM     20  C   UNL d   1      46.677  35.658  51.572  0.00  0.00     0.004 C 
ENDBRANCH  14  17
ENDBRANCH   8  11
ENDBRANCH   7   8
ENDBRANCH   2   7
BRANCH   1  21
ATOM     21  C   UNL d   1      52.960  34.572  54.098  0.00  0.00     0.265 C 
ATOM     22  N   UNL d   1      53.545  33.992  54.239  0.00  0.00    -0.268 N 
ATOM     23  C   UNL d   1      53.499  33.255  53.871  0.00  0.00     0.108 A 
ATOM     24  C   UNL d   1      54.169  34.165  54.750  0.00  0.00     0.108 A 
ATOM     25  C   UNL d   1      54.085  32.683  54.016  0.00  0.00     0.118 A 
ATOM     26  C   UNL d   1      54.039  31.941  53.646  0.00  0.00     0.028 C 
ATOM     27  O   UNL d   1      54.709  32.855  54.527  0.00  0.00    -0.304 OA
ATOM     28  C   UNL d   1      54.759  33.593  54.897  0.00  0.00     0.118 A 
ATOM     29  C   UNL d   1      55.387  33.762  55.409  0.00  0.00     0.028 C 
ATOM     30  O   UNL d   1      53.004  35.306  54.463  0.00  0.00    -0.267 OA
ENDBRANCH   1  21
TORSDOF 5
ENDMDL
MODEL 2
REMARK VINA RESULT:      -8.7      1.623      6.133
REMARK  5 active torsions:
REMARK  status: ('A' for Active; 'I' for Inactive)
REMARK    1  A    between atoms: N_4  and  S_1 
REMARK    2  A    between atoms: C_5  and  S_1 
REMARK       I    between atoms: N_2  and  C_3 
REMARK    3  A    between atoms: C_3  and  C_11 
REMARK    4  A    between atoms: C_21  and  N_4 
REMARK    5  A    between atoms: C_12  and  C_13 
ROOT
ATOM      1  C   UNL d   1      49.455  34.538  51.847  0.00  0.00     0.057 A 
ATOM      2  C   UNL d   1      50.943  34.359  52.531  0.00  0.00     0.094 A 
ATOM      3  C   UNL d   1      49.518  34.336  52.640  0.00  0.00     0.006 A 
ATOM      4  C   UNL d   1      50.138  34.653  51.390  0.00  0.00     0.006 A 
ATOM      5  C   UNL d   1      50.260  34.245  52.987  0.00  0.00     0.020 A 
ATOM      6  C   UNL d   1      50.881  34.562  51.738  0.00  0.00     0.020 A 
ENDROOT
BRANCH   2   7
ATOM      7  N   UNL d   1      51.686  34.269  52.879  0.00  0.00    -0.158 NA
BRANCH   7   8
ATOM      8  S   UNL d   1      52.011  33.512  52.979  0.00  0.00     0.285 S 
ATOM      9  O   UNL d   1      52.271  33.518  52.196  0.00  0.00    -0.198 OA
ATOM     10  O   UNL d   1      51.749  33.509  53.768  0.00  0.00    -0.198 OA
BRANCH   8  11
ATOM     11  C   UNL d   1      52.338  32.750  53.083  0.00  0.00     0.105 A 
ATOM     12  C   UNL d   1      53.129  32.674  53.295  0.00  0.00     0.013 A 
ATOM     13  C   UNL d   1      53.453  31.927  53.398  0.00  0.00    -0.004 A 
ATOM     14  C   UNL d   1      52.989  31.253  53.289  0.00  0.00    -0.023 A 
ATOM     15  C   UNL d   1      52.198  31.342  53.076  0.00  0.00    -0.004 A 
ATOM     16  C   UNL d   1      51.868  32.083  52.972  0.00  0.00     0.013 A 
BRANCH  14  17
ATOM     17  C   UNL d   1      53.306  30.489  53.390  0.00  0.00     0.019 C 
ATOM     18  C   UNL d   1      53.619  29.729  53.488  0.00  0.00     0.004 C 
ATOM     19  C   UNL d   1      52.874  30.223  52.733  0.00  0.00     0.004 C 
ATOM     20  C   UNL d   1      53.734  30.760  54.044  0.00  0.00     0.004 C 
ENDBRANCH  14  17
ENDBRANCH   8  11
ENDBRANCH   7   8
ENDBRANCH   2   7
BRANCH   1  21
ATOM     21  C   UNL d   1      48.713  34.629  51.499  0.00  0.00     0.265 C 
ATOM     22  N   UNL d   1      48.186  35.200  51.805  0.00  0.00    -0.268 N 
ATOM     23  C   UNL d   1      48.406  35.669  52.448  0.00  0.00     0.108 A 
ATOM     24  C   UNL d   1      47.443  35.291  51.457  0.00  0.00     0.108 A 
ATOM     25  C   UNL d   1      47.876  36.236  52.747  0.00  0.00     0.118 A 
ATOM     26  C   UNL d   1      48.096  36.708  53.393  0.00  0.00     0.028 C 
ATOM     27  O   UNL d   1      47.133  36.327  52.400  0.00  0.00    -0.304 OA
ATOM     28  C   UNL d   1      46.910  35.859  51.755  0.00  0.00     0.118 A 
ATOM     29  C   UNL d   1      46.163  35.954  51.410  0.00  0.00     0.028 C 
ATOM     30  O   UNL d   1      48.496  34.162  50.860  0.00  0.00    -0.267 OA
ENDBRANCH   1  21
TORSDOF 5
ENDMDL
MODEL 3
REMARK VINA RESULT:      -8.4      1.858      6.051
REMARK  5 active torsions:
REMARK  status: ('A' for Active; 'I' for Inactive)
REMARK    1  A    between atoms: N_4  and  S_1 
REMARK    2  A    between atoms: C_5  and  S_1 
REMARK       I    between atoms: N_2  and  C_3 
REMARK    3  A    between atoms: C_3  and  C_11 
REMARK    4  A    between atoms: C_21  and  N_4 
REMARK    5  A    between atoms: C_12  and  C_13 
ROOT
ATOM      1  C   UNL d   1      50.772  34.375  53.098  0.00  0.00     0.057 A 
ATOM      2  C   UNL d   1      52.090  33.468  52.706  0.00  0.00     0.094 A 
ATOM      3  C   UNL d   1      50.704  33.560  53.042  0.00  0.00     0.006 A 
ATOM      4  C   UNL d   1      51.502  34.743  52.958  0.00  0.00     0.006 A 
ATOM      5  C   UNL d   1      51.360  33.100  52.846  0.00  0.00     0.020 A 
ATOM      6  C   UNL d   1      52.159  34.284  52.762  0.00  0.00     0.020 A 
ENDROOT
BRANCH   2   7
ATOM      7  N   UNL d   1      52.747  33.009  52.510  0.00  0.00    -0.158 NA
BRANCH   7   8
ATOM      8  S   UNL d   1      52.872  32.278  52.880  0.00  0.00     0.285 S 
ATOM      9  O   UNL d   1      53.246  32.659  53.509  0.00  0.00    -0.198 OA
ATOM     10  O   UNL d   1      52.495  31.896  52.246  0.00  0.00    -0.198 OA
BRANCH   8  11
ATOM     11  C   UNL d   1      52.997  31.540  53.252  0.00  0.00     0.105 A 
ATOM     12  C   UNL d   1      52.640  30.865  52.944  0.00  0.00     0.013 A 
ATOM     13  C   UNL d   1      52.761  30.139  53.307  0.00  0.00    -0.004 A 
ATOM     14  C   UNL d   1      53.238  30.083  53.978  0.00  0.00    -0.023 A 
ATOM     15  C   UNL d   1      53.590  30.766  54.278  0.00  0.00    -0.004 A 
ATOM     16  C   UNL d   1      53.474  31.493  53.921  0.00  0.00     0.013 A 
BRANCH  14  17
ATOM     17  C   UNL d   1      53.368  29.352  54.356  0.00  0.00     0.019 C 
ATOM     18  C   UNL d   1      53.499  28.624  54.729  0.00  0.00     0.004 C 
ATOM     19  C   UNL d   1      53.773  29.078  53.686  0.00  0.00     0.004 C 
ATOM     20  C   UNL d   1      52.964  29.631  55.022  0.00  0.00     0.004 C 
ENDBRANCH  14  17
ENDBRANCH   8  11
ENDBRANCH   7   8
ENDBRANCH   2   7
BRANCH   1  21
ATOM     21  C   UNL d   1      50.116  34.835  53.294  0.00  0.00     0.265 C 
ATOM     22  N   UNL d   1      49.511  34.945  52.728  0.00  0.00    -0.268 N 
ATOM     23  C   UNL d   1      49.571  34.599  51.981  0.00  0.00     0.108 A 
ATOM     24  C   UNL d   1      48.855  35.405  52.924  0.00  0.00     0.108 A 
ATOM     25  C   UNL d   1      48.965  34.714  51.423  0.00  0.00     0.118 A 
ATOM     26  C   UNL d   1      49.023  34.367  50.672  0.00  0.00     0.028 C 
ATOM     27  O   UNL d   1      48.308  35.173  51.619  0.00  0.00    -0.304 OA
ATOM     28  C   UNL d   1      48.245  35.521  52.366  0.00  0.00     0.118 A 
ATOM     29  C   UNL d   1      47.584  35.982  52.559  0.00  0.00     0.028 C 
ATOM     30  O   UNL d   1      50.059  35.178  54.038  0.00  0.00    -0.267 OA
ENDBRANCH   1  21
TORSDOF 5
ENDMDL
MODEL 4
REMARK VINA RESULT:      -7.7      1.373      6.069
REMARK  5 active torsions:
REMARK  status: ('A' for Active; 'I' for Inactive)
REMARK    1  A    between atoms: N_4  and  S_1 
REMARK    2  A    between atoms: C_5  and  S_1 
REMARK       I    between atoms: N_2  and  C_3 
REMARK    3  A    between atoms: C_3  and  C_11 
REMARK    4  A    between atoms: C_21  and  N_4 
REMARK    5  A    between atoms: C_12  and  C_13 
ROOT
ATOM      1  C   UNL d   1      49.420  35.056  52.984  0.00  0.00     0.057 A 
ATOM      2  C   UNL d   1      50.677  34.037  52.674  0.00  0.00     0.094 A 
ATOM      3  C   UNL d   1      49.471  34.340  53.381  0.00  0.00     0.006 A 
ATOM      4  C   UNL d   1      49.999  35.268  52.429  0.00  0.00     0.006 A 
ATOM      5  C   UNL d   1      50.098  33.825  53.229  0.00  0.00     0.020 A 
ATOM      6  C   UNL d   1      50.626  34.753  52.278  0.00  0.00     0.020 A 
ENDROOT
BRANCH   2   7
ATOM      7  N   UNL d   1      51.304  33.522  52.523  0.00  0.00    -0.158 NA
BRANCH   7   8
ATOM      8  S   UNL d   1      51.981  33.535  53.002  0.00  0.00     0.285 S 
ATOM      9  O   UNL d   1      51.680  32.907  53.446  0.00  0.00    -0.198 OA
ATOM     10  O   UNL d   1      52.281  34.167  52.554  0.00  0.00    -0.198 OA
BRANCH   8  11
ATOM     11  C   UNL d   1      52.663  33.550  53.484  0.00  0.00     0.105 A 
ATOM     12  C   UNL d   1      52.944  32.850  53.811  0.00  0.00     0.013 A 
ATOM     13  C   UNL d   1      53.614  32.861  54.285  0.00  0.00    -0.004 A 
ATOM     14  C   UNL d   1      54.007  33.571  54.433  0.00  0.00    -0.023 A 
ATOM     15  C   UNL d   1      53.717  34.267  54.099  0.00  0.00    -0.004 A 
ATOM     16  C   UNL d   1      53.049  34.263  53.626  0.00  0.00     0.013 A 
BRANCH  14  17
ATOM     17  C   UNL d   1      54.689  33.596  54.912  0.00  0.00     0.019 C 
ATOM     18  C   UNL d   1      55.364  33.622  55.390  0.00  0.00     0.004 C 
ATOM     19  C   UNL d   1      54.227  33.835  55.558  0.00  0.00     0.004 C 
ATOM     20  C   UNL d   1      55.145  33.358  54.264  0.00  0.00     0.004 C 
ENDBRANCH  14  17
ENDBRANCH   8  11
ENDBRANCH   7   8
ENDBRANCH   2   7
BRANCH   1  21
ATOM     21  C   UNL d   1      48.793  35.571  53.135  0.00  0.00     0.265 C 
ATOM     22  N   UNL d   1      48.165  35.620  52.587  0.00  0.00    -0.268 N 
ATOM     23  C   UNL d   1      48.172  35.160  51.902  0.00  0.00     0.108 A 
ATOM     24  C   UNL d   1      47.538  36.135  52.738  0.00  0.00     0.108 A 
ATOM     25  C   UNL d   1      47.542  35.215  51.360  0.00  0.00     0.118 A 
ATOM     26  C   UNL d   1      47.548  34.753  50.672  0.00  0.00     0.028 C 
ATOM     27  O   UNL d   1      46.915  35.730  51.512  0.00  0.00    -0.304 OA
ATOM     28  C   UNL d   1      46.906  36.192  52.197  0.00  0.00     0.118 A 
ATOM     29  C   UNL d   1      46.274  36.707  52.345  0.00  0.00     0.028 C 
ATOM     30  O   UNL d   1      48.789  36.027  53.817  0.00  0.00    -0.267 OA
ENDBRANCH   1  21
TORSDOF 5
ENDMDL
MODEL 5
REMARK VINA RESULT:      -7.1      1.807      2.952
REMARK  5 active torsions:
REMARK  status: ('A' for Active; 'I' for Inactive)
REMARK    1  A    between atoms: N_4  and  S_1 
REMARK    2  A    between atoms: C_5  and  S_1 
REMARK       I    between atoms: N_2  and  C_3 
REMARK    3  A    between atoms: C_3  and  C_11 
REMARK    4  A    between atoms: C_21  and  N_4 
REMARK    5  A    between atoms: C_12  and  C_13 
ROOT
ATOM      1  C   UNL d   1      53.432  32.232  54.111  0.00  0.00     0.057 A 
ATOM      2  C   UNL d   1      52.950  33.606  53.340  0.00  0.00     0.094 A 
ATOM      3  C   UNL d   1      53.789  32.450  53.405  0.00  0.00     0.006 A 
ATOM      4  C   UNL d   1      52.831  32.702  54.437  0.00  0.00     0.006 A 
ATOM      5  C   UNL d   1      53.552  33.136  53.014  0.00  0.00     0.020 A 
ATOM      6  C   UNL d   1      52.594  33.388  54.046  0.00  0.00     0.020 A 
ENDROOT
BRANCH   2   7
ATOM      7  N   UNL d   1      52.713  34.293  52.949  0.00  0.00    -0.158 NA
BRANCH   7   8
ATOM      8  S   UNL d   1      51.941  34.361  52.654  0.00  0.00     0.285 S 
ATOM      9  O   UNL d   1      52.150  33.905  51.998  0.00  0.00    -0.198 OA
ATOM     10  O   UNL d   1      51.733  34.819  53.315  0.00  0.00    -0.198 OA
BRANCH   8  11
ATOM     11  C   UNL d   1      51.162  34.430  52.359  0.00  0.00     0.105 A 
ATOM     12  C   UNL d   1      51.012  34.258  51.569  0.00  0.00     0.013 A 
ATOM     13  C   UNL d   1      50.248  34.326  51.275  0.00  0.00    -0.004 A 
ATOM     14  C   UNL d   1      49.632  34.565  51.770  0.00  0.00    -0.023 A 
ATOM     15  C   UNL d   1      49.795  34.735  52.559  0.00  0.00    -0.004 A 
ATOM     16  C   UNL d   1      50.554  34.670  52.859  0.00  0.00     0.013 A 
BRANCH  14  17
ATOM     17  C   UNL d   1      48.853  34.638  51.484  0.00  0.00     0.019 C 
ATOM     18  C   UNL d   1      48.079  34.708  51.197  0.00  0.00     0.004 C 
ATOM     19  C   UNL d   1      49.078  34.270  50.775  0.00  0.00     0.004 C 
ATOM     20  C   UNL d   1      48.634  35.004  52.193  0.00  0.00     0.004 C 
ENDBRANCH  14  17
ENDBRANCH   8  11
ENDBRANCH   7   8
ENDBRANCH   2   7
BRANCH   1  21
ATOM     21  C   UNL d   1      53.669  31.545  54.502  0.00  0.00     0.265 C 
ATOM     22  N   UNL d   1      53.424  30.803  54.208  0.00  0.00    -0.268 N 
ATOM     23  C   UNL d   1      52.949  30.758  53.534  0.00  0.00     0.108 A 
ATOM     24  C   UNL d   1      53.661  30.116  54.598  0.00  0.00     0.108 A 
ATOM     25  C   UNL d   1      52.708  30.015  53.247  0.00  0.00     0.118 A 
ATOM     26  C   UNL d   1      52.231  29.967  52.570  0.00  0.00     0.028 C 
ATOM     27  O   UNL d   1      52.946  29.328  53.638  0.00  0.00    -0.304 OA
ATOM     28  C   UNL d   1      53.421  29.370  54.313  0.00  0.00     0.118 A 
ATOM     29  C   UNL d   1      53.657  28.678  54.702  0.00  0.00     0.028 C 
ATOM     30  O   UNL d   1      54.141  31.593  55.172  0.00  0.00    -0.267 OA
ENDBRANCH   1  21
TORSDOF 5
ENDMDL
MODEL 6
REMARK VINA RESULT:      -7.1      1.730      2.590
REMARK  5 active torsions:
REMARK  status: ('A' for Active; 'I' for Inactive)
REMARK    1  A    between atoms: N_4  and  S_1 
REMARK    2  A    between atoms: C_5  and  S_1 
REMARK       I    between atoms: N_2  and  C_3 
REMARK    3  A    between atoms: C_3  and  C_11 
REMARK    4  A    between atoms: C_21  and  N_4 
REMARK    5  A    between atoms: C_12  and  C_13 
ROOT
ATOM      1  C   UNL d   1      50.417  33.982  53.038  0.00  0.00     0.057 A 
ATOM      2  C   UNL d   1      49.392  35.237  52.736  0.00  0.00     0.094 A 
ATOM      3  C   UNL d   1      50.139  34.107  52.276  0.00  0.00     0.006 A 
ATOM      4  C   UNL d   1      50.183  34.485  53.655  0.00  0.00     0.006 A 
ATOM      5  C   UNL d   1      49.626  34.734  52.119  0.00  0.00     0.020 A 
ATOM      6  C   UNL d   1      49.670  35.112  53.498  0.00  0.00     0.020 A 
ENDROOT
BRANCH   2   7
ATOM      7  N   UNL d   1      48.879  35.863  52.578  0.00  0.00    -0.158 NA
BRANCH   7   8
ATOM      8  S   UNL d   1      48.121  35.878  52.915  0.00  0.00     0.285 S 
ATOM      9  O   UNL d   1      47.807  35.551  52.225  0.00  0.00    -0.198 OA
ATOM     10  O   UNL d   1      48.439  36.206  53.608  0.00  0.00    -0.198 OA
BRANCH   8  11
ATOM     11  C   UNL d   1      47.358  35.893  53.256  0.00  0.00     0.105 A 
ATOM     12  C   UNL d   1      46.707  35.680  52.801  0.00  0.00     0.013 A 
ATOM     13  C   UNL d   1      45.956  35.694  53.133  0.00  0.00    -0.004 A 
ATOM     14  C   UNL d   1      45.853  35.921  53.919  0.00  0.00    -0.023 A 
ATOM     15  C   UNL d   1      46.513  36.132  54.365  0.00  0.00    -0.004 A 
ATOM     16  C   UNL d   1      47.264  36.120  54.041  0.00  0.00     0.013 A 
BRANCH  14  17
ATOM     17  C   UNL d   1      45.096  35.940  54.268  0.00  0.00     0.019 C 
ATOM     18  C   UNL d   1      44.344  35.961  54.613  0.00  0.00     0.004 C 
ATOM     19  C   UNL d   1      44.969  36.696  53.952  0.00  0.00     0.004 C 
ATOM     20  C   UNL d   1      45.229  35.185  54.581  0.00  0.00     0.004 C 
ENDBRANCH  14  17
ENDBRANCH   8  11
ENDBRANCH   7   8
ENDBRANCH   2   7
BRANCH   1  21
ATOM     21  C   UNL d   1      50.930  33.356  53.195  0.00  0.00     0.265 C 
ATOM     22  N   UNL d   1      51.745  33.510  53.291  0.00  0.00    -0.268 N 
ATOM     23  C   UNL d   1      52.034  34.281  53.228  0.00  0.00     0.108 A 
ATOM     24  C   UNL d   1      52.258  32.884  53.448  0.00  0.00     0.108 A 
ATOM     25  C   UNL d   1      52.847  34.427  53.325  0.00  0.00     0.118 A 
ATOM     26  C   UNL d   1      53.139  35.201  53.262  0.00  0.00     0.028 C 
ATOM     27  O   UNL d   1      53.360  33.801  53.482  0.00  0.00    -0.304 OA
ATOM     28  C   UNL d   1      53.075  33.027  53.545  0.00  0.00     0.118 A 
ATOM     29  C   UNL d   1      53.593  32.401  53.703  0.00  0.00     0.028 C 
ATOM     30  O   UNL d   1      50.640  32.590  53.257  0.00  0.00    -0.267 OA
ENDBRANCH   1  21
TORSDOF 5
ENDMDL
