MODEL 1
REMARK VINA RESULT:      -9.9      0.000      0.000
REMARK  3 active torsions:
REMARK  status: ('A' for Active; 'I' for Inactive)
REMARK    1  A    between atoms: C_9  and  C_4 
REMARK    2  A    between atoms: C_10  and  C_7 
REMARK    3  A    between atoms: C_13  and  C_10 
ROOT
ATOM      1  C   UNL d   1      51.508  33.195  53.149  0.00  0.00     0.179 A 
ATOM      2  N   UNL d   1      51.945  33.822  52.824  0.00  0.00    -0.282 N 
ATOM      3  N   UNL d   1      50.709  33.361  53.058  0.00  0.00    -0.221 NA
ATOM      4  C   UNL d   1      50.645  34.099  52.673  0.00  0.00     0.101 A 
ATOM      5  S   UNL d   1      52.040  32.637  53.442  0.00  0.00    -0.048 SA
ATOM      6  C   UNL d   1      51.405  34.375  52.534  0.00  0.00     0.101 A 
ATOM      7  C   UNL d   1      52.805  32.921  53.298  0.00  0.00     0.050 A 
ATOM      8  C   UNL d   1      52.740  33.642  52.923  0.00  0.00     0.089 A 
ENDROOT
BRANCH   7   9
ATOM      9  C   UNL d   1      53.505  32.529  53.507  0.00  0.00     0.008 C 
BRANCH   9  10
ATOM     10  C   UNL d   1      54.015  32.852  54.058  0.00  0.00     0.001 A 
ATOM     11  C   UNL d   1      54.696  33.257  53.804  0.00  0.00     0.002 A 
ATOM     12  C   UNL d   1      55.213  33.584  54.365  0.00  0.00     0.030 A 
ATOM     13  C   UNL d   1      55.053  33.508  55.170  0.00  0.00     0.140 A 
ATOM     14  C   UNL d   1      54.378  33.106  55.423  0.00  0.00     0.030 A 
ATOM     15  F   UNL d   1      55.555  33.826  55.736  0.00  0.00    -0.204 F 
ATOM     16  C   UNL d   1      53.861  32.779  54.865  0.00  0.00     0.002 A 
ENDBRANCH   9  10
ENDBRANCH   7   9
BRANCH   4  17
ATOM     17  C   UNL d   1      49.944  34.474  52.474  0.00  0.00     0.019 A 
ATOM     18  C   UNL d   1      49.576  34.956  53.026  0.00  0.00     0.004 A 
ATOM     19  C   UNL d   1      48.867  35.341  52.836  0.00  0.00     0.030 A 
ATOM     20  C   UNL d   1      48.535  35.235  52.085  0.00  0.00     0.140 A 
ATOM     21  C   UNL d   1      48.903  34.754  51.533  0.00  0.00     0.030 A 
ATOM     22  F   UNL d   1      47.852  35.536  51.739  0.00  0.00    -0.204 F 
ATOM     23  C   UNL d   1      49.607  34.372  51.723  0.00  0.00     0.004 A 
ENDBRANCH   4  17
TORSDOF 3
ENDMDL
MODEL 2
REMARK VINA RESULT:      -8.2      1.586      2.010
REMARK  3 active torsions:
REMARK  status: ('A' for Active; 'I' for Inactive)
REMARK    1  A    between atoms: C_9  and  C_4 
REMARK    2  A    between atoms: C_10  and  C_7 
REMARK    3  A    between atoms: C_13  and  C_10 
ROOT
ATOM      1  C   UNL d   1      51.558  33.909  52.537  0.00  0.00     0.179 A 
ATOM      2  N   UNL d   1      51.236  33.581  53.229  0.00  0.00    -0.282 N 
ATOM      3  N   UNL d   1      50.984  34.372  52.178  0.00  0.00    -0.221 NA
ATOM      4  C   UNL d   1      50.296  34.335  52.649  0.00  0.00     0.101 A 
ATOM      5  S   UNL d   1      52.337  33.645  52.468  0.00  0.00    -0.048 SA
ATOM      6  C   UNL d   1      50.458  33.850  53.290  0.00  0.00     0.101 A 
ATOM      7  C   UNL d   1      52.494  33.155  53.118  0.00  0.00     0.050 A 
ATOM      8  C   UNL d   1      51.821  33.121  53.577  0.00  0.00     0.089 A 
ENDROOT
BRANCH   7   9
ATOM      9  C   UNL d   1      53.216  32.774  53.262  0.00  0.00     0.008 C 
BRANCH   9  10
ATOM     10  C   UNL d   1      53.247  31.962  53.350  0.00  0.00     0.001 A 
ATOM     11  C   UNL d   1      53.521  31.633  54.065  0.00  0.00     0.002 A 
ATOM     12  C   UNL d   1      53.553  30.809  54.152  0.00  0.00     0.030 A 
ATOM     13  C   UNL d   1      53.314  30.317  53.536  0.00  0.00     0.140 A 
ATOM     14  C   UNL d   1      53.042  30.642  52.827  0.00  0.00     0.030 A 
ATOM     15  F   UNL d   1      53.339  29.499  53.608  0.00  0.00    -0.204 F 
ATOM     16  C   UNL d   1      53.010  31.464  52.737  0.00  0.00     0.002 A 
ENDBRANCH   9  10
ENDBRANCH   7   9
BRANCH   4  17
ATOM     17  C   UNL d   1      49.589  34.719  52.493  0.00  0.00     0.019 A 
ATOM     18  C   UNL d   1      49.254  35.195  53.070  0.00  0.00     0.004 A 
ATOM     19  C   UNL d   1      48.539  35.588  52.925  0.00  0.00     0.030 A 
ATOM     20  C   UNL d   1      48.167  35.496  52.191  0.00  0.00     0.140 A 
ATOM     21  C   UNL d   1      48.501  35.020  51.613  0.00  0.00     0.030 A 
ATOM     22  F   UNL d   1      47.469  35.806  51.886  0.00  0.00    -0.204 F 
ATOM     23  C   UNL d   1      49.211  34.630  51.759  0.00  0.00     0.004 A 
ENDBRANCH   4  17
TORSDOF 3
ENDMDL
MODEL 3
REMARK VINA RESULT:      -7.9      2.425      5.399
REMARK  3 active torsions:
REMARK  status: ('A' for Active; 'I' for Inactive)
REMARK    1  A    between atoms: C_9  and  C_4 
REMARK    2  A    between atoms: C_10  and  C_7 
REMARK    3  A    between atoms: C_13  and  C_10 
ROOT
ATOM      1  C   UNL d   1      53.002  32.163  53.585  0.00  0.00     0.179 A 
ATOM      2  N   UNL d   1      52.525  31.818  52.998  0.00  0.00    -0.282 N 
ATOM      3  N   UNL d   1      53.330  31.562  54.038  0.00  0.00    -0.221 NA
ATOM      4  C   UNL d   1      53.057  30.835  53.732  0.00  0.00     0.101 A 
ATOM      5  S   UNL d   1      52.967  32.982  53.494  0.00  0.00    -0.048 SA
ATOM      6  C   UNL d   1      52.565  31.000  53.097  0.00  0.00     0.101 A 
ATOM      7  C   UNL d   1      52.470  33.142  52.851  0.00  0.00     0.050 A 
ATOM      8  C   UNL d   1      52.204  32.430  52.554  0.00  0.00     0.089 A 
ENDROOT
BRANCH   7   9
ATOM      9  C   UNL d   1      52.284  33.900  52.571  0.00  0.00     0.008 C 
BRANCH   9  10
ATOM     10  C   UNL d   1      51.510  34.165  52.568  0.00  0.00     0.001 A 
ATOM     11  C   UNL d   1      51.063  34.129  51.867  0.00  0.00     0.002 A 
ATOM     12  C   UNL d   1      50.278  34.398  51.866  0.00  0.00     0.030 A 
ATOM     13  C   UNL d   1      49.943  34.700  52.556  0.00  0.00     0.140 A 
ATOM     14  C   UNL d   1      50.385  34.736  53.252  0.00  0.00     0.030 A 
ATOM     15  F   UNL d   1      49.167  34.970  52.570  0.00  0.00    -0.204 F 
ATOM     16  C   UNL d   1      51.169  34.468  53.255  0.00  0.00     0.002 A 
ENDBRANCH   9  10
ENDBRANCH   7   9
BRANCH   4  17
ATOM     17  C   UNL d   1      53.250  30.093  54.021  0.00  0.00     0.019 A 
ATOM     18  C   UNL d   1      53.661  29.570  53.541  0.00  0.00     0.004 A 
ATOM     19  C   UNL d   1      53.862  28.816  53.822  0.00  0.00     0.030 A 
ATOM     20  C   UNL d   1      53.644  28.597  54.590  0.00  0.00     0.140 A 
ATOM     21  C   UNL d   1      53.234  29.120  55.070  0.00  0.00     0.030 A 
ATOM     22  F   UNL d   1      53.761  27.904  55.018  0.00  0.00    -0.204 F 
ATOM     23  C   UNL d   1      53.035  29.868  54.790  0.00  0.00     0.004 A 
ENDBRANCH   4  17
TORSDOF 3
ENDMDL
MODEL 4
REMARK VINA RESULT:      -7.7      2.772      3.939
REMARK  3 active torsions:
REMARK  status: ('A' for Active; 'I' for Inactive)
REMARK    1  A    between atoms: C_9  and  C_4 
REMARK    2  A    between atoms: C_10  and  C_7 
REMARK    3  A    between atoms: C_13  and  C_10 
ROOT
ATOM      1  C   UNL d   1      52.774  32.347  53.391  0.00  0.00     0.179 A 
ATOM      2  N   UNL d   1      53.522  32.279  53.746  0.00  0.00    -0.282 N 
ATOM      3  N   UNL d   1      52.519  33.123  53.473  0.00  0.00    -0.221 NA
ATOM      4  C   UNL d   1      53.112  33.544  53.882  0.00  0.00     0.101 A 
ATOM      5  S   UNL d   1      52.565  31.609  53.089  0.00  0.00    -0.048 SA
ATOM      6  C   UNL d   1      53.723  33.021  54.045  0.00  0.00     0.101 A 
ATOM      7  C   UNL d   1      53.185  31.085  53.257  0.00  0.00     0.050 A 
ATOM      8  C   UNL d   1      53.763  31.499  53.656  0.00  0.00     0.089 A 
ENDROOT
BRANCH   7   9
ATOM      9  C   UNL d   1      53.199  30.283  53.048  0.00  0.00     0.008 C 
BRANCH   9  10
ATOM     10  C   UNL d   1      53.259  29.704  53.623  0.00  0.00     0.001 A 
ATOM     11  C   UNL d   1      53.999  29.357  53.784  0.00  0.00     0.002 A 
ATOM     12  C   UNL d   1      54.058  28.770  54.367  0.00  0.00     0.030 A 
ATOM     13  C   UNL d   1      53.389  28.532  54.785  0.00  0.00     0.140 A 
ATOM     14  C   UNL d   1      52.655  28.876  54.627  0.00  0.00     0.030 A 
ATOM     15  F   UNL d   1      53.433  27.952  55.365  0.00  0.00    -0.204 F 
ATOM     16  C   UNL d   1      52.593  29.461  54.045  0.00  0.00     0.002 A 
ENDBRANCH   9  10
ENDBRANCH   7   9
BRANCH   4  17
ATOM     17  C   UNL d   1      53.083  34.339  54.081  0.00  0.00     0.019 A 
ATOM     18  C   UNL d   1      52.869  34.888  53.511  0.00  0.00     0.004 A 
ATOM     19  C   UNL d   1      52.836  35.694  53.699  0.00  0.00     0.030 A 
ATOM     20  C   UNL d   1      53.021  35.940  54.469  0.00  0.00     0.140 A 
ATOM     21  C   UNL d   1      53.236  35.391  55.038  0.00  0.00     0.030 A 
ATOM     22  F   UNL d   1      53.039  36.684  54.818  0.00  0.00    -0.204 F 
ATOM     23  C   UNL d   1      53.268  34.590  54.849  0.00  0.00     0.004 A 
ENDBRANCH   4  17
TORSDOF 3
ENDMDL
MODEL 5
REMARK VINA RESULT:      -7.6      0.815      5.346
REMARK  3 active torsions:
REMARK  status: ('A' for Active; 'I' for Inactive)
REMARK    1  A    between atoms: C_9  and  C_4 
REMARK    2  A    between atoms: C_10  and  C_7 
REMARK    3  A    between atoms: C_13  and  C_10 
ROOT
ATOM      1  C   UNL d   1      51.468  33.621  53.304  0.00  0.00     0.179 A 
ATOM      2  N   UNL d   1      51.783  34.265  52.884  0.00  0.00    -0.282 N 
ATOM      3  N   UNL d   1      52.041  33.345  53.823  0.00  0.00    -0.221 NA
ATOM      4  C   UNL d   1      52.720  33.820  53.727  0.00  0.00     0.101 A 
ATOM      5  S   UNL d   1      50.695  33.498  53.042  0.00  0.00    -0.048 SA
ATOM      6  C   UNL d   1      52.555  34.380  53.151  0.00  0.00     0.101 A 
ATOM      7  C   UNL d   1      50.535  34.067  52.461  0.00  0.00     0.050 A 
ATOM      8  C   UNL d   1      51.200  34.530  52.369  0.00  0.00     0.089 A 
ENDROOT
BRANCH   7   9
ATOM      9  C   UNL d   1      49.817  34.139  52.053  0.00  0.00     0.008 C 
BRANCH   9  10
ATOM     10  C   UNL d   1      49.281  34.725  52.252  0.00  0.00     0.001 A 
ATOM     11  C   UNL d   1      48.786  35.050  51.667  0.00  0.00     0.002 A 
ATOM     12  C   UNL d   1      48.244  35.643  51.872  0.00  0.00     0.030 A 
ATOM     13  C   UNL d   1      48.195  35.911  52.650  0.00  0.00     0.140 A 
ATOM     14  C   UNL d   1      48.686  35.589  53.231  0.00  0.00     0.030 A 
ATOM     15  F   UNL d   1      47.663  36.497  52.866  0.00  0.00    -0.204 F 
ATOM     16  C   UNL d   1      49.228  34.997  53.029  0.00  0.00     0.002 A 
ENDBRANCH   9  10
ENDBRANCH   7   9
BRANCH   4  17
ATOM     17  C   UNL d   1      53.424  33.736  54.139  0.00  0.00     0.019 A 
ATOM     18  C   UNL d   1      53.956  33.155  53.910  0.00  0.00     0.004 A 
ATOM     19  C   UNL d   1      54.671  33.059  54.319  0.00  0.00     0.030 A 
ATOM     20  C   UNL d   1      54.842  33.555  54.960  0.00  0.00     0.140 A 
ATOM     21  C   UNL d   1      54.311  34.136  55.188  0.00  0.00     0.030 A 
ATOM     22  F   UNL d   1      55.491  33.597  55.464  0.00  0.00    -0.204 F 
ATOM     23  C   UNL d   1      53.601  34.230  54.782  0.00  0.00     0.004 A 
ENDBRANCH   4  17
TORSDOF 3
ENDMDL
MODEL 6
REMARK VINA RESULT:      -7.6      1.704      5.484
REMARK  3 active torsions:
REMARK  status: ('A' for Active; 'I' for Inactive)
REMARK    1  A    between atoms: C_9  and  C_4 
REMARK    2  A    between atoms: C_10  and  C_7 
REMARK    3  A    between atoms: C_13  and  C_10 
ROOT
ATOM      1  C   UNL d   1      51.804  33.427  52.690  0.00  0.00     0.179 A 
ATOM      2  N   UNL d   1      51.222  33.070  53.164  0.00  0.00    -0.282 N 
ATOM      3  N   UNL d   1      52.453  32.926  52.655  0.00  0.00    -0.221 NA
ATOM      4  C   UNL d   1      52.276  32.249  53.110  0.00  0.00     0.101 A 
ATOM      5  S   UNL d   1      51.512  34.154  52.431  0.00  0.00    -0.048 SA
ATOM      6  C   UNL d   1      51.522  32.344  53.418  0.00  0.00     0.101 A 
ATOM      7  C   UNL d   1      50.751  34.244  52.745  0.00  0.00     0.050 A 
ATOM      8  C   UNL d   1      50.580  33.582  53.189  0.00  0.00     0.089 A 
ENDROOT
BRANCH   7   9
ATOM      9  C   UNL d   1      50.260  34.900  52.619  0.00  0.00     0.008 C 
BRANCH   9  10
ATOM     10  C   UNL d   1      49.601  34.842  52.139  0.00  0.00     0.001 A 
ATOM     11  C   UNL d   1      48.850  35.036  52.441  0.00  0.00     0.002 A 
ATOM     12  C   UNL d   1      48.182  34.976  51.953  0.00  0.00     0.030 A 
ATOM     13  C   UNL d   1      48.261  34.725  51.172  0.00  0.00     0.140 A 
ATOM     14  C   UNL d   1      49.005  34.531  50.871  0.00  0.00     0.030 A 
ATOM     15  F   UNL d   1      47.609  34.660  50.677  0.00  0.00    -0.204 F 
ATOM     16  C   UNL d   1      49.673  34.590  51.357  0.00  0.00     0.002 A 
ENDBRANCH   9  10
ENDBRANCH   7   9
BRANCH   4  17
ATOM     17  C   UNL d   1      52.773  31.607  53.225  0.00  0.00     0.019 A 
ATOM     18  C   UNL d   1      53.479  31.713  53.628  0.00  0.00     0.004 A 
ATOM     19  C   UNL d   1      53.990  31.072  53.751  0.00  0.00     0.030 A 
ATOM     20  C   UNL d   1      53.781  30.324  53.462  0.00  0.00     0.140 A 
ATOM     21  C   UNL d   1      53.076  30.218  53.058  0.00  0.00     0.030 A 
ATOM     22  F   UNL d   1      54.163  29.597  53.494  0.00  0.00    -0.204 F 
ATOM     23  C   UNL d   1      52.569  30.856  52.937  0.00  0.00     0.004 A 
ENDBRANCH   4  17
TORSDOF 3
ENDMDL
