MODEL 1
REMARK VINA RESULT:      50.5      0.000      0.000
REMARK  6 active torsions:
REMARK  status: ('A' for Active; 'I' for Inactive)
REMARK    1  A    between atoms: C_7  and  C_3 
REMARK    2  A    between atoms: C_6  and  O_14 
REMARK    3  A    between atoms: S_8  and  C_7 
REMARK    4  A    between atoms: C_17  and  S_8 
REMARK    5  A    between atoms: O_14  and  C_18 
REMARK    6  A    between atoms: C_18  and  C_17 
ROOT
ATOM      1  S   UNL d   1      60.290  48.325  51.185  0.00  0.00    -0.081 SA
ENDROOT
BRANCH   1   2
ATOM      2  C   UNL d   1      61.048  48.011  51.244  0.00  0.00     0.074 C 
BRANCH   2   3
ATOM      3  C   UNL d   1      61.368  47.591  50.613  0.00  0.00     0.169 A 
ATOM      4  N   UNL d   1      61.796  47.498  49.900  0.00  0.00    -0.225 NA
ATOM      5  C   UNL d   1      61.784  46.686  49.695  0.00  0.00     0.101 A 
ATOM      6  C   UNL d   1      61.350  46.287  50.284  0.00  0.00     0.101 A 
ATOM      7  C   UNL d   1      62.103  46.251  49.063  0.00  0.00     0.021 A 
ATOM      8  N   UNL d   1      61.090  46.839  50.854  0.00  0.00    -0.225 NA
ATOM      9  C   UNL d   1      61.242  45.462  50.229  0.00  0.00     0.021 A 
ATOM     10  C   UNL d   1      61.562  45.049  49.602  0.00  0.00     0.002 A 
ATOM     11  C   UNL d   1      61.992  45.444  49.019  0.00  0.00     0.002 A 
ENDBRANCH   2   3
ENDBRANCH   1   2
BRANCH   1  12
ATOM     12  C   UNL d   1      60.148  49.102  51.416  0.00  0.00     0.062 C 
BRANCH  12  13
ATOM     13  C   UNL d   1      59.518  49.520  51.089  0.00  0.00     0.130 C 
BRANCH  13  14
ATOM     14  O   UNL d   1      59.527  49.704  50.285  0.00  0.00    -0.305 OA
BRANCH  14  15
ATOM     15  C   UNL d   1      58.702  49.705  50.289  0.00  0.00     0.100 A 
ATOM     16  C   UNL d   1      58.289  49.706  49.584  0.00  0.00     0.025 A 
ATOM     17  C   UNL d   1      57.464  49.707  49.584  0.00  0.00     0.002 A 
ATOM     18  C   UNL d   1      57.056  49.705  50.296  0.00  0.00     0.000 A 
ATOM     19  C   UNL d   1      57.477  49.704  51.009  0.00  0.00     0.002 A 
ATOM     20  C   UNL d   1      56.231  49.706  50.301  0.00  0.00     0.000 C 
ATOM     21  C   UNL d   1      58.302  49.703  51.000  0.00  0.00     0.025 A 
ENDBRANCH  14  15
ENDBRANCH  13  14
ENDBRANCH  12  13
ENDBRANCH   1  12
TORSDOF 6
ENDMDL
