MODEL 1
REMARK VINA RESULT:      -0.0      0.000      0.000
REMARK  4 active torsions:
REMARK  status: ('A' for Active; 'I' for Inactive)
REMARK    1  A    between atoms: C_6  and  N_1 
REMARK    2  A    between atoms: C_10  and  C_4 
REMARK    3  A    between atoms: C_8  and  C_6 
REMARK    4  A    between atoms: C_9  and  C_8 
ROOT
ATOM      1  N   UNL d   1      33.235  21.683 -22.369  0.00  0.00    -0.305 N 
ATOM      2  C   UNL d   1      33.237  22.085 -23.649  0.00  0.00     0.057 A 
ATOM      3  C   UNL d   1      33.236  22.349 -22.857  0.00  0.00     0.067 A 
ATOM      4  C   UNL d   1      33.235  21.021 -22.841  0.00  0.00     0.064 A 
ATOM      5  C   UNL d   1      33.236  21.260 -23.636  0.00  0.00     0.022 A 
ATOM      6  C   UNL d   1      33.238  22.631 -24.265  0.00  0.00     0.197 A 
ATOM      7  O   UNL d   1      33.239  22.366 -25.057  0.00  0.00    -0.286 OA
ATOM      8  C   UNL d   1      33.237  23.156 -22.692  0.00  0.00     0.018 A 
ATOM      9  C   UNL d   1      33.239  23.436 -24.100  0.00  0.00     0.042 A 
ATOM     10  C   UNL d   1      33.239  23.696 -23.322  0.00  0.00     0.005 A 
ENDROOT
BRANCH   4  11
ATOM     11  C   UNL d   1      33.233  20.180 -22.826  0.00  0.00     0.016 A 
ATOM     12  C   UNL d   1      33.240  19.783 -22.108  0.00  0.00     0.001 A 
ATOM     13  C   UNL d   1      33.239  18.962 -22.090  0.00  0.00     0.000 A 
ATOM     14  C   UNL d   1      33.231  18.547 -22.808  0.00  0.00     0.000 A 
ATOM     15  C   UNL d   1      33.225  18.938 -23.529  0.00  0.00     0.000 A 
ATOM     16  C   UNL d   1      33.226  19.761 -23.542  0.00  0.00     0.001 A 
ENDBRANCH   4  11
BRANCH   1  17
ATOM     17  C   UNL d   1      33.234  21.664 -21.537  0.00  0.00     0.086 C 
BRANCH  17  18
ATOM     18  C   UNL d   1      32.555  21.919 -21.131  0.00  0.00     0.089 C 
BRANCH  18  19
ATOM     19  C   UNL d   1      32.519  21.898 -20.307  0.00  0.00     0.213 C 
ATOM     20  O   UNL d   1      31.792  21.889 -19.927  0.00  0.00    -0.644 OA
ATOM     21  O   UNL d   1      33.197  21.884 -19.844  0.00  0.00    -0.644 OA
ENDBRANCH  18  19
ENDBRANCH  17  18
ENDBRANCH   1  17
TORSDOF 4
ENDMDL
MODEL 2
REMARK VINA RESULT:      -0.0      1.455      2.912
REMARK  4 active torsions:
REMARK  status: ('A' for Active; 'I' for Inactive)
REMARK    1  A    between atoms: C_6  and  N_1 
REMARK    2  A    between atoms: C_10  and  C_4 
REMARK    3  A    between atoms: C_8  and  C_6 
REMARK    4  A    between atoms: C_9  and  C_8 
ROOT
ATOM      1  N   UNL d   1      33.089  21.496 -22.708  0.00  0.00    -0.305 N 
ATOM      2  C   UNL d   1      32.998  22.517 -23.572  0.00  0.00     0.057 A 
ATOM      3  C   UNL d   1      33.118  21.693 -23.508  0.00  0.00     0.067 A 
ATOM      4  C   UNL d   1      32.955  22.175 -22.281  0.00  0.00     0.064 A 
ATOM      5  C   UNL d   1      32.896  22.814 -22.809  0.00  0.00     0.022 A 
ATOM      6  C   UNL d   1      32.997  22.878 -24.312  0.00  0.00     0.197 A 
ATOM      7  O   UNL d   1      32.877  23.702 -24.376  0.00  0.00    -0.286 OA
ATOM      8  C   UNL d   1      33.237  21.241 -24.186  0.00  0.00     0.018 A 
ATOM      9  C   UNL d   1      33.116  22.425 -24.989  0.00  0.00     0.042 A 
ATOM     10  C   UNL d   1      33.234  21.616 -24.927  0.00  0.00     0.005 A 
ENDROOT
BRANCH   4  11
ATOM     11  C   UNL d   1      32.852  22.475 -21.503  0.00  0.00     0.016 A 
ATOM     12  C   UNL d   1      32.380  23.135 -21.377  0.00  0.00     0.001 A 
ATOM     13  C   UNL d   1      32.278  23.430 -20.617  0.00  0.00     0.000 A 
ATOM     14  C   UNL d   1      32.658  23.050 -19.986  0.00  0.00     0.000 A 
ATOM     15  C   UNL d   1      33.131  22.391 -20.105  0.00  0.00     0.000 A 
ATOM     16  C   UNL d   1      33.231  22.098 -20.868  0.00  0.00     0.001 A 
ENDBRANCH   4  11
BRANCH   1  17
ATOM     17  C   UNL d   1      33.179  20.741 -22.368  0.00  0.00     0.086 C 
BRANCH  17  18
ATOM     18  C   UNL d   1      32.589  20.170 -22.499  0.00  0.00     0.089 C 
BRANCH  18  19
ATOM     19  C   UNL d   1      32.740  19.368 -22.379  0.00  0.00     0.213 C 
ATOM     20  O   UNL d   1      32.386  18.806 -22.861  0.00  0.00    -0.644 OA
ATOM     21  O   UNL d   1      33.240  19.105 -21.783  0.00  0.00    -0.644 OA
ENDBRANCH  18  19
ENDBRANCH  17  18
ENDBRANCH   1  17
TORSDOF 4
ENDMDL
MODEL 3
REMARK VINA RESULT:       0.6      1.475      3.644
REMARK  4 active torsions:
REMARK  status: ('A' for Active; 'I' for Inactive)
REMARK    1  A    between atoms: C_6  and  N_1 
REMARK    2  A    between atoms: C_10  and  C_4 
REMARK    3  A    between atoms: C_8  and  C_6 
REMARK    4  A    between atoms: C_9  and  C_8 
ROOT
ATOM      1  N   UNL d   1      33.228  20.730 -22.579  0.00  0.00    -0.305 N 
ATOM      2  C   UNL d   1      33.216  21.464 -21.456  0.00  0.00     0.057 A 
ATOM      3  C   UNL d   1      33.229  20.684 -21.755  0.00  0.00     0.067 A 
ATOM      4  C   UNL d   1      33.214  21.515 -22.791  0.00  0.00     0.064 A 
ATOM      5  C   UNL d   1      33.207  21.978 -22.100  0.00  0.00     0.022 A 
ATOM      6  C   UNL d   1      33.215  21.593 -20.643  0.00  0.00     0.197 A 
ATOM      7  O   UNL d   1      33.202  22.372 -20.343  0.00  0.00    -0.286 OA
ATOM      8  C   UNL d   1      33.241  20.044 -21.237  0.00  0.00     0.018 A 
ATOM      9  C   UNL d   1      33.226  20.953 -20.125  0.00  0.00     0.042 A 
ATOM     10  C   UNL d   1      33.239  20.188 -20.419  0.00  0.00     0.005 A 
ENDROOT
BRANCH   4  11
ATOM     11  C   UNL d   1      33.205  22.038 -23.449  0.00  0.00     0.016 A 
ATOM     12  C   UNL d   1      33.230  21.737 -24.212  0.00  0.00     0.001 A 
ATOM     13  C   UNL d   1      33.221  22.245 -24.857  0.00  0.00     0.000 A 
ATOM     14  C   UNL d   1      33.186  23.062 -24.722  0.00  0.00     0.000 A 
ATOM     15  C   UNL d   1      33.161  23.370 -23.962  0.00  0.00     0.000 A 
ATOM     16  C   UNL d   1      33.170  22.857 -23.319  0.00  0.00     0.001 A 
ENDBRANCH   4  11
BRANCH   1  17
ATOM     17  C   UNL d   1      33.238  20.101 -23.123  0.00  0.00     0.086 C 
BRANCH  17  18
ATOM     18  C   UNL d   1      32.838  19.398 -22.931  0.00  0.00     0.089 C 
BRANCH  18  19
ATOM     19  C   UNL d   1      32.606  18.867 -23.517  0.00  0.00     0.213 C 
ATOM     20  O   UNL d   1      33.162  18.551 -24.030  0.00  0.00    -0.644 OA
ATOM     21  O   UNL d   1      31.822  18.636 -23.607  0.00  0.00    -0.644 OA
ENDBRANCH  18  19
ENDBRANCH  17  18
ENDBRANCH   1  17
TORSDOF 4
ENDMDL
MODEL 4
REMARK VINA RESULT:       0.6      0.697      2.807
REMARK  4 active torsions:
REMARK  status: ('A' for Active; 'I' for Inactive)
REMARK    1  A    between atoms: C_6  and  N_1 
REMARK    2  A    between atoms: C_10  and  C_4 
REMARK    3  A    between atoms: C_8  and  C_6 
REMARK    4  A    between atoms: C_9  and  C_8 
ROOT
ATOM      1  N   UNL d   1      33.066  21.594 -22.446  0.00  0.00    -0.305 N 
ATOM      2  C   UNL d   1      32.894  21.563 -21.116  0.00  0.00     0.057 A 
ATOM      3  C   UNL d   1      32.992  22.068 -21.774  0.00  0.00     0.067 A 
ATOM      4  C   UNL d   1      33.018  20.816 -22.216  0.00  0.00     0.064 A 
ATOM      5  C   UNL d   1      32.911  20.787 -21.392  0.00  0.00     0.022 A 
ATOM      6  C   UNL d   1      32.805  21.882 -20.362  0.00  0.00     0.197 A 
ATOM      7  O   UNL d   1      32.708  21.378 -19.703  0.00  0.00    -0.286 OA
ATOM      8  C   UNL d   1      32.998  22.885 -21.670  0.00  0.00     0.018 A 
ATOM      9  C   UNL d   1      32.812  22.698 -20.258  0.00  0.00     0.042 A 
ATOM     10  C   UNL d   1      32.907  23.194 -20.904  0.00  0.00     0.005 A 
ENDROOT
BRANCH   4  11
ATOM     11  C   UNL d   1      33.035  20.024 -22.500  0.00  0.00     0.016 A 
ATOM     12  C   UNL d   1      32.909  19.872 -23.296  0.00  0.00     0.001 A 
ATOM     13  C   UNL d   1      32.925  19.100 -23.576  0.00  0.00     0.000 A 
ATOM     14  C   UNL d   1      33.071  18.483 -23.041  0.00  0.00     0.000 A 
ATOM     15  C   UNL d   1      33.198  18.629 -22.244  0.00  0.00     0.000 A 
ATOM     16  C   UNL d   1      33.181  19.404 -21.968  0.00  0.00     0.001 A 
ENDBRANCH   4  11
BRANCH   1  17
ATOM     17  C   UNL d   1      33.174  21.842 -23.233  0.00  0.00     0.086 C 
BRANCH  17  18
ATOM     18  C   UNL d   1      32.935  22.609 -23.447  0.00  0.00     0.089 C 
BRANCH  18  19
ATOM     19  C   UNL d   1      32.900  22.838 -24.239  0.00  0.00     0.213 C 
ATOM     20  O   UNL d   1      32.524  23.536 -24.449  0.00  0.00    -0.644 OA
ATOM     21  O   UNL d   1      33.234  22.384 -24.836  0.00  0.00    -0.644 OA
ENDBRANCH  18  19
ENDBRANCH  17  18
ENDBRANCH   1  17
TORSDOF 4
ENDMDL
MODEL 5
REMARK VINA RESULT:       1.5      2.045      3.375
REMARK  4 active torsions:
REMARK  status: ('A' for Active; 'I' for Inactive)
REMARK    1  A    between atoms: C_6  and  N_1 
REMARK    2  A    between atoms: C_10  and  C_4 
REMARK    3  A    between atoms: C_8  and  C_6 
REMARK    4  A    between atoms: C_9  and  C_8 
ROOT
ATOM      1  N   UNL d   1      32.895  19.449 -22.805  0.00  0.00    -0.305 N 
ATOM      2  C   UNL d   1      33.058  20.458 -23.674  0.00  0.00     0.057 A 
ATOM      3  C   UNL d   1      32.963  19.631 -23.608  0.00  0.00     0.067 A 
ATOM      4  C   UNL d   1      32.945  20.141 -22.381  0.00  0.00     0.064 A 
ATOM      5  C   UNL d   1      33.046  20.772 -22.912  0.00  0.00     0.022 A 
ATOM      6  C   UNL d   1      33.141  20.804 -24.417  0.00  0.00     0.197 A 
ATOM      7  O   UNL d   1      33.236  21.631 -24.484  0.00  0.00    -0.286 OA
ATOM      8  C   UNL d   1      32.953  19.161 -24.284  0.00  0.00     0.018 A 
ATOM      9  C   UNL d   1      33.130  20.335 -25.092  0.00  0.00     0.042 A 
ATOM     10  C   UNL d   1      33.037  19.522 -25.027  0.00  0.00     0.005 A 
ENDROOT
BRANCH   4  11
ATOM     11  C   UNL d   1      32.933  20.460 -21.604  0.00  0.00     0.016 A 
ATOM     12  C   UNL d   1      33.240  20.026 -20.978  0.00  0.00     0.001 A 
ATOM     13  C   UNL d   1      33.229  20.336 -20.217  0.00  0.00     0.000 A 
ATOM     14  C   UNL d   1      32.904  21.088 -20.096  0.00  0.00     0.000 A 
ATOM     15  C   UNL d   1      32.596  21.527 -20.716  0.00  0.00     0.000 A 
ATOM     16  C   UNL d   1      32.608  21.213 -21.478  0.00  0.00     0.001 A 
ENDBRANCH   4  11
BRANCH   1  17
ATOM     17  C   UNL d   1      32.791  18.698 -22.462  0.00  0.00     0.086 C 
BRANCH  17  18
ATOM     18  C   UNL d   1      33.029  18.026 -22.889  0.00  0.00     0.089 C 
BRANCH  18  19
ATOM     19  C   UNL d   1      32.774  17.272 -22.673  0.00  0.00     0.213 C 
ATOM     20  O   UNL d   1      33.219  16.820 -22.152  0.00  0.00    -0.644 OA
ATOM     21  O   UNL d   1      32.077  16.950 -22.965  0.00  0.00    -0.644 OA
ENDBRANCH  18  19
ENDBRANCH  17  18
ENDBRANCH   1  17
TORSDOF 4
ENDMDL
