MODEL 1
REMARK VINA RESULT:      -3.3      0.000      0.000
REMARK  5 active torsions:
REMARK  status: ('A' for Active; 'I' for Inactive)
REMARK    1  A    between atoms: N_5  and  S_1 
REMARK    2  A    between atoms: C_9  and  S_1 
REMARK    3  A    between atoms: C_6  and  C_2 
REMARK    4  A    between atoms: C_4  and  N_5 
REMARK    5  A    between atoms: O_20  and  C_17 
ROOT
ATOM      1  S   UNL d   1      31.352  16.508 -24.254  0.00  0.00     0.287 S 
ATOM      2  O   UNL d   1      31.476  16.115 -23.527  0.00  0.00    -0.198 OA
ATOM      3  O   UNL d   1      31.230  16.910 -24.990  0.00  0.00    -0.198 OA
ENDROOT
BRANCH   1   4
ATOM      4  N   UNL d   1      30.877  15.868 -24.528  0.00  0.00    -0.132 NA
BRANCH   4   5
ATOM      5  C   UNL d   1      30.052  15.878 -24.428  0.00  0.00     0.206 A 
ATOM      6  N   UNL d   1      29.547  16.182 -23.808  0.00  0.00    -0.216 NA
ATOM      7  C   UNL d   1      28.765  16.015 -24.042  0.00  0.00     0.161 A 
ATOM      8  C   UNL d   1      28.767  15.635 -24.751  0.00  0.00     0.061 A 
ATOM      9  S   UNL d   1      29.535  15.540 -25.007  0.00  0.00    -0.046 SA
BRANCH   7  10
ATOM     10  C   UNL d   1      28.077  16.199 -23.627  0.00  0.00     0.436 C 
ATOM     11  F   UNL d   1      27.369  16.331 -23.220  0.00  0.00    -0.165 F 
ATOM     12  F   UNL d   1      27.960  17.014 -23.295  0.00  0.00    -0.165 F 
ATOM     13  F   UNL d   1      27.536  15.640 -23.536  0.00  0.00    -0.165 F 
ENDBRANCH   7  10
ENDBRANCH   4   5
ENDBRANCH   1   4
BRANCH   1  14
ATOM     14  C   UNL d   1      31.828  17.156 -23.989  0.00  0.00     0.105 A 
ATOM     15  C   UNL d   1      32.348  17.025 -23.375  0.00  0.00     0.015 A 
ATOM     16  C   UNL d   1      32.815  17.636 -23.105  0.00  0.00     0.025 A 
ATOM     17  C   UNL d   1      32.768  18.389 -23.446  0.00  0.00     0.094 A 
ATOM     18  C   UNL d   1      32.250  18.531 -24.062  0.00  0.00     0.025 A 
ATOM     19  C   UNL d   1      31.781  17.931 -24.338  0.00  0.00     0.015 A 
BRANCH  17  20
ATOM     20  O   UNL d   1      33.241  19.038 -23.185  0.00  0.00    -0.328 OA
ATOM     21  C   UNL d   1      33.226  19.266 -22.375  0.00  0.00     0.181 C 
ENDBRANCH  17  20
ENDBRANCH   1  14
TORSDOF 5
ENDMDL
MODEL 2
REMARK VINA RESULT:      -3.2      2.801      4.455
REMARK  5 active torsions:
REMARK  status: ('A' for Active; 'I' for Inactive)
REMARK    1  A    between atoms: N_5  and  S_1 
REMARK    2  A    between atoms: C_9  and  S_1 
REMARK    3  A    between atoms: C_6  and  C_2 
REMARK    4  A    between atoms: C_4  and  N_5 
REMARK    5  A    between atoms: O_20  and  C_17 
ROOT
ATOM      1  S   UNL d   1      31.578  17.058 -24.255  0.00  0.00     0.287 S 
ATOM      2  O   UNL d   1      31.130  17.630 -24.668  0.00  0.00    -0.198 OA
ATOM      3  O   UNL d   1      32.028  16.476 -23.835  0.00  0.00    -0.198 OA
ENDROOT
BRANCH   1   4
ATOM      4  N   UNL d   1      32.292  17.453 -24.466  0.00  0.00    -0.132 NA
BRANCH   4   5
ATOM      5  C   UNL d   1      32.575  18.091 -24.015  0.00  0.00     0.206 A 
ATOM      6  N   UNL d   1      32.561  18.261 -23.178  0.00  0.00    -0.216 NA
ATOM      7  C   UNL d   1      32.939  18.996 -23.082  0.00  0.00     0.161 A 
ATOM      8  C   UNL d   1      33.176  19.277 -23.798  0.00  0.00     0.061 A 
ATOM      9  S   UNL d   1      32.967  18.746 -24.381  0.00  0.00    -0.046 SA
BRANCH   7  10
ATOM     10  C   UNL d   1      33.064  19.398 -22.373  0.00  0.00     0.436 C 
ATOM     11  F   UNL d   1      33.199  19.750 -21.636  0.00  0.00    -0.165 F 
ATOM     12  F   UNL d   1      32.999  20.283 -22.342  0.00  0.00    -0.165 F 
ATOM     13  F   UNL d   1      33.240  18.979 -21.734  0.00  0.00    -0.165 F 
ENDBRANCH   7  10
ENDBRANCH   4   5
ENDBRANCH   1   4
BRANCH   1  14
ATOM     14  C   UNL d   1      30.866  16.654 -24.037  0.00  0.00     0.105 A 
ATOM     15  C   UNL d   1      30.161  16.928 -24.338  0.00  0.00     0.015 A 
ATOM     16  C   UNL d   1      29.465  16.553 -24.140  0.00  0.00     0.025 A 
ATOM     17  C   UNL d   1      29.466  15.896 -23.637  0.00  0.00     0.094 A 
ATOM     18  C   UNL d   1      30.168  15.613 -23.329  0.00  0.00     0.025 A 
ATOM     19  C   UNL d   1      30.865  15.978 -23.519  0.00  0.00     0.015 A 
BRANCH  17  20
ATOM     20  O   UNL d   1      28.758  15.490 -23.417  0.00  0.00    -0.328 OA
ATOM     21  C   UNL d   1      28.016  15.881 -23.477  0.00  0.00     0.181 C 
ENDBRANCH  17  20
ENDBRANCH   1  14
TORSDOF 5
ENDMDL
MODEL 3
REMARK VINA RESULT:      -2.7      3.178      4.679
REMARK  5 active torsions:
REMARK  status: ('A' for Active; 'I' for Inactive)
REMARK    1  A    between atoms: N_5  and  S_1 
REMARK    2  A    between atoms: C_9  and  S_1 
REMARK    3  A    between atoms: C_6  and  C_2 
REMARK    4  A    between atoms: C_4  and  N_5 
REMARK    5  A    between atoms: O_20  and  C_17 
ROOT
ATOM      1  S   UNL d   1      32.452  17.922 -23.908  0.00  0.00     0.287 S 
ATOM      2  O   UNL d   1      32.675  17.476 -23.238  0.00  0.00    -0.198 OA
ATOM      3  O   UNL d   1      32.223  18.372 -24.589  0.00  0.00    -0.198 OA
ENDROOT
BRANCH   1   4
ATOM      4  N   UNL d   1      33.137  18.406 -23.824  0.00  0.00    -0.132 NA
BRANCH   4   5
ATOM      5  C   UNL d   1      33.128  19.073 -23.328  0.00  0.00     0.206 A 
ATOM      6  N   UNL d   1      33.018  19.168 -22.485  0.00  0.00    -0.216 NA
ATOM      7  C   UNL d   1      33.071  19.984 -22.333  0.00  0.00     0.161 A 
ATOM      8  C   UNL d   1      33.202  20.382 -23.020  0.00  0.00     0.061 A 
ATOM      9  S   UNL d   1      33.241  19.852 -23.638  0.00  0.00    -0.046 SA
BRANCH   7  10
ATOM     10  C   UNL d   1      33.002  20.355 -21.600  0.00  0.00     0.436 C 
ATOM     11  F   UNL d   1      32.932  20.776 -20.891  0.00  0.00    -0.165 F 
ATOM     12  F   UNL d   1      32.979  19.872 -20.855  0.00  0.00    -0.165 F 
ATOM     13  F   UNL d   1      32.957  21.137 -21.581  0.00  0.00    -0.165 F 
ENDBRANCH   7  10
ENDBRANCH   4   5
ENDBRANCH   1   4
BRANCH   1  14
ATOM     14  C   UNL d   1      31.761  17.441 -24.003  0.00  0.00     0.105 A 
ATOM     15  C   UNL d   1      31.749  16.711 -23.643  0.00  0.00     0.015 A 
ATOM     16  C   UNL d   1      31.093  16.233 -23.722  0.00  0.00     0.025 A 
ATOM     17  C   UNL d   1      30.438  16.482 -24.163  0.00  0.00     0.094 A 
ATOM     18  C   UNL d   1      30.440  17.213 -24.528  0.00  0.00     0.025 A 
ATOM     19  C   UNL d   1      31.087  17.695 -24.456  0.00  0.00     0.015 A 
BRANCH  17  20
ATOM     20  O   UNL d   1      29.747  16.006 -24.260  0.00  0.00    -0.328 OA
ATOM     21  C   UNL d   1      29.368  15.678 -23.584  0.00  0.00     0.181 C 
ENDBRANCH  17  20
ENDBRANCH   1  14
TORSDOF 5
ENDMDL
MODEL 4
REMARK VINA RESULT:      -2.7      2.061      3.060
REMARK  5 active torsions:
REMARK  status: ('A' for Active; 'I' for Inactive)
REMARK    1  A    between atoms: N_5  and  S_1 
REMARK    2  A    between atoms: C_9  and  S_1 
REMARK    3  A    between atoms: C_6  and  C_2 
REMARK    4  A    between atoms: C_4  and  N_5 
REMARK    5  A    between atoms: O_20  and  C_17 
ROOT
ATOM      1  S   UNL d   1      33.228  18.623 -23.253  0.00  0.00     0.287 S 
ATOM      2  O   UNL d   1      33.240  19.131 -23.917  0.00  0.00    -0.198 OA
ATOM      3  O   UNL d   1      33.215  18.111 -22.578  0.00  0.00    -0.198 OA
ENDROOT
BRANCH   1   4
ATOM      4  N   UNL d   1      33.224  17.949 -23.759  0.00  0.00    -0.132 NA
BRANCH   4   5
ATOM      5  C   UNL d   1      32.508  17.604 -24.004  0.00  0.00     0.206 A 
ATOM      6  N   UNL d   1      31.726  17.924 -24.135  0.00  0.00    -0.216 NA
ATOM      7  C   UNL d   1      31.251  17.285 -24.378  0.00  0.00     0.161 A 
ATOM      8  C   UNL d   1      31.690  16.611 -24.403  0.00  0.00     0.061 A 
ATOM      9  S   UNL d   1      32.457  16.778 -24.180  0.00  0.00    -0.046 SA
BRANCH   7  10
ATOM     10  C   UNL d   1      30.450  17.312 -24.571  0.00  0.00     0.436 C 
ATOM     11  F   UNL d   1      29.655  17.389 -24.789  0.00  0.00    -0.165 F 
ATOM     12  F   UNL d   1      29.912  16.644 -24.342  0.00  0.00    -0.165 F 
ATOM     13  F   UNL d   1      30.181  17.938 -24.957  0.00  0.00    -0.165 F 
ENDBRANCH   7  10
ENDBRANCH   4   5
ENDBRANCH   1   4
BRANCH   1  14
ATOM     14  C   UNL d   1      33.231  19.293 -22.736  0.00  0.00     0.105 A 
ATOM     15  C   UNL d   1      33.232  20.036 -23.070  0.00  0.00     0.015 A 
ATOM     16  C   UNL d   1      33.235  20.694 -22.588  0.00  0.00     0.025 A 
ATOM     17  C   UNL d   1      33.238  20.617 -21.764  0.00  0.00     0.094 A 
ATOM     18  C   UNL d   1      33.237  19.876 -21.419  0.00  0.00     0.025 A 
ATOM     19  C   UNL d   1      33.234  19.216 -21.888  0.00  0.00     0.015 A 
BRANCH  17  20
ATOM     20  O   UNL d   1      33.241  21.283 -21.245  0.00  0.00    -0.328 OA
ATOM     21  C   UNL d   1      32.561  21.775 -21.192  0.00  0.00     0.181 C 
ENDBRANCH  17  20
ENDBRANCH   1  14
TORSDOF 5
ENDMDL
MODEL 5
REMARK VINA RESULT:      -1.9      5.397      7.057
REMARK  5 active torsions:
REMARK  status: ('A' for Active; 'I' for Inactive)
REMARK    1  A    between atoms: N_5  and  S_1 
REMARK    2  A    between atoms: C_9  and  S_1 
REMARK    3  A    between atoms: C_6  and  C_2 
REMARK    4  A    between atoms: C_4  and  N_5 
REMARK    5  A    between atoms: O_20  and  C_17 
ROOT
ATOM      1  S   UNL d   1      32.340  22.877 -20.714  0.00  0.00     0.287 S 
ATOM      2  O   UNL d   1      31.741  22.329 -20.515  0.00  0.00    -0.198 OA
ATOM      3  O   UNL d   1      32.948  23.434 -20.910  0.00  0.00    -0.198 OA
ENDROOT
BRANCH   1   4
ATOM      4  N   UNL d   1      32.269  22.673 -21.528  0.00  0.00    -0.132 NA
BRANCH   4   5
ATOM      5  C   UNL d   1      32.569  21.953 -21.814  0.00  0.00     0.206 A 
ATOM      6  N   UNL d   1      32.518  21.149 -21.528  0.00  0.00    -0.216 NA
ATOM      7  C   UNL d   1      32.941  20.680 -22.071  0.00  0.00     0.161 A 
ATOM      8  C   UNL d   1      33.239  21.144 -22.658  0.00  0.00     0.061 A 
ATOM      9  S   UNL d   1      33.028  21.920 -22.525  0.00  0.00    -0.046 SA
BRANCH   7  10
ATOM     10  C   UNL d   1      33.052  19.864 -22.037  0.00  0.00     0.436 C 
ATOM     11  F   UNL d   1      33.155  19.043 -22.058  0.00  0.00    -0.165 F 
ATOM     12  F   UNL d   1      33.231  19.470 -21.262  0.00  0.00    -0.165 F 
ATOM     13  F   UNL d   1      32.996  19.453 -22.701  0.00  0.00    -0.165 F 
ENDBRANCH   7  10
ENDBRANCH   4   5
ENDBRANCH   1   4
BRANCH   1  14
ATOM     14  C   UNL d   1      32.420  23.090 -19.898  0.00  0.00     0.105 A 
ATOM     15  C   UNL d   1      33.133  22.944 -19.531  0.00  0.00     0.015 A 
ATOM     16  C   UNL d   1      33.231  23.142 -18.746  0.00  0.00     0.025 A 
ATOM     17  C   UNL d   1      32.614  23.489 -18.316  0.00  0.00     0.094 A 
ATOM     18  C   UNL d   1      31.895  23.638 -18.675  0.00  0.00     0.025 A 
ATOM     19  C   UNL d   1      31.787  23.446 -19.454  0.00  0.00     0.015 A 
BRANCH  17  20
ATOM     20  O   UNL d   1      32.690  23.702 -17.503  0.00  0.00    -0.328 OA
ATOM     21  C   UNL d   1      32.965  23.135 -16.946  0.00  0.00     0.181 C 
ENDBRANCH  17  20
ENDBRANCH   1  14
TORSDOF 5
ENDMDL
