MODEL 1
REMARK VINA RESULT:      -5.5      0.000      0.000
REMARK  5 active torsions:
REMARK  status: ('A' for Active; 'I' for Inactive)
REMARK    1  A    between atoms: N_5  and  C_1 
REMARK    2  A    between atoms: C_8  and  C_2 
REMARK       I    between atoms: C_7  and  N_5 
REMARK    3  A    between atoms: C_9  and  C_7 
REMARK    4  A    between atoms: O_16  and  C_8 
REMARK    5  A    between atoms: C_20  and  O_16 
ROOT
ATOM      1  C   UNL d   1     -39.369  14.383  18.542  0.00  0.00     0.119 A 
ATOM      2  C   UNL d   1     -39.371  14.560  17.729  0.00  0.00     0.088 A 
ATOM      3  S   UNL d   1     -38.975  13.675  18.663  0.00  0.00    -0.068 SA
ATOM      4  C   UNL d   1     -38.959  13.931  17.332  0.00  0.00     0.013 A 
ATOM      5  C   UNL d   1     -38.723  13.395  17.925  0.00  0.00     0.031 A 
ATOM      6  C   UNL d   1     -38.697  13.631  16.611  0.00  0.00     0.001 A 
ATOM      7  C   UNL d   1     -38.307  12.755  17.547  0.00  0.00     0.006 A 
ATOM      8  C   UNL d   1     -38.305  12.922  16.748  0.00  0.00     0.001 A 
ENDROOT
BRANCH   1   9
ATOM      9  N   UNL d   1     -39.719  14.856  19.169  0.00  0.00    -0.201 NA
ATOM     10  C   UNL d   1     -39.506  14.711  19.966  0.00  0.00     0.286 C 
ATOM     11  O   UNL d   1     -38.972  14.133  20.182  0.00  0.00    -0.265 OA
BRANCH  10  12
ATOM     12  C   UNL d   1     -39.847  15.173  20.582  0.00  0.00     0.087 A 
ATOM     13  S   UNL d   1     -39.410  15.275  21.255  0.00  0.00    -0.082 SA
ATOM     14  C   UNL d   1     -39.873  15.753  21.781  0.00  0.00     0.036 A 
ATOM     15  C   UNL d   1     -40.567  15.922  21.410  0.00  0.00     0.008 A 
ATOM     16  C   UNL d   1     -40.554  15.566  20.672  0.00  0.00     0.012 A 
ENDBRANCH  10  12
ENDBRANCH   1   9
BRANCH   2  17
ATOM     17  C   UNL d   1     -39.706  15.219  17.359  0.00  0.00     0.302 C 
ATOM     18  O   UNL d   1     -39.254  15.908  17.217  0.00  0.00    -0.259 OA
BRANCH  17  19
ATOM     19  O   UNL d   1     -40.513  15.199  17.121  0.00  0.00    -0.271 OA
BRANCH  19  20
ATOM     20  C   UNL d   1     -40.832  15.872  16.760  0.00  0.00     0.126 C 
ATOM     21  C   UNL d   1     -41.625  15.899  16.573  0.00  0.00     0.029 C 
ENDBRANCH  19  20
ENDBRANCH  17  19
ENDBRANCH   2  17
TORSDOF 5
ENDMDL
MODEL 2
REMARK VINA RESULT:      -5.4      8.842      9.979
REMARK  5 active torsions:
REMARK  status: ('A' for Active; 'I' for Inactive)
REMARK    1  A    between atoms: N_5  and  C_1 
REMARK    2  A    between atoms: C_8  and  C_2 
REMARK       I    between atoms: C_7  and  N_5 
REMARK    3  A    between atoms: C_9  and  C_7 
REMARK    4  A    between atoms: O_16  and  C_8 
REMARK    5  A    between atoms: C_20  and  O_16 
ROOT
ATOM      1  C   UNL d   1     -47.792  12.209  22.991  0.00  0.00     0.119 A 
ATOM      2  C   UNL d   1     -47.032  12.525  22.872  0.00  0.00     0.088 A 
ATOM      3  S   UNL d   1     -47.725  11.463  23.324  0.00  0.00    -0.068 SA
ATOM      4  C   UNL d   1     -46.471  11.947  23.143  0.00  0.00     0.013 A 
ATOM      5  C   UNL d   1     -46.918  11.299  23.419  0.00  0.00     0.031 A 
ATOM      6  C   UNL d   1     -45.676  11.760  23.248  0.00  0.00     0.001 A 
ATOM      7  C   UNL d   1     -46.373  10.706  23.697  0.00  0.00     0.006 A 
ATOM      8  C   UNL d   1     -45.625  11.011  23.582  0.00  0.00     0.001 A 
ENDROOT
BRANCH   1   9
ATOM      9  N   UNL d   1     -48.540  12.589  22.802  0.00  0.00    -0.201 NA
ATOM     10  C   UNL d   1     -49.208  12.120  22.615  0.00  0.00     0.286 C 
ATOM     11  O   UNL d   1     -49.185  11.304  22.603  0.00  0.00    -0.265 OA
BRANCH  10  12
ATOM     12  C   UNL d   1     -49.942  12.490  22.429  0.00  0.00     0.087 A 
ATOM     13  S   UNL d   1     -50.330  12.867  23.031  0.00  0.00    -0.082 SA
ATOM     14  C   UNL d   1     -51.044  13.187  22.701  0.00  0.00     0.036 A 
ATOM     15  C   UNL d   1     -51.060  12.994  21.920  0.00  0.00     0.008 A 
ATOM     16  C   UNL d   1     -50.384  12.564  21.749  0.00  0.00     0.012 A 
ENDBRANCH  10  12
ENDBRANCH   1   9
BRANCH   2  17
ATOM     17  C   UNL d   1     -46.840  13.262  22.550  0.00  0.00     0.302 C 
ATOM     18  O   UNL d   1     -46.583  13.331  21.757  0.00  0.00    -0.259 OA
BRANCH  17  19
ATOM     19  O   UNL d   1     -46.903  13.955  23.025  0.00  0.00    -0.271 OA
BRANCH  19  20
ATOM     20  C   UNL d   1     -46.649  14.674  22.704  0.00  0.00     0.126 C 
ATOM     21  C   UNL d   1     -47.128  15.332  22.744  0.00  0.00     0.029 C 
ENDBRANCH  19  20
ENDBRANCH  17  19
ENDBRANCH   2  17
TORSDOF 5
ENDMDL
MODEL 3
REMARK VINA RESULT:      -5.3      1.220      2.427
REMARK  5 active torsions:
REMARK  status: ('A' for Active; 'I' for Inactive)
REMARK    1  A    between atoms: N_5  and  C_1 
REMARK    2  A    between atoms: C_8  and  C_2 
REMARK       I    between atoms: C_7  and  N_5 
REMARK    3  A    between atoms: C_9  and  C_7 
REMARK    4  A    between atoms: O_16  and  C_8 
REMARK    5  A    between atoms: C_20  and  O_16 
ROOT
ATOM      1  C   UNL d   1     -39.887  14.935  18.872  0.00  0.00     0.119 A 
ATOM      2  C   UNL d   1     -39.592  14.727  18.123  0.00  0.00     0.088 A 
ATOM      3  S   UNL d   1     -40.566  15.384  18.780  0.00  0.00    -0.068 SA
ATOM      4  C   UNL d   1     -40.115  15.063  17.542  0.00  0.00     0.013 A 
ATOM      5  C   UNL d   1     -40.709  15.464  17.968  0.00  0.00     0.031 A 
ATOM      6  C   UNL d   1     -40.279  15.158  16.741  0.00  0.00     0.001 A 
ATOM      7  C   UNL d   1     -41.246  15.810  17.403  0.00  0.00     0.006 A 
ATOM      8  C   UNL d   1     -40.962  15.609  16.665  0.00  0.00     0.001 A 
ENDROOT
BRANCH   1   9
ATOM      9  N   UNL d   1     -39.546  14.722  19.633  0.00  0.00    -0.201 NA
ATOM     10  C   UNL d   1     -39.929  14.958  20.339  0.00  0.00     0.286 C 
ATOM     11  O   UNL d   1     -40.623  15.389  20.343  0.00  0.00    -0.265 OA
BRANCH  10  12
ATOM     12  C   UNL d   1     -39.598  14.752  21.086  0.00  0.00     0.087 A 
ATOM     13  S   UNL d   1     -39.376  15.358  21.574  0.00  0.00    -0.082 SA
ATOM     14  C   UNL d   1     -39.064  15.005  22.280  0.00  0.00     0.036 A 
ATOM     15  C   UNL d   1     -39.108  14.206  22.193  0.00  0.00     0.008 A 
ATOM     16  C   UNL d   1     -39.436  14.047  21.459  0.00  0.00     0.012 A 
ENDBRANCH  10  12
ENDBRANCH   1   9
BRANCH   2  17
ATOM     17  C   UNL d   1     -38.919  14.278  17.955  0.00  0.00     0.302 C 
ATOM     18  O   UNL d   1     -38.172  14.642  17.858  0.00  0.00    -0.259 OA
BRANCH  17  19
ATOM     19  O   UNL d   1     -38.983  13.441  17.879  0.00  0.00    -0.271 OA
BRANCH  19  20
ATOM     20  C   UNL d   1     -38.302  13.013  17.685  0.00  0.00     0.126 C 
ATOM     21  C   UNL d   1     -38.314  12.198  17.698  0.00  0.00     0.029 C 
ENDBRANCH  19  20
ENDBRANCH  17  19
ENDBRANCH   2  17
TORSDOF 5
ENDMDL
MODEL 4
REMARK VINA RESULT:      -4.7      1.690      3.742
REMARK  5 active torsions:
REMARK  status: ('A' for Active; 'I' for Inactive)
REMARK    1  A    between atoms: N_5  and  C_1 
REMARK    2  A    between atoms: C_8  and  C_2 
REMARK       I    between atoms: C_7  and  N_5 
REMARK    3  A    between atoms: C_9  and  C_7 
REMARK    4  A    between atoms: O_16  and  C_8 
REMARK    5  A    between atoms: C_20  and  O_16 
ROOT
ATOM      1  C   UNL d   1     -39.692  14.643  19.849  0.00  0.00     0.119 A 
ATOM      2  C   UNL d   1     -40.002  14.448  20.596  0.00  0.00     0.088 A 
ATOM      3  S   UNL d   1     -38.886  14.498  19.845  0.00  0.00    -0.068 SA
ATOM      4  C   UNL d   1     -39.357  14.170  21.074  0.00  0.00     0.013 A 
ATOM      5  C   UNL d   1     -38.677  14.208  20.592  0.00  0.00     0.031 A 
ATOM      6  C   UNL d   1     -39.122  13.881  21.808  0.00  0.00     0.001 A 
ATOM      7  C   UNL d   1     -38.015  13.933  21.054  0.00  0.00     0.006 A 
ATOM      8  C   UNL d   1     -38.313  13.740  21.789  0.00  0.00     0.001 A 
ENDROOT
BRANCH   1   9
ATOM      9  N   UNL d   1     -40.133  14.949  19.176  0.00  0.00    -0.201 NA
ATOM     10  C   UNL d   1     -39.816  14.875  18.405  0.00  0.00     0.286 C 
ATOM     11  O   UNL d   1     -39.096  14.519  18.255  0.00  0.00    -0.265 OA
BRANCH  10  12
ATOM     12  C   UNL d   1     -40.245  15.173  17.744  0.00  0.00     0.087 A 
ATOM     13  S   UNL d   1     -39.870  15.713  17.271  0.00  0.00    -0.082 SA
ATOM     14  C   UNL d   1     -40.414  15.922  16.655  0.00  0.00     0.036 A 
ATOM     15  C   UNL d   1     -41.092  15.505  16.777  0.00  0.00     0.008 A 
ATOM     16  C   UNL d   1     -40.991  15.043  17.446  0.00  0.00     0.012 A 
ENDBRANCH  10  12
ENDBRANCH   1   9
BRANCH   2  17
ATOM     17  C   UNL d   1     -40.788  14.507  20.844  0.00  0.00     0.302 C 
ATOM     18  O   UNL d   1     -41.102  15.235  21.110  0.00  0.00    -0.259 OA
BRANCH  17  19
ATOM     19  O   UNL d   1     -41.284  13.826  20.830  0.00  0.00    -0.271 OA
BRANCH  19  20
ATOM     20  C   UNL d   1     -42.061  13.901  21.103  0.00  0.00     0.126 C 
ATOM     21  C   UNL d   1     -42.551  13.250  21.126  0.00  0.00     0.029 C 
ENDBRANCH  19  20
ENDBRANCH  17  19
ENDBRANCH   2  17
TORSDOF 5
ENDMDL
MODEL 5
REMARK VINA RESULT:      -4.5      1.654      3.835
REMARK  5 active torsions:
REMARK  status: ('A' for Active; 'I' for Inactive)
REMARK    1  A    between atoms: N_5  and  C_1 
REMARK    2  A    between atoms: C_8  and  C_2 
REMARK       I    between atoms: C_7  and  N_5 
REMARK    3  A    between atoms: C_9  and  C_7 
REMARK    4  A    between atoms: O_16  and  C_8 
REMARK    5  A    between atoms: C_20  and  O_16 
ROOT
ATOM      1  C   UNL d   1     -38.684  14.072  20.109  0.00  0.00     0.119 A 
ATOM      2  C   UNL d   1     -38.906  14.464  20.808  0.00  0.00     0.088 A 
ATOM      3  S   UNL d   1     -38.276  13.388  20.300  0.00  0.00    -0.068 SA
ATOM      4  C   UNL d   1     -38.621  14.000  21.460  0.00  0.00     0.013 A 
ATOM      5  C   UNL d   1     -38.235  13.340  21.126  0.00  0.00     0.031 A 
ATOM      6  C   UNL d   1     -38.566  13.929  22.279  0.00  0.00     0.001 A 
ATOM      7  C   UNL d   1     -37.941  12.860  21.766  0.00  0.00     0.006 A 
ATOM      8  C   UNL d   1     -38.155  13.240  22.456  0.00  0.00     0.001 A 
ENDROOT
BRANCH   1   9
ATOM      9  N   UNL d   1     -38.849  14.329  19.304  0.00  0.00    -0.201 NA
ATOM     10  C   UNL d   1     -38.687  13.814  18.664  0.00  0.00     0.286 C 
ATOM     11  O   UNL d   1     -38.375  13.067  18.765  0.00  0.00    -0.265 OA
BRANCH  10  12
ATOM     12  C   UNL d   1     -38.847  14.062  17.874  0.00  0.00     0.087 A 
ATOM     13  S   UNL d   1     -38.218  14.115  17.368  0.00  0.00    -0.082 SA
ATOM     14  C   UNL d   1     -38.525  14.373  16.620  0.00  0.00     0.036 A 
ATOM     15  C   UNL d   1     -39.320  14.465  16.701  0.00  0.00     0.008 A 
ATOM     16  C   UNL d   1     -39.522  14.275  17.472  0.00  0.00     0.012 A 
ENDBRANCH  10  12
ENDBRANCH   1   9
BRANCH   2  17
ATOM     17  C   UNL d   1     -39.325  15.173  20.874  0.00  0.00     0.302 C 
ATOM     18  O   UNL d   1     -38.927  15.908  20.899  0.00  0.00    -0.259 OA
BRANCH  17  19
ATOM     19  O   UNL d   1     -40.167  15.159  20.918  0.00  0.00    -0.271 OA
BRANCH  19  20
ATOM     20  C   UNL d   1     -40.567  15.878  21.006  0.00  0.00     0.126 C 
ATOM     21  C   UNL d   1     -41.380  15.903  20.954  0.00  0.00     0.029 C 
ENDBRANCH  19  20
ENDBRANCH  17  19
ENDBRANCH   2  17
TORSDOF 5
ENDMDL
MODEL 6
REMARK VINA RESULT:      -4.3      9.098     10.683
REMARK  5 active torsions:
REMARK  status: ('A' for Active; 'I' for Inactive)
REMARK    1  A    between atoms: N_5  and  C_1 
REMARK    2  A    between atoms: C_8  and  C_2 
REMARK       I    between atoms: C_7  and  N_5 
REMARK    3  A    between atoms: C_9  and  C_7 
REMARK    4  A    between atoms: O_16  and  C_8 
REMARK    5  A    between atoms: C_20  and  O_16 
ROOT
ATOM      1  C   UNL d   1     -48.754  14.140  22.932  0.00  0.00     0.119 A 
ATOM      2  C   UNL d   1     -49.551  13.908  22.875  0.00  0.00     0.088 A 
ATOM      3  S   UNL d   1     -48.717  14.937  23.114  0.00  0.00    -0.068 SA
ATOM      4  C   UNL d   1     -50.026  14.596  23.029  0.00  0.00     0.013 A 
ATOM      5  C   UNL d   1     -49.493  15.220  23.174  0.00  0.00     0.031 A 
ATOM      6  C   UNL d   1     -50.788  14.902  23.094  0.00  0.00     0.001 A 
ATOM      7  C   UNL d   1     -49.951  15.922  23.332  0.00  0.00     0.006 A 
ATOM      8  C   UNL d   1     -50.735  15.701  23.277  0.00  0.00     0.001 A 
ENDROOT
BRANCH   1   9
ATOM      9  N   UNL d   1     -48.066  13.635  22.821  0.00  0.00    -0.201 NA
ATOM     10  C   UNL d   1     -47.299  13.971  22.836  0.00  0.00     0.286 C 
ATOM     11  O   UNL d   1     -47.168  14.769  22.953  0.00  0.00    -0.265 OA
BRANCH  10  12
ATOM     12  C   UNL d   1     -46.623  13.480  22.727  0.00  0.00     0.087 A 
ATOM     13  S   UNL d   1     -46.051  13.744  22.219  0.00  0.00    -0.082 SA
ATOM     14  C   UNL d   1     -45.440  13.156  22.210  0.00  0.00     0.036 A 
ATOM     15  C   UNL d   1     -45.663  12.564  22.707  0.00  0.00     0.008 A 
ATOM     16  C   UNL d   1     -46.390  12.761  23.028  0.00  0.00     0.012 A 
ENDBRANCH  10  12
ENDBRANCH   1   9
BRANCH   2  17
ATOM     17  C   UNL d   1     -49.844  13.155  22.701  0.00  0.00     0.302 C 
ATOM     18  O   UNL d   1     -49.999  12.925  21.913  0.00  0.00    -0.259 OA
BRANCH  17  19
ATOM     19  O   UNL d   1     -49.990  12.609  23.326  0.00  0.00    -0.271 OA
BRANCH  19  20
ATOM     20  C   UNL d   1     -50.325  11.877  23.136  0.00  0.00     0.126 C 
ATOM     21  C   UNL d   1     -50.365  11.288  23.698  0.00  0.00     0.029 C 
ENDBRANCH  19  20
ENDBRANCH  17  19
ENDBRANCH   2  17
TORSDOF 5
ENDMDL
