MODEL 1
REMARK VINA RESULT:      -3.0      0.000      0.000
REMARK  4 active torsions:
REMARK  status: ('A' for Active; 'I' for Inactive)
REMARK    1  A    between atoms: C_5  and  N_1 
REMARK    2  A    between atoms: C_9  and  C_3 
REMARK    3  A    between atoms: C_7  and  C_5 
REMARK    4  A    between atoms: O_10  and  C_8 
ROOT
ATOM      1  N   UNL d   1     -41.161-122.337 -51.450  0.00  0.00    -0.289 N 
ATOM      2  N   UNL d   1     -41.131-121.432 -52.453  0.00  0.00    -0.227 NA
ATOM      3  C   UNL d   1     -41.137-121.520 -51.620  0.00  0.00     0.148 A 
ATOM      4  C   UNL d   1     -41.169-122.755 -52.174  0.00  0.00     0.083 A 
ATOM      5  C   UNL d   1     -41.151-122.196 -52.795  0.00  0.00     0.099 A 
ATOM      6  C   UNL d   1     -41.191-123.566 -52.362  0.00  0.00     0.019 A 
ATOM      7  C   UNL d   1     -41.155-122.443 -53.582  0.00  0.00     0.021 A 
ATOM      8  C   UNL d   1     -41.195-123.816 -53.152  0.00  0.00     0.002 A 
ATOM      9  C   UNL d   1     -41.177-123.256 -53.760  0.00  0.00     0.002 A 
ENDROOT
BRANCH   1  10
ATOM     10  C   UNL d   1     -41.174-122.683 -50.701  0.00  0.00     0.083 C 
BRANCH  10  11
ATOM     11  C   UNL d   1     -41.880-122.823 -50.319  0.00  0.00     0.040 A 
ATOM     12  C   UNL d   1     -41.880-123.144 -49.569  0.00  0.00     0.096 A 
ATOM     13  C   UNL d   1     -42.594-123.286 -49.182  0.00  0.00     0.024 A 
ATOM     14  C   UNL d   1     -43.309-123.105 -49.553  0.00  0.00     0.002 A 
ATOM     15  C   UNL d   1     -43.307-122.782 -50.311  0.00  0.00     0.000 A 
ATOM     16  C   UNL d   1     -42.592-122.641 -50.693  0.00  0.00     0.004 A 
BRANCH  12  17
ATOM     17  O   UNL d   1     -41.172-123.324 -49.199  0.00  0.00    -0.328 OA
ATOM     18  C   UNL d   1     -41.164-123.600 -48.420  0.00  0.00     0.181 C 
ENDBRANCH  12  17
ENDBRANCH  10  11
ENDBRANCH   1  10
BRANCH   3  19
ATOM     19  C   UNL d   1     -41.123-120.910 -51.068  0.00  0.00     0.037 C 
ATOM     20  C   UNL d   1     -41.139-120.127 -51.324  0.00  0.00     0.003 C 
ENDBRANCH   3  19
TORSDOF 4
ENDMDL
MODEL 2
REMARK VINA RESULT:      -0.8      1.307      3.647
REMARK  4 active torsions:
REMARK  status: ('A' for Active; 'I' for Inactive)
REMARK    1  A    between atoms: C_5  and  N_1 
REMARK    2  A    between atoms: C_9  and  C_3 
REMARK    3  A    between atoms: C_7  and  C_5 
REMARK    4  A    between atoms: O_10  and  C_8 
ROOT
ATOM      1  N   UNL d   1     -42.264-122.546 -49.907  0.00  0.00    -0.289 N 
ATOM      2  N   UNL d   1     -43.345-122.988 -49.229  0.00  0.00    -0.227 NA
ATOM      3  C   UNL d   1     -43.098-122.567 -49.909  0.00  0.00     0.148 A 
ATOM      4  C   UNL d   1     -41.993-122.953 -49.229  0.00  0.00     0.083 A 
ATOM      5  C   UNL d   1     -42.662-123.227 -48.808  0.00  0.00     0.099 A 
ATOM      6  C   UNL d   1     -41.234-123.116 -48.929  0.00  0.00     0.019 A 
ATOM      7  C   UNL d   1     -42.571-123.651 -48.107  0.00  0.00     0.021 A 
ATOM      8  C   UNL d   1     -41.140-123.542 -48.225  0.00  0.00     0.002 A 
ATOM      9  C   UNL d   1     -41.807-123.810 -47.815  0.00  0.00     0.002 A 
ENDROOT
BRANCH   1  10
ATOM     10  C   UNL d   1     -41.780-122.189 -50.472  0.00  0.00     0.083 C 
BRANCH  10  11
ATOM     11  C   UNL d   1     -41.573-122.586 -51.154  0.00  0.00     0.040 A 
ATOM     12  C   UNL d   1     -41.332-122.166 -51.811  0.00  0.00     0.096 A 
ATOM     13  C   UNL d   1     -41.123-122.566 -52.501  0.00  0.00     0.024 A 
ATOM     14  C   UNL d   1     -41.157-123.390 -52.528  0.00  0.00     0.002 A 
ATOM     15  C   UNL d   1     -41.401-123.812 -51.864  0.00  0.00     0.000 A 
ATOM     16  C   UNL d   1     -41.609-123.409 -51.177  0.00  0.00     0.004 A 
BRANCH  12  17
ATOM     17  O   UNL d   1     -41.297-121.348 -51.786  0.00  0.00    -0.328 OA
ATOM     18  C   UNL d   1     -41.158-120.913 -52.476  0.00  0.00     0.181 C 
ENDBRANCH  12  17
ENDBRANCH  10  11
ENDBRANCH   1  10
BRANCH   3  19
ATOM     19  C   UNL d   1     -43.591-122.233 -50.478  0.00  0.00     0.037 C 
ATOM     20  C   UNL d   1     -44.402-122.193 -50.342  0.00  0.00     0.003 C 
ENDBRANCH   3  19
TORSDOF 4
ENDMDL
