MODEL 1
REMARK VINA RESULT:      -3.0      0.000      0.000
REMARK  5 active torsions:
REMARK  status: ('A' for Active; 'I' for Inactive)
REMARK    1  A    between atoms: N_2  and  C_1 
REMARK    2  A    between atoms: C_10  and  C_5 
REMARK       I    between atoms: N_6  and  C_7 
REMARK    3  A    between atoms: C_8  and  N_6 
REMARK    4  A    between atoms: C_7  and  C_11 
REMARK    5  A    between atoms: C_11  and  C_10 
ROOT
ATOM      1  N   UNL d   1      32.450  21.459 -21.709  0.00  0.00    -0.208 NA
ATOM      2  C   UNL d   1      32.762  20.697 -21.645  0.00  0.00     0.279 C 
ATOM      3  O   UNL d   1      33.215  20.492 -21.003  0.00  0.00    -0.265 OA
ENDROOT
BRANCH   2   4
ATOM      4  C   UNL d   1      32.610  20.144 -22.238  0.00  0.00     0.063 C 
BRANCH   4   5
ATOM      5  C   UNL d   1      33.099  19.499 -22.337  0.00  0.00     0.011 C 
BRANCH   5   6
ATOM      6  C   UNL d   1      32.965  18.955 -22.963  0.00  0.00     0.031 A 
ATOM      7  S   UNL d   1      32.581  18.228 -22.982  0.00  0.00    -0.064 SA
ATOM      8  C   UNL d   1      32.629  17.957 -23.749  0.00  0.00     0.156 A 
ATOM      9  C   UNL d   1      33.029  18.489 -24.205  0.00  0.00     0.031 A 
ATOM     10  C   UNL d   1      33.241  19.117 -23.709  0.00  0.00     0.009 A 
BRANCH   8  11
ATOM     11  N   UNL d   1      32.310  17.242 -24.003  0.00  0.00    -0.107 N 
ATOM     12  O   UNL d   1      31.555  17.203 -24.334  0.00  0.00    -0.531 OA
ATOM     13  O   UNL d   1      32.756  16.559 -23.924  0.00  0.00    -0.531 OA
ENDBRANCH   8  11
ENDBRANCH   5   6
ENDBRANCH   4   5
ENDBRANCH   2   4
BRANCH   1  14
ATOM     14  C   UNL d   1      32.601  22.012 -21.115  0.00  0.00     0.085 A 
ATOM     15  C   UNL d   1      32.578  22.820 -21.291  0.00  0.00     0.018 A 
ATOM     16  C   UNL d   1      32.726  23.361 -20.711  0.00  0.00     0.002 A 
ATOM     17  C   UNL d   1      32.400  23.065 -22.071  0.00  0.00     0.002 C 
ATOM     18  C   UNL d   1      32.900  23.105 -19.942  0.00  0.00     0.000 A 
ATOM     19  C   UNL d   1      32.924  22.290 -19.764  0.00  0.00     0.002 A 
ATOM     20  C   UNL d   1      33.049  23.671 -19.360  0.00  0.00     0.000 C 
ATOM     21  C   UNL d   1      32.773  21.765 -20.358  0.00  0.00     0.019 A 
ENDBRANCH   1  14
TORSDOF 5
ENDMDL
MODEL 2
REMARK VINA RESULT:      -2.2      1.677      5.316
REMARK  5 active torsions:
REMARK  status: ('A' for Active; 'I' for Inactive)
REMARK    1  A    between atoms: N_2  and  C_1 
REMARK    2  A    between atoms: C_10  and  C_5 
REMARK       I    between atoms: N_6  and  C_7 
REMARK    3  A    between atoms: C_8  and  N_6 
REMARK    4  A    between atoms: C_7  and  C_11 
REMARK    5  A    between atoms: C_11  and  C_10 
ROOT
ATOM      1  N   UNL d   1      32.837  18.977 -23.251  0.00  0.00    -0.208 NA
ATOM      2  C   UNL d   1      33.107  19.116 -22.484  0.00  0.00     0.279 C 
ATOM      3  O   UNL d   1      33.241  18.496 -21.976  0.00  0.00    -0.265 OA
ENDROOT
BRANCH   2   4
ATOM      4  C   UNL d   1      33.241  19.891 -22.234  0.00  0.00     0.063 C 
BRANCH   4   5
ATOM      5  C   UNL d   1      32.625  20.351 -21.961  0.00  0.00     0.011 C 
BRANCH   5   6
ATOM      6  C   UNL d   1      32.772  21.108 -21.629  0.00  0.00     0.031 A 
ATOM      7  S   UNL d   1      32.740  21.380 -20.853  0.00  0.00    -0.064 SA
ATOM      8  C   UNL d   1      32.941  22.169 -20.874  0.00  0.00     0.156 A 
ATOM      9  C   UNL d   1      33.097  22.396 -21.632  0.00  0.00     0.031 A 
ATOM     10  C   UNL d   1      32.990  21.727 -22.108  0.00  0.00     0.009 A 
BRANCH   8  11
ATOM     11  N   UNL d   1      32.975  22.651 -20.206  0.00  0.00    -0.107 N 
ATOM     12  O   UNL d   1      33.164  22.343 -19.464  0.00  0.00    -0.531 OA
ATOM     13  O   UNL d   1      32.818  23.451 -20.286  0.00  0.00    -0.531 OA
ENDBRANCH   8  11
ENDBRANCH   5   6
ENDBRANCH   4   5
ENDBRANCH   2   4
BRANCH   1  14
ATOM     14  C   UNL d   1      32.703  18.202 -23.501  0.00  0.00     0.085 A 
ATOM     15  C   UNL d   1      32.459  18.057 -24.278  0.00  0.00     0.018 A 
ATOM     16  C   UNL d   1      32.328  17.299 -24.522  0.00  0.00     0.002 A 
ATOM     17  C   UNL d   1      32.351  18.701 -24.801  0.00  0.00     0.002 C 
ATOM     18  C   UNL d   1      32.438  16.670 -23.995  0.00  0.00     0.000 A 
ATOM     19  C   UNL d   1      32.684  16.815 -23.210  0.00  0.00     0.002 A 
ATOM     20  C   UNL d   1      32.299  15.901 -24.261  0.00  0.00     0.000 C 
ATOM     21  C   UNL d   1      32.810  17.580 -22.985  0.00  0.00     0.019 A 
ENDBRANCH   1  14
TORSDOF 5
ENDMDL
MODEL 3
REMARK VINA RESULT:      -1.6      1.872      5.649
REMARK  5 active torsions:
REMARK  status: ('A' for Active; 'I' for Inactive)
REMARK    1  A    between atoms: N_2  and  C_1 
REMARK    2  A    between atoms: C_10  and  C_5 
REMARK       I    between atoms: N_6  and  C_7 
REMARK    3  A    between atoms: C_8  and  N_6 
REMARK    4  A    between atoms: C_7  and  C_11 
REMARK    5  A    between atoms: C_11  and  C_10 
ROOT
ATOM      1  N   UNL d   1      31.749  17.531 -23.094  0.00  0.00    -0.208 NA
ATOM      2  C   UNL d   1      32.190  18.161 -23.394  0.00  0.00     0.279 C 
ATOM      3  O   UNL d   1      32.137  18.362 -24.180  0.00  0.00    -0.265 OA
ENDROOT
BRANCH   2   4
ATOM      4  C   UNL d   1      32.685  18.587 -22.891  0.00  0.00     0.063 C 
BRANCH   4   5
ATOM      5  C   UNL d   1      32.740  19.399 -22.953  0.00  0.00     0.011 C 
BRANCH   5   6
ATOM      6  C   UNL d   1      32.819  19.875 -22.266  0.00  0.00     0.031 A 
ATOM      7  S   UNL d   1      32.535  20.625 -22.086  0.00  0.00    -0.064 SA
ATOM      8  C   UNL d   1      32.792  20.798 -21.332  0.00  0.00     0.156 A 
ATOM      9  C   UNL d   1      33.223  20.183 -21.039  0.00  0.00     0.031 A 
ATOM     10  C   UNL d   1      33.240  19.601 -21.628  0.00  0.00     0.009 A 
BRANCH   8  11
ATOM     11  N   UNL d   1      32.624  21.504 -20.942  0.00  0.00    -0.107 N 
ATOM     12  O   UNL d   1      33.191  22.099 -20.871  0.00  0.00    -0.531 OA
ATOM     13  O   UNL d   1      31.879  21.612 -20.619  0.00  0.00    -0.531 OA
ENDBRANCH   8  11
ENDBRANCH   5   6
ENDBRANCH   4   5
ENDBRANCH   2   4
BRANCH   1  14
ATOM     14  C   UNL d   1      31.253  17.105 -23.598  0.00  0.00     0.085 A 
ATOM     15  C   UNL d   1      31.280  16.278 -23.598  0.00  0.00     0.018 A 
ATOM     16  C   UNL d   1      30.795  15.861 -24.090  0.00  0.00     0.002 A 
ATOM     17  C   UNL d   1      31.811  15.885 -23.085  0.00  0.00     0.002 C 
ATOM     18  C   UNL d   1      30.273  16.262 -24.594  0.00  0.00     0.000 A 
ATOM     19  C   UNL d   1      30.246  17.096 -24.595  0.00  0.00     0.002 A 
ATOM     20  C   UNL d   1      29.784  15.820 -25.091  0.00  0.00     0.000 C 
ATOM     21  C   UNL d   1      30.738  17.495 -24.095  0.00  0.00     0.019 A 
ENDBRANCH   1  14
TORSDOF 5
ENDMDL
MODEL 4
REMARK VINA RESULT:      -1.4      1.486      2.112
REMARK  5 active torsions:
REMARK  status: ('A' for Active; 'I' for Inactive)
REMARK    1  A    between atoms: N_2  and  C_1 
REMARK    2  A    between atoms: C_10  and  C_5 
REMARK       I    between atoms: N_6  and  C_7 
REMARK    3  A    between atoms: C_8  and  N_6 
REMARK    4  A    between atoms: C_7  and  C_11 
REMARK    5  A    between atoms: C_11  and  C_10 
ROOT
ATOM      1  N   UNL d   1      32.816  19.838 -22.778  0.00  0.00    -0.208 NA
ATOM      2  C   UNL d   1      32.893  19.018 -22.740  0.00  0.00     0.279 C 
ATOM      3  O   UNL d   1      33.073  18.654 -22.037  0.00  0.00    -0.265 OA
ENDROOT
BRANCH   2   4
ATOM      4  C   UNL d   1      32.785  18.567 -23.423  0.00  0.00     0.063 C 
BRANCH   4   5
ATOM      5  C   UNL d   1      32.719  17.755 -23.377  0.00  0.00     0.011 C 
BRANCH   5   6
ATOM      6  C   UNL d   1      32.189  17.342 -23.881  0.00  0.00     0.031 A 
ATOM      7  S   UNL d   1      31.382  17.428 -24.012  0.00  0.00    -0.064 SA
ATOM      8  C   UNL d   1      31.173  16.866 -24.565  0.00  0.00     0.156 A 
ATOM      9  C   UNL d   1      31.821  16.436 -24.780  0.00  0.00     0.031 A 
ATOM     10  C   UNL d   1      32.461  16.736 -24.348  0.00  0.00     0.009 A 
BRANCH   8  11
ATOM     11  N   UNL d   1      30.407  16.766 -24.850  0.00  0.00    -0.107 N 
ATOM     12  O   UNL d   1      29.880  17.400 -24.893  0.00  0.00    -0.531 OA
ATOM     13  O   UNL d   1      30.169  16.022 -25.095  0.00  0.00    -0.531 OA
ENDBRANCH   8  11
ENDBRANCH   5   6
ENDBRANCH   4   5
ENDBRANCH   2   4
BRANCH   1  14
ATOM     14  C   UNL d   1      32.924  20.289 -22.096  0.00  0.00     0.085 A 
ATOM     15  C   UNL d   1      32.836  21.111 -22.127  0.00  0.00     0.018 A 
ATOM     16  C   UNL d   1      32.941  21.552 -21.460  0.00  0.00     0.002 A 
ATOM     17  C   UNL d   1      32.638  21.474 -22.854  0.00  0.00     0.002 C 
ATOM     18  C   UNL d   1      33.137  21.180 -20.745  0.00  0.00     0.000 A 
ATOM     19  C   UNL d   1      33.226  20.351 -20.712  0.00  0.00     0.002 A 
ATOM     20  C   UNL d   1      33.241  21.646 -20.072  0.00  0.00     0.000 C 
ATOM     21  C   UNL d   1      33.117  19.928 -21.391  0.00  0.00     0.019 A 
ENDBRANCH   1  14
TORSDOF 5
ENDMDL
