MODEL 1
REMARK VINA RESULT:      -1.8      0.000      0.000
REMARK  8 active torsions:
REMARK  status: ('A' for Active; 'I' for Inactive)
REMARK    1  A    between atoms: N_3  and  C_1 
REMARK       I    between atoms: C_8  and  N_3 
REMARK    2  A    between atoms: O_12  and  C_4 
REMARK    3  A    between atoms: S_20  and  C_5 
REMARK    4  A    between atoms: C_13  and  C_8 
REMARK    5  A    between atoms: C_9  and  O_12 
REMARK    6  A    between atoms: C_14  and  C_9 
REMARK    7  A    between atoms: C_16  and  C_28 
REMARK    8  A    between atoms: C_28  and  S_20 
ROOT
ATOM      1  C   UNL d   1      31.485  16.832 -23.496  0.00  0.00     0.167 A 
ATOM      2  C   UNL d   1      32.269  16.587 -23.494  0.00  0.00     0.222 A 
ATOM      3  C   UNL d   1      32.854  17.152 -23.327  0.00  0.00     0.069 A 
ATOM      4  C   UNL d   1      31.283  17.615 -23.337  0.00  0.00     0.151 A 
ATOM      5  C   UNL d   1      32.652  17.935 -23.169  0.00  0.00     0.110 A 
ATOM      6  O   UNL d   1      31.863  18.162 -23.175  0.00  0.00    -0.302 OA
ATOM      7  O   UNL d   1      32.469  15.812 -23.651  0.00  0.00    -0.284 OA
ENDROOT
BRANCH   5   8
ATOM      8  C   UNL d   1      33.238  18.486 -23.005  0.00  0.00     0.062 C 
BRANCH   8   9
ATOM      9  S   UNL d   1      33.048  19.288 -22.978  0.00  0.00    -0.057 SA
BRANCH   9  10
ATOM     10  C   UNL d   1      32.968  20.082 -22.472  0.00  0.00     0.166 A 
ATOM     11  S   UNL d   1      32.808  20.396 -21.727  0.00  0.00    -0.006 SA
ATOM     12  C   UNL d   1      32.861  21.219 -21.776  0.00  0.00     0.269 A 
ATOM     13  N   UNL d   1      33.055  21.412 -22.557  0.00  0.00    -0.107 NA
ATOM     14  N   UNL d   1      33.121  20.711 -22.987  0.00  0.00    -0.132 NA
BRANCH  12  15
ATOM     15  N   UNL d   1      32.795  21.919 -21.347  0.00  0.00    -0.337 NA
ATOM     16  C   UNL d   1      32.729  22.621 -20.917  0.00  0.00     0.330 C 
ATOM     17  O   UNL d   1      32.527  23.017 -21.612  0.00  0.00    -0.251 OA
BRANCH  16  18
ATOM     18  C   UNL d   1      32.824  22.835 -20.124  0.00  0.00     0.070 A 
ATOM     19  C   UNL d   1      33.115  22.664 -19.372  0.00  0.00     0.006 A 
ATOM     20  C   UNL d   1      32.696  23.379 -19.508  0.00  0.00     0.006 A 
ENDBRANCH  16  18
ENDBRANCH  12  15
ENDBRANCH   9  10
ENDBRANCH   8   9
ENDBRANCH   5   8
BRANCH   1  21
ATOM     21  O   UNL d   1      30.890  16.278 -23.661  0.00  0.00    -0.268 OA
BRANCH  21  22
ATOM     22  C   UNL d   1      30.246  16.493 -24.135  0.00  0.00     0.300 C 
ATOM     23  O   UNL d   1      30.355  17.027 -24.760  0.00  0.00    -0.259 OA
BRANCH  22  24
ATOM     24  C   UNL d   1      29.488  16.169 -23.979  0.00  0.00     0.064 A 
ATOM     25  C   UNL d   1      28.962  16.048 -24.603  0.00  0.00     0.005 A 
ATOM     26  C   UNL d   1      28.202  15.724 -24.456  0.00  0.00     0.000 A 
ATOM     27  C   UNL d   1      27.682  15.607 -25.085  0.00  0.00     0.000 C 
ATOM     28  C   UNL d   1      27.993  15.530 -23.678  0.00  0.00     0.000 A 
ATOM     29  C   UNL d   1      28.527  15.653 -23.044  0.00  0.00     0.000 A 
ATOM     30  C   UNL d   1      29.263  15.969 -23.207  0.00  0.00     0.005 A 
ATOM     31  C   UNL d   1      28.298  15.453 -22.285  0.00  0.00     0.000 C 
ENDBRANCH  22  24
ENDBRANCH  21  22
ENDBRANCH   1  21
TORSDOF 8
ENDMDL
MODEL 2
REMARK VINA RESULT:      -0.1      1.448      2.171
REMARK  8 active torsions:
REMARK  status: ('A' for Active; 'I' for Inactive)
REMARK    1  A    between atoms: N_3  and  C_1 
REMARK       I    between atoms: C_8  and  N_3 
REMARK    2  A    between atoms: O_12  and  C_4 
REMARK    3  A    between atoms: S_20  and  C_5 
REMARK    4  A    between atoms: C_13  and  C_8 
REMARK    5  A    between atoms: C_9  and  O_12 
REMARK    6  A    between atoms: C_14  and  C_9 
REMARK    7  A    between atoms: C_16  and  C_28 
REMARK    8  A    between atoms: C_28  and  S_20 
ROOT
ATOM      1  C   UNL d   1      32.502  18.738 -23.399  0.00  0.00     0.167 A 
ATOM      2  C   UNL d   1      32.956  19.010 -22.771  0.00  0.00     0.222 A 
ATOM      3  C   UNL d   1      33.125  19.822 -22.735  0.00  0.00     0.069 A 
ATOM      4  C   UNL d   1      32.221  19.253 -23.978  0.00  0.00     0.151 A 
ATOM      5  C   UNL d   1      32.844  20.338 -23.314  0.00  0.00     0.110 A 
ATOM      6  O   UNL d   1      32.391  20.047 -23.934  0.00  0.00    -0.302 OA
ATOM      7  O   UNL d   1      33.234  18.500 -22.199  0.00  0.00    -0.284 OA
ENDROOT
BRANCH   5   8
ATOM      8  C   UNL d   1      33.016  21.140 -23.269  0.00  0.00     0.062 C 
BRANCH   8   9
ATOM      9  S   UNL d   1      33.241  21.469 -22.548  0.00  0.00    -0.057 SA
BRANCH   9  10
ATOM     10  C   UNL d   1      32.990  21.880 -21.734  0.00  0.00     0.166 A 
ATOM     11  S   UNL d   1      32.652  21.761 -20.993  0.00  0.00    -0.006 SA
ATOM     12  C   UNL d   1      32.643  22.483 -20.592  0.00  0.00     0.269 A 
ATOM     13  N   UNL d   1      32.980  23.051 -21.092  0.00  0.00    -0.107 NA
ATOM     14  N   UNL d   1      33.194  22.679 -21.797  0.00  0.00    -0.132 NA
BRANCH  12  15
ATOM     15  N   UNL d   1      32.430  22.854 -19.889  0.00  0.00    -0.337 NA
ATOM     16  C   UNL d   1      32.216  23.226 -19.184  0.00  0.00     0.330 C 
ATOM     17  O   UNL d   1      31.683  23.696 -19.604  0.00  0.00    -0.251 OA
BRANCH  16  18
ATOM     18  C   UNL d   1      32.441  23.156 -18.392  0.00  0.00     0.070 A 
ATOM     19  C   UNL d   1      32.380  23.413 -17.610  0.00  0.00     0.006 A 
ATOM     20  C   UNL d   1      32.893  22.777 -17.806  0.00  0.00     0.006 A 
ENDBRANCH  16  18
ENDBRANCH  12  15
ENDBRANCH   9  10
ENDBRANCH   8   9
ENDBRANCH   5   8
BRANCH   1  21
ATOM     21  O   UNL d   1      32.326  17.928 -23.447  0.00  0.00    -0.268 OA
BRANCH  21  22
ATOM     22  C   UNL d   1      31.960  17.625 -24.125  0.00  0.00     0.300 C 
ATOM     23  O   UNL d   1      32.304  17.749 -24.870  0.00  0.00    -0.259 OA
BRANCH  22  24
ATOM     24  C   UNL d   1      31.243  17.195 -24.053  0.00  0.00     0.064 A 
ATOM     25  C   UNL d   1      30.597  17.402 -24.524  0.00  0.00     0.005 A 
ATOM     26  C   UNL d   1      29.876  16.977 -24.459  0.00  0.00     0.000 A 
ATOM     27  C   UNL d   1      29.235  17.190 -24.933  0.00  0.00     0.000 C 
ATOM     28  C   UNL d   1      29.828  16.352 -23.917  0.00  0.00     0.000 A 
ATOM     29  C   UNL d   1      30.482  16.142 -23.440  0.00  0.00     0.000 A 
ATOM     30  C   UNL d   1      31.177  16.568 -23.517  0.00  0.00     0.005 A 
ATOM     31  C   UNL d   1      30.410  15.521 -22.912  0.00  0.00     0.000 C 
ENDBRANCH  22  24
ENDBRANCH  21  22
ENDBRANCH   1  21
TORSDOF 8
ENDMDL
