MODEL 1
REMARK VINA RESULT:      40.8      0.000      0.000
REMARK  5 active torsions:
REMARK  status: ('A' for Active; 'I' for Inactive)
REMARK    1  A    between atoms: S_3  and  N_1 
REMARK    2  A    between atoms: S_4  and  N_8 
REMARK    3  A    between atoms: C_12  and  C_5 
REMARK    4  A    between atoms: C_9  and  C_6 
REMARK    5  A    between atoms: N_8  and  C_16 
ROOT
ATOM      1  N   UNL d   1      13.384  12.537  -4.150  0.00  0.00    -0.155 N 
ATOM      2  N   UNL d   1      13.428  12.057  -3.474  0.00  0.00    -0.156 NA
ATOM      3  C   UNL d   1      13.380  13.329  -3.895  0.00  0.00     0.096 A 
ATOM      4  C   UNL d   1      13.450  12.546  -2.810  0.00  0.00     0.104 A 
ATOM      5  C   UNL d   1      13.420  13.330  -3.074  0.00  0.00     0.041 A 
ENDROOT
BRANCH   4   6
ATOM      6  C   UNL d   1      13.493  12.299  -2.025  0.00  0.00     0.021 A 
ATOM      7  C   UNL d   1      14.214  12.317  -1.632  0.00  0.00     0.021 A 
ATOM      8  C   UNL d   1      14.259  12.068  -0.842  0.00  0.00     0.093 A 
ATOM      9  C   UNL d   1      13.576  11.801  -0.450  0.00  0.00     0.020 A 
ATOM     10  C   UNL d   1      12.854  11.786  -0.854  0.00  0.00     0.002 A 
ATOM     11  C   UNL d   1      12.808  12.032  -1.636  0.00  0.00     0.002 A 
BRANCH   8  12
ATOM     12  N   UNL d   1      14.989  12.085  -0.442  0.00  0.00    -0.162 NA
BRANCH  12  13
ATOM     13  S   UNL d   1      15.512  12.705  -0.569  0.00  0.00     0.266 S 
ATOM     14  O   UNL d   1      15.851  13.461  -0.491  0.00  0.00    -0.203 OA
ATOM     15  O   UNL d   1      15.034  13.099  -0.019  0.00  0.00    -0.203 OA
ATOM     16  C   UNL d   1      15.993  12.324  -1.115  0.00  0.00     0.165 C 
ENDBRANCH  12  13
ENDBRANCH   8  12
ENDBRANCH   4   6
BRANCH   1  17
ATOM     17  S   UNL d   1      13.352  12.268  -4.932  0.00  0.00     0.266 S 
ATOM     18  O   UNL d   1      12.981  11.827  -5.522  0.00  0.00    -0.203 OA
ATOM     19  O   UNL d   1      12.769  12.040  -4.390  0.00  0.00    -0.203 OA
ATOM     20  C   UNL d   1      13.958  12.530  -5.415  0.00  0.00     0.165 C 
ENDBRANCH   1  17
BRANCH   3  21
ATOM     21  C   UNL d   1      13.342  13.985  -4.385  0.00  0.00     0.018 A 
ATOM     22  C   UNL d   1      13.855  14.039  -5.028  0.00  0.00     0.002 A 
ATOM     23  C   UNL d   1      13.822  14.696  -5.526  0.00  0.00     0.000 A 
ATOM     24  C   UNL d   1      13.281  15.293  -5.380  0.00  0.00     0.000 A 
ATOM     25  C   UNL d   1      12.771  15.230  -4.734  0.00  0.00     0.000 A 
ATOM     26  C   UNL d   1      13.248  15.952  -5.878  0.00  0.00     0.000 C 
ATOM     27  C   UNL d   1      12.798  14.587  -4.241  0.00  0.00     0.002 A 
ENDBRANCH   3  21
TORSDOF 5
ENDMDL
