MODEL 1
REMARK VINA RESULT:      -1.1      0.000      0.000
REMARK  4 active torsions:
REMARK  status: ('A' for Active; 'I' for Inactive)
REMARK    1  A    between atoms: C_3  and  C_1 
REMARK    2  A    between atoms: N_10  and  C_3 
REMARK    3  A    between atoms: C_13  and  C_3 
REMARK    4  A    between atoms: C_5  and  N_10 
ROOT
ATOM      1  C   UNL d   1      31.987  17.550 -24.088  0.00  0.00     0.086 C 
ENDROOT
BRANCH   1   2
ATOM      2  C   UNL d   1      32.354  18.175 -23.675  0.00  0.00     0.037 A 
ATOM      3  C   UNL d   1      32.533  18.172 -22.856  0.00  0.00     0.083 A 
ATOM      4  N   UNL d   1      32.875  18.856 -22.672  0.00  0.00    -0.245 NA
ATOM      5  C   UNL d   1      32.377  17.557 -22.332  0.00  0.00     0.021 C 
ATOM      6  C   UNL d   1      32.933  19.322 -23.342  0.00  0.00     0.081 A 
ATOM      7  C   UNL d   1      32.606  18.895 -23.971  0.00  0.00     0.021 A 
ATOM      8  C   UNL d   1      33.240  20.078 -23.464  0.00  0.00     0.019 A 
ATOM      9  C   UNL d   1      32.589  19.229 -24.715  0.00  0.00     0.002 A 
ATOM     10  C   UNL d   1      32.889  19.975 -24.851  0.00  0.00     0.000 A 
ATOM     11  C   UNL d   1      33.216  20.402 -24.222  0.00  0.00     0.002 A 
ENDBRANCH   1   2
BRANCH   1  12
ATOM     12  N   UNL d   1      31.227  17.641 -24.366  0.00  0.00    -0.225 NA
BRANCH  12  13
ATOM     13  C   UNL d   1      30.649  17.152 -24.083  0.00  0.00     0.191 A 
ATOM     14  N   UNL d   1      30.614  16.590 -23.449  0.00  0.00    -0.107 NA
ATOM     15  O   UNL d   1      29.865  16.261 -23.433  0.00  0.00    -0.210 OA
ATOM     16  C   UNL d   1      29.416  16.592 -24.036  0.00  0.00     0.128 A 
ATOM     17  C   UNL d   1      29.893  17.144 -24.441  0.00  0.00     0.068 A 
ATOM     18  C   UNL d   1      28.626  16.385 -24.180  0.00  0.00     0.029 C 
ENDBRANCH  12  13
ENDBRANCH   1  12
BRANCH   1  19
ATOM     19  C   UNL d   1      32.404  16.850 -24.205  0.00  0.00     0.037 A 
ATOM     20  C   UNL d   1      32.491  16.556 -24.943  0.00  0.00     0.100 A 
ATOM     21  N   UNL d   1      32.905  15.855 -25.086  0.00  0.00    -0.242 NA
ATOM     22  C   UNL d   1      33.236  15.453 -24.432  0.00  0.00     0.099 A 
ATOM     23  C   UNL d   1      33.142  15.763 -23.672  0.00  0.00     0.021 A 
ATOM     24  C   UNL d   1      32.733  16.453 -23.543  0.00  0.00     0.005 A 
ENDBRANCH   1  19
TORSDOF 4
ENDMDL
