MODEL 1
REMARK VINA RESULT:      -5.1      0.000      0.000
REMARK  9 active torsions:
REMARK  status: ('A' for Active; 'I' for Inactive)
REMARK    1  A    between atoms: N_2  and  C_1 
REMARK    2  A    between atoms: N_3  and  C_5 
REMARK    3  A    between atoms: N_16  and  C_6 
REMARK    4  A    between atoms: C_11  and  C_18 
REMARK    5  A    between atoms: O_14  and  C_11 
REMARK    6  A    between atoms: C_17  and  O_14 
REMARK    7  A    between atoms: C_19  and  N_16 
REMARK    8  A    between atoms: C_18  and  C_20 
REMARK    9  A    between atoms: C_20  and  C_19 
ROOT
ATOM      1  C   UNL d   1     -49.030  13.846  22.816  0.00  0.00     0.146 A 
ATOM      2  C   UNL d   1     -49.793  13.534  22.843  0.00  0.00     0.049 A 
ATOM      3  C   UNL d   1     -49.912  12.741  22.945  0.00  0.00     0.128 A 
ATOM      4  C   UNL d   1     -48.383  13.367  22.892  0.00  0.00     0.103 A 
ATOM      5  C   UNL d   1     -49.249  12.221  23.027  0.00  0.00     0.025 A 
ATOM      6  C   UNL d   1     -48.494  12.553  22.998  0.00  0.00     0.022 A 
ENDROOT
BRANCH   4   7
ATOM      7  N   UNL d   1     -47.606  13.685  22.866  0.00  0.00    -0.242 NA
BRANCH   7   8
ATOM      8  C   UNL d   1     -46.961  13.199  22.827  0.00  0.00     0.099 C 
BRANCH   8   9
ATOM      9  C   UNL d   1     -46.229  13.490  22.595  0.00  0.00     0.026 C 
BRANCH   9  10
ATOM     10  C   UNL d   1     -45.604  12.969  22.451  0.00  0.00     0.070 C 
BRANCH  10  11
ATOM     11  C   UNL d   1     -44.926  13.235  22.063  0.00  0.00     0.300 C 
ATOM     12  O   UNL d   1     -44.643  13.994  22.212  0.00  0.00    -0.259 OA
BRANCH  11  13
ATOM     13  O   UNL d   1     -44.540  12.738  21.530  0.00  0.00    -0.273 OA
BRANCH  13  14
ATOM     14  C   UNL d   1     -43.728  12.591  21.593  0.00  0.00     0.103 C 
ATOM     15  C   UNL d   1     -43.227  12.902  21.015  0.00  0.00     0.027 C 
ATOM     16  C   UNL d   1     -43.419  12.144  22.216  0.00  0.00     0.027 C 
ENDBRANCH  13  14
ENDBRANCH  11  13
ENDBRANCH  10  11
ENDBRANCH   9  10
ENDBRANCH   8   9
ENDBRANCH   7   8
ENDBRANCH   4   7
BRANCH   1  17
ATOM     17  N   UNL d   1     -48.913  14.685  22.707  0.00  0.00    -0.112 N 
ATOM     18  O   UNL d   1     -48.786  14.997  21.938  0.00  0.00    -0.532 OA
ATOM     19  O   UNL d   1     -48.926  15.191  23.362  0.00  0.00    -0.532 OA
ENDBRANCH   1  17
BRANCH   3  20
ATOM     20  N   UNL d   1     -50.679  12.447  22.969  0.00  0.00    -0.114 N 
ATOM     21  O   UNL d   1     -51.042  12.315  23.689  0.00  0.00    -0.532 OA
ATOM     22  O   UNL d   1     -51.064  12.291  22.256  0.00  0.00    -0.532 OA
ENDBRANCH   3  20
TORSDOF 9
ENDMDL
MODEL 2
REMARK VINA RESULT:      -5.0      1.948      5.003
REMARK  9 active torsions:
REMARK  status: ('A' for Active; 'I' for Inactive)
REMARK    1  A    between atoms: N_2  and  C_1 
REMARK    2  A    between atoms: N_3  and  C_5 
REMARK    3  A    between atoms: N_16  and  C_6 
REMARK    4  A    between atoms: C_11  and  C_18 
REMARK    5  A    between atoms: O_14  and  C_11 
REMARK    6  A    between atoms: C_17  and  O_14 
REMARK    7  A    between atoms: C_19  and  N_16 
REMARK    8  A    between atoms: C_18  and  C_20 
REMARK    9  A    between atoms: C_20  and  C_19 
ROOT
ATOM      1  C   UNL d   1     -45.218  12.415  22.503  0.00  0.00     0.146 A 
ATOM      2  C   UNL d   1     -44.802  11.751  22.761  0.00  0.00     0.049 A 
ATOM      3  C   UNL d   1     -45.137  11.228  23.278  0.00  0.00     0.128 A 
ATOM      4  C   UNL d   1     -45.970  12.559  22.762  0.00  0.00     0.103 A 
ATOM      5  C   UNL d   1     -45.924  11.359  23.562  0.00  0.00     0.025 A 
ATOM      6  C   UNL d   1     -46.323  12.030  23.292  0.00  0.00     0.022 A 
ENDROOT
BRANCH   4   7
ATOM      7  N   UNL d   1     -46.394  13.236  22.501  0.00  0.00    -0.242 NA
BRANCH   7   8
ATOM      8  C   UNL d   1     -47.009  13.532  22.933  0.00  0.00     0.099 C 
BRANCH   8   9
ATOM      9  C   UNL d   1     -47.560  14.035  22.590  0.00  0.00     0.026 C 
BRANCH   9  10
ATOM     10  C   UNL d   1     -47.988  14.563  23.062  0.00  0.00     0.070 C 
BRANCH  10  11
ATOM     11  C   UNL d   1     -48.720  14.845  22.806  0.00  0.00     0.300 C 
ATOM     12  O   UNL d   1     -48.783  15.198  22.065  0.00  0.00    -0.259 OA
BRANCH  11  13
ATOM     13  O   UNL d   1     -49.379  14.769  23.296  0.00  0.00    -0.273 OA
BRANCH  13  14
ATOM     14  C   UNL d   1     -50.070  15.202  23.152  0.00  0.00     0.103 C 
ATOM     15  C   UNL d   1     -50.202  15.888  23.593  0.00  0.00     0.027 C 
ATOM     16  C   UNL d   1     -50.619  14.960  22.584  0.00  0.00     0.027 C 
ENDBRANCH  13  14
ENDBRANCH  11  13
ENDBRANCH  10  11
ENDBRANCH   9  10
ENDBRANCH   8   9
ENDBRANCH   7   8
ENDBRANCH   4   7
BRANCH   1  17
ATOM     17  N   UNL d   1     -44.856  12.963  21.956  0.00  0.00    -0.112 N 
ATOM     18  O   UNL d   1     -44.580  13.709  22.227  0.00  0.00    -0.532 OA
ATOM     19  O   UNL d   1     -44.778  12.757  21.159  0.00  0.00    -0.532 OA
ENDBRANCH   1  17
BRANCH   3  20
ATOM     20  N   UNL d   1     -44.709  10.572  23.524  0.00  0.00    -0.114 N 
ATOM     21  O   UNL d   1     -43.898  10.623  23.611  0.00  0.00    -0.532 OA
ATOM     22  O   UNL d   1     -45.115   9.870  23.678  0.00  0.00    -0.532 OA
ENDBRANCH   3  20
TORSDOF 9
ENDMDL
MODEL 3
REMARK VINA RESULT:      -4.6      8.741      9.995
REMARK  9 active torsions:
REMARK  status: ('A' for Active; 'I' for Inactive)
REMARK    1  A    between atoms: N_2  and  C_1 
REMARK    2  A    between atoms: N_3  and  C_5 
REMARK    3  A    between atoms: N_16  and  C_6 
REMARK    4  A    between atoms: C_11  and  C_18 
REMARK    5  A    between atoms: O_14  and  C_11 
REMARK    6  A    between atoms: C_17  and  O_14 
REMARK    7  A    between atoms: C_19  and  N_16 
REMARK    8  A    between atoms: C_18  and  C_20 
REMARK    9  A    between atoms: C_20  and  C_19 
ROOT
ATOM      1  C   UNL d   1     -39.677  14.407  17.699  0.00  0.00     0.146 A 
ATOM      2  C   UNL d   1     -39.406  14.445  16.921  0.00  0.00     0.049 A 
ATOM      3  C   UNL d   1     -38.627  14.317  16.747  0.00  0.00     0.128 A 
ATOM      4  C   UNL d   1     -39.170  14.241  18.306  0.00  0.00     0.103 A 
ATOM      5  C   UNL d   1     -38.079  14.141  17.368  0.00  0.00     0.025 A 
ATOM      6  C   UNL d   1     -38.370  14.108  18.140  0.00  0.00     0.022 A 
ENDROOT
BRANCH   4   7
ATOM      7  N   UNL d   1     -39.446  14.203  19.099  0.00  0.00    -0.242 NA
BRANCH   7   8
ATOM      8  C   UNL d   1     -38.928  14.124  19.714  0.00  0.00     0.099 C 
BRANCH   8   9
ATOM      9  C   UNL d   1     -39.197  13.962  20.473  0.00  0.00     0.026 C 
BRANCH   9  10
ATOM     10  C   UNL d   1     -38.740  14.173  21.129  0.00  0.00     0.070 C 
BRANCH  10  11
ATOM     11  C   UNL d   1     -38.914  13.860  21.872  0.00  0.00     0.300 C 
ATOM     12  O   UNL d   1     -39.694  13.675  22.063  0.00  0.00    -0.259 OA
BRANCH  11  13
ATOM     13  O   UNL d   1     -38.306  13.736  22.414  0.00  0.00    -0.273 OA
BRANCH  13  14
ATOM     14  C   UNL d   1     -38.428  13.842  23.226  0.00  0.00     0.103 C 
ATOM     15  C   UNL d   1     -38.533  13.172  23.698  0.00  0.00     0.027 C 
ATOM     16  C   UNL d   1     -38.447  14.597  23.563  0.00  0.00     0.027 C 
ENDBRANCH  13  14
ENDBRANCH  11  13
ENDBRANCH  10  11
ENDBRANCH   9  10
ENDBRANCH   8   9
ENDBRANCH   7   8
ENDBRANCH   4   7
BRANCH   1  17
ATOM     17  N   UNL d   1     -40.502  14.545  17.873  0.00  0.00    -0.112 N 
ATOM     18  O   UNL d   1     -40.785  15.327  17.986  0.00  0.00    -0.532 OA
ATOM     19  O   UNL d   1     -41.022  13.904  17.931  0.00  0.00    -0.532 OA
ENDBRANCH   1  17
BRANCH   3  20
ATOM     20  N   UNL d   1     -38.374  14.359  15.967  0.00  0.00    -0.114 N 
ATOM     21  O   UNL d   1     -38.334  13.679  15.515  0.00  0.00    -0.532 OA
ATOM     22  O   UNL d   1     -38.165  15.095  15.658  0.00  0.00    -0.532 OA
ENDBRANCH   3  20
TORSDOF 9
ENDMDL
MODEL 4
REMARK VINA RESULT:      -3.7      1.775      3.126
REMARK  9 active torsions:
REMARK  status: ('A' for Active; 'I' for Inactive)
REMARK    1  A    between atoms: N_2  and  C_1 
REMARK    2  A    between atoms: N_3  and  C_5 
REMARK    3  A    between atoms: N_16  and  C_6 
REMARK    4  A    between atoms: C_11  and  C_18 
REMARK    5  A    between atoms: O_14  and  C_11 
REMARK    6  A    between atoms: C_17  and  O_14 
REMARK    7  A    between atoms: C_19  and  N_16 
REMARK    8  A    between atoms: C_18  and  C_20 
REMARK    9  A    between atoms: C_20  and  C_19 
ROOT
ATOM      1  C   UNL d   1     -46.378  12.486  23.036  0.00  0.00     0.146 A 
ATOM      2  C   UNL d   1     -47.133  12.748  23.241  0.00  0.00     0.049 A 
ATOM      3  C   UNL d   1     -47.404  13.468  22.993  0.00  0.00     0.128 A 
ATOM      4  C   UNL d   1     -45.891  12.944  22.582  0.00  0.00     0.103 A 
ATOM      5  C   UNL d   1     -46.909  13.964  22.516  0.00  0.00     0.025 A 
ATOM      6  C   UNL d   1     -46.158  13.684  22.323  0.00  0.00     0.022 A 
ENDROOT
BRANCH   4   7
ATOM      7  N   UNL d   1     -45.122  12.678  22.374  0.00  0.00    -0.242 NA
BRANCH   7   8
ATOM      8  C   UNL d   1     -44.667  13.094  21.851  0.00  0.00     0.099 C 
BRANCH   8   9
ATOM      9  C   UNL d   1     -43.888  12.880  21.708  0.00  0.00     0.026 C 
BRANCH   9  10
ATOM     10  C   UNL d   1     -43.434  13.308  21.164  0.00  0.00     0.070 C 
BRANCH  10  11
ATOM     11  C   UNL d   1     -42.611  13.285  21.205  0.00  0.00     0.300 C 
ATOM     12  O   UNL d   1     -42.225  12.559  21.252  0.00  0.00    -0.259 OA
BRANCH  11  13
ATOM     13  O   UNL d   1     -42.183  13.990  21.199  0.00  0.00    -0.273 OA
BRANCH  13  14
ATOM     14  C   UNL d   1     -41.428  14.030  20.860  0.00  0.00     0.103 C 
ATOM     15  C   UNL d   1     -40.774  14.050  21.363  0.00  0.00     0.027 C 
ATOM     16  C   UNL d   1     -41.326  14.050  20.040  0.00  0.00     0.027 C 
ENDBRANCH  13  14
ENDBRANCH  11  13
ENDBRANCH  10  11
ENDBRANCH   9  10
ENDBRANCH   8   9
ENDBRANCH   7   8
ENDBRANCH   4   7
BRANCH   1  17
ATOM     17  N   UNL d   1     -46.101  11.723  23.303  0.00  0.00    -0.112 N 
ATOM     18  O   UNL d   1     -46.562  11.035  23.165  0.00  0.00    -0.532 OA
ATOM     19  O   UNL d   1     -45.377  11.664  23.698  0.00  0.00    -0.532 OA
ENDBRANCH   1  17
BRANCH   3  20
ATOM     20  N   UNL d   1     -48.158  13.712  23.206  0.00  0.00    -0.114 N 
ATOM     21  O   UNL d   1     -48.719  13.160  23.425  0.00  0.00    -0.532 OA
ATOM     22  O   UNL d   1     -48.330  14.520  23.193  0.00  0.00    -0.532 OA
ENDBRANCH   3  20
TORSDOF 9
ENDMDL
MODEL 5
REMARK VINA RESULT:      -3.5      1.671      5.357
REMARK  9 active torsions:
REMARK  status: ('A' for Active; 'I' for Inactive)
REMARK    1  A    between atoms: N_2  and  C_1 
REMARK    2  A    between atoms: N_3  and  C_5 
REMARK    3  A    between atoms: N_16  and  C_6 
REMARK    4  A    between atoms: C_11  and  C_18 
REMARK    5  A    between atoms: O_14  and  C_11 
REMARK    6  A    between atoms: C_17  and  O_14 
REMARK    7  A    between atoms: C_19  and  N_16 
REMARK    8  A    between atoms: C_18  and  C_20 
REMARK    9  A    between atoms: C_20  and  C_19 
ROOT
ATOM      1  C   UNL d   1     -45.512  12.225  22.699  0.00  0.00     0.146 A 
ATOM      2  C   UNL d   1     -44.775  12.230  22.330  0.00  0.00     0.049 A 
ATOM      3  C   UNL d   1     -44.521  12.878  21.919  0.00  0.00     0.128 A 
ATOM      4  C   UNL d   1     -45.999  12.868  22.659  0.00  0.00     0.103 A 
ATOM      5  C   UNL d   1     -45.016  13.563  21.865  0.00  0.00     0.025 A 
ATOM      6  C   UNL d   1     -45.750  13.538  22.241  0.00  0.00     0.022 A 
ENDROOT
BRANCH   4   7
ATOM      7  N   UNL d   1     -46.751  12.863  23.035  0.00  0.00    -0.242 NA
BRANCH   7   8
ATOM      8  C   UNL d   1     -47.227  13.515  23.017  0.00  0.00     0.099 C 
BRANCH   8   9
ATOM      9  C   UNL d   1     -47.981  13.495  23.342  0.00  0.00     0.026 C 
BRANCH   9  10
ATOM     10  C   UNL d   1     -48.643  13.610  22.861  0.00  0.00     0.070 C 
BRANCH  10  11
ATOM     11  C   UNL d   1     -49.366  13.824  23.197  0.00  0.00     0.300 C 
ATOM     12  O   UNL d   1     -49.754  13.297  23.697  0.00  0.00    -0.259 OA
BRANCH  11  13
ATOM     13  O   UNL d   1     -49.690  14.562  23.027  0.00  0.00    -0.273 OA
BRANCH  13  14
ATOM     14  C   UNL d   1     -50.487  14.641  22.816  0.00  0.00     0.103 C 
ATOM     15  C   UNL d   1     -50.940  15.213  23.203  0.00  0.00     0.027 C 
ATOM     16  C   UNL d   1     -50.827  14.163  22.234  0.00  0.00     0.027 C 
ENDBRANCH  13  14
ENDBRANCH  11  13
ENDBRANCH  10  11
ENDBRANCH   9  10
ENDBRANCH   8   9
ENDBRANCH   7   8
ENDBRANCH   4   7
BRANCH   1  17
ATOM     17  N   UNL d   1     -45.771  11.534  23.131  0.00  0.00    -0.112 N 
ATOM     18  O   UNL d   1     -46.528  11.202  22.981  0.00  0.00    -0.532 OA
ATOM     19  O   UNL d   1     -45.274  11.194  23.698  0.00  0.00    -0.532 OA
ENDBRANCH   1  17
BRANCH   3  20
ATOM     20  N   UNL d   1     -43.784  12.866  21.557  0.00  0.00    -0.114 N 
ATOM     21  O   UNL d   1     -43.705  12.560  20.804  0.00  0.00    -0.532 OA
ATOM     22  O   UNL d   1     -43.136  13.168  21.971  0.00  0.00    -0.532 OA
ENDBRANCH   3  20
TORSDOF 9
ENDMDL
