MODEL 1
REMARK VINA RESULT:      55.3      0.000      0.000
REMARK  2 active torsions:
REMARK  status: ('A' for Active; 'I' for Inactive)
REMARK    1  A    between atoms: C_5  and  C_1 
REMARK       I    between atoms: N_7  and  C_5 
REMARK    2  A    between atoms: C_9  and  N_7 
ROOT
ATOM      1  C   UNL d   1     -55.787 -99.208 -43.822  0.00  0.00     0.161 A 
ATOM      2  C   UNL d   1     -55.602 -99.057 -44.586  0.00  0.00     0.072 A 
ATOM      3  O   UNL d   1     -56.609 -99.218 -43.567  0.00  0.00    -0.302 OA
ATOM      4  C   UNL d   1     -56.182 -98.910 -45.143  0.00  0.00     0.200 A 
ATOM      5  C   UNL d   1     -56.985 -98.914 -44.920  0.00  0.00     0.062 A 
ATOM      6  C   UNL d   1     -57.182 -99.066 -44.149  0.00  0.00     0.103 A 
ATOM      7  O   UNL d   1     -55.953 -98.756 -45.932  0.00  0.00    -0.286 OA
ATOM      8  C   UNL d   1     -57.589 -98.765 -45.480  0.00  0.00     0.005 A 
ATOM      9  C   UNL d   1     -57.998 -99.070 -43.923  0.00  0.00     0.025 A 
ATOM     10  C   UNL d   1     -58.383 -98.774 -45.241  0.00  0.00     0.000 A 
ATOM     11  C   UNL d   1     -58.578 -98.923 -44.480  0.00  0.00     0.002 A 
ENDROOT
BRANCH   1  12
ATOM     12  C   UNL d   1     -55.144 -99.357 -43.274  0.00  0.00     0.302 C 
ATOM     13  N   UNL d   1     -54.716-100.061 -43.310  0.00  0.00    -0.206 NA
ATOM     14  O   UNL d   1     -54.961 -98.773 -42.704  0.00  0.00    -0.263 OA
BRANCH  13  15
ATOM     15  C   UNL d   1     -54.911-100.619 -43.877  0.00  0.00     0.085 A 
ATOM     16  C   UNL d   1     -55.123-101.382 -43.644  0.00  0.00     0.018 A 
ATOM     17  C   UNL d   1     -55.321-101.950 -44.194  0.00  0.00     0.002 A 
ATOM     18  C   UNL d   1     -55.135-101.577 -42.816  0.00  0.00     0.002 C 
ATOM     19  C   UNL d   1     -55.308-101.759 -44.992  0.00  0.00     0.000 A 
ATOM     20  C   UNL d   1     -55.097-100.999 -45.232  0.00  0.00     0.002 A 
ATOM     21  C   UNL d   1     -55.510-102.337 -45.575  0.00  0.00     0.000 C 
ATOM     22  C   UNL d   1     -54.902-100.439 -44.665  0.00  0.00     0.019 A 
ENDBRANCH  13  15
ENDBRANCH   1  12
TORSDOF 2
ENDMDL
MODEL 2
REMARK VINA RESULT:      56.0      0.768      1.817
REMARK  2 active torsions:
REMARK  status: ('A' for Active; 'I' for Inactive)
REMARK    1  A    between atoms: C_5  and  C_1 
REMARK       I    between atoms: N_7  and  C_5 
REMARK    2  A    between atoms: C_9  and  N_7 
ROOT
ATOM      1  C   UNL d   1     -55.858 -99.158 -44.851  0.00  0.00     0.161 A 
ATOM      2  C   UNL d   1     -55.666 -99.025 -44.086  0.00  0.00     0.072 A 
ATOM      3  O   UNL d   1     -56.682 -99.164 -45.099  0.00  0.00    -0.302 OA
ATOM      4  C   UNL d   1     -56.241 -98.891 -43.521  0.00  0.00     0.200 A 
ATOM      5  C   UNL d   1     -57.046 -98.892 -43.735  0.00  0.00     0.062 A 
ATOM      6  C   UNL d   1     -57.249 -99.026 -44.508  0.00  0.00     0.103 A 
ATOM      7  O   UNL d   1     -56.005 -98.755 -42.730  0.00  0.00    -0.286 OA
ATOM      8  C   UNL d   1     -57.645 -98.757 -43.167  0.00  0.00     0.005 A 
ATOM      9  C   UNL d   1     -58.068 -99.027 -44.726  0.00  0.00     0.025 A 
ATOM     10  C   UNL d   1     -58.441 -98.761 -43.399  0.00  0.00     0.000 A 
ATOM     11  C   UNL d   1     -58.643 -98.893 -44.161  0.00  0.00     0.002 A 
ENDROOT
BRANCH   1  12
ATOM     12  C   UNL d   1     -55.220 -99.293 -45.409  0.00  0.00     0.302 C 
ATOM     13  N   UNL d   1     -54.711 -99.936 -45.317  0.00  0.00    -0.206 NA
ATOM     14  O   UNL d   1     -55.125 -98.760 -46.045  0.00  0.00    -0.263 OA
BRANCH  13  15
ATOM     15  C   UNL d   1     -54.822-100.447 -44.686  0.00  0.00     0.085 A 
ATOM     16  C   UNL d   1     -55.030-101.233 -44.827  0.00  0.00     0.018 A 
ATOM     17  C   UNL d   1     -55.144-101.755 -44.212  0.00  0.00     0.002 A 
ATOM     18  C   UNL d   1     -55.128-101.501 -45.628  0.00  0.00     0.002 C 
ATOM     19  C   UNL d   1     -55.050-101.493 -43.439  0.00  0.00     0.000 A 
ATOM     20  C   UNL d   1     -54.841-100.709 -43.291  0.00  0.00     0.002 A 
ATOM     21  C   UNL d   1     -55.164-102.022 -42.790  0.00  0.00     0.000 C 
ATOM     22  C   UNL d   1     -54.730-100.197 -43.922  0.00  0.00     0.019 A 
ENDBRANCH  13  15
ENDBRANCH   1  12
TORSDOF 2
ENDMDL
