MODEL 1
REMARK VINA RESULT:      -9.4      0.000      0.000
REMARK  4 active torsions:
REMARK  status: ('A' for Active; 'I' for Inactive)
REMARK    1  A    between atoms: C_6  and  C_1 
REMARK    2  A    between atoms: C_3  and  C_5 
REMARK    3  A    between atoms: C_5  and  C_6 
REMARK    4  A    between atoms: C_17  and  C_13 
ROOT
ATOM      1  C   UNL d   1      52.403  33.037  53.301  0.00  0.00     0.202 C 
ATOM      2  O   UNL d   1      51.613  32.779  53.402  0.00  0.00    -0.286 OA
ENDROOT
BRANCH   1   3
ATOM      3  C   UNL d   1      52.616  33.797  53.597  0.00  0.00     0.078 A 
ATOM      4  C   UNL d   1      52.350  34.485  53.170  0.00  0.00     0.202 A 
ATOM      5  C   UNL d   1      52.559  35.228  53.461  0.00  0.00     0.084 A 
ATOM      6  O   UNL d   1      51.897  34.399  52.487  0.00  0.00    -0.286 OA
ATOM      7  C   UNL d   1      53.007  35.308  54.139  0.00  0.00     0.199 A 
ATOM      8  C   UNL d   1      53.268  34.631  54.558  0.00  0.00     0.039 A 
ATOM      9  O   UNL d   1      53.220  36.057  54.437  0.00  0.00    -0.286 OA
ATOM     10  C   UNL d   1      53.067  33.868  54.279  0.00  0.00     0.010 A 
BRANCH   8  11
ATOM     11  C   UNL d   1      53.722  34.707  55.244  0.00  0.00     0.003 C 
ATOM     12  C   UNL d   1      54.367  34.184  55.392  0.00  0.00     0.000 C 
ENDBRANCH   8  11
ENDBRANCH   1   3
BRANCH   1  13
ATOM     13  C   UNL d   1      52.960  32.561  52.922  0.00  0.00     0.081 C 
BRANCH  13  14
ATOM     14  C   UNL d   1      52.992  31.744  53.099  0.00  0.00     0.166 A 
ATOM     15  N   UNL d   1      53.454  31.398  53.678  0.00  0.00    -0.225 NA
ATOM     16  C   UNL d   1      53.312  30.581  53.661  0.00  0.00     0.101 A 
ATOM     17  C   UNL d   1      53.619  29.965  54.113  0.00  0.00     0.021 A 
ATOM     18  C   UNL d   1      52.764  30.432  53.071  0.00  0.00     0.101 A 
ATOM     19  C   UNL d   1      53.385  29.186  53.986  0.00  0.00     0.002 A 
ATOM     20  C   UNL d   1      52.827  29.036  53.385  0.00  0.00     0.002 A 
ATOM     21  C   UNL d   1      52.519  29.656  52.930  0.00  0.00     0.021 A 
ATOM     22  N   UNL d   1      52.557  31.141  52.715  0.00  0.00    -0.225 NA
ENDBRANCH  13  14
ENDBRANCH   1  13
TORSDOF 4
ENDMDL
MODEL 2
REMARK VINA RESULT:      -8.8      2.459      4.168
REMARK  4 active torsions:
REMARK  status: ('A' for Active; 'I' for Inactive)
REMARK    1  A    between atoms: C_6  and  C_1 
REMARK    2  A    between atoms: C_3  and  C_5 
REMARK    3  A    between atoms: C_5  and  C_6 
REMARK    4  A    between atoms: C_17  and  C_13 
ROOT
ATOM      1  C   UNL d   1      51.742  33.336  53.072  0.00  0.00     0.202 C 
ATOM      2  O   UNL d   1      51.108  32.837  53.299  0.00  0.00    -0.286 OA
ENDROOT
BRANCH   1   3
ATOM      3  C   UNL d   1      52.511  33.162  53.367  0.00  0.00     0.078 A 
ATOM      4  C   UNL d   1      52.919  32.481  53.057  0.00  0.00     0.202 A 
ATOM      5  C   UNL d   1      53.672  32.312  53.347  0.00  0.00     0.084 A 
ATOM      6  O   UNL d   1      52.561  32.010  52.483  0.00  0.00    -0.286 OA
ATOM      7  C   UNL d   1      54.023  32.782  53.916  0.00  0.00     0.199 A 
ATOM      8  C   UNL d   1      53.622  33.452  54.220  0.00  0.00     0.039 A 
ATOM      9  O   UNL d   1      54.784  32.615  54.212  0.00  0.00    -0.286 OA
ATOM     10  C   UNL d   1      52.857  33.639  53.939  0.00  0.00     0.010 A 
BRANCH   8  11
ATOM     11  C   UNL d   1      53.972  33.929  54.795  0.00  0.00     0.003 C 
ATOM     12  C   UNL d   1      53.521  34.516  55.199  0.00  0.00     0.000 C 
ENDBRANCH   8  11
ENDBRANCH   1   3
BRANCH   1  13
ATOM     13  C   UNL d   1      51.616  33.980  52.572  0.00  0.00     0.081 C 
BRANCH  13  14
ATOM     14  C   UNL d   1      50.839  34.270  52.461  0.00  0.00     0.166 A 
ATOM     15  N   UNL d   1      50.391  34.186  51.782  0.00  0.00    -0.225 NA
ATOM     16  C   UNL d   1      49.660  34.555  51.914  0.00  0.00     0.101 A 
ATOM     17  C   UNL d   1      48.999  34.643  51.432  0.00  0.00     0.021 A 
ATOM     18  C   UNL d   1      49.665  34.862  52.674  0.00  0.00     0.101 A 
ATOM     19  C   UNL d   1      48.328  35.040  51.697  0.00  0.00     0.002 A 
ATOM     20  C   UNL d   1      48.335  35.351  52.469  0.00  0.00     0.002 A 
ATOM     21  C   UNL d   1      49.000  35.263  52.955  0.00  0.00     0.021 A 
ATOM     22  N   UNL d   1      50.388  34.693  53.023  0.00  0.00    -0.225 NA
ENDBRANCH  13  14
ENDBRANCH   1  13
TORSDOF 4
ENDMDL
MODEL 3
REMARK VINA RESULT:      -8.2      1.545      4.584
REMARK  4 active torsions:
REMARK  status: ('A' for Active; 'I' for Inactive)
REMARK    1  A    between atoms: C_6  and  C_1 
REMARK    2  A    between atoms: C_3  and  C_5 
REMARK    3  A    between atoms: C_5  and  C_6 
REMARK    4  A    between atoms: C_17  and  C_13 
ROOT
ATOM      1  C   UNL d   1      53.664  31.821  53.724  0.00  0.00     0.202 C 
ATOM      2  O   UNL d   1      54.104  32.209  53.127  0.00  0.00    -0.286 OA
ENDROOT
BRANCH   1   3
ATOM      3  C   UNL d   1      53.400  31.034  53.576  0.00  0.00     0.078 A 
ATOM      4  C   UNL d   1      52.924  30.892  52.884  0.00  0.00     0.202 A 
ATOM      5  C   UNL d   1      52.666  30.122  52.741  0.00  0.00     0.084 A 
ATOM      6  O   UNL d   1      52.732  31.513  52.377  0.00  0.00    -0.286 OA
ATOM      7  C   UNL d   1      52.858  29.509  53.245  0.00  0.00     0.199 A 
ATOM      8  C   UNL d   1      53.326  29.650  53.926  0.00  0.00     0.039 A 
ATOM      9  O   UNL d   1      52.600  28.729  53.105  0.00  0.00    -0.286 OA
ATOM     10  C   UNL d   1      53.598  30.424  54.088  0.00  0.00     0.010 A 
BRANCH   8  11
ATOM     11  C   UNL d   1      53.523  29.034  54.439  0.00  0.00     0.003 C 
ATOM     12  C   UNL d   1      53.216  29.014  55.224  0.00  0.00     0.000 C 
ENDBRANCH   8  11
ENDBRANCH   1   3
BRANCH   1  13
ATOM     13  C   UNL d   1      53.493  32.197  54.438  0.00  0.00     0.081 C 
BRANCH  13  14
ATOM     14  C   UNL d   1      53.400  33.028  54.453  0.00  0.00     0.166 A 
ATOM     15  N   UNL d   1      52.799  33.448  54.092  0.00  0.00    -0.225 NA
ATOM     16  C   UNL d   1      52.923  34.254  54.248  0.00  0.00     0.101 A 
ATOM     17  C   UNL d   1      52.498  34.923  54.028  0.00  0.00     0.021 A 
ATOM     18  C   UNL d   1      53.600  34.321  54.705  0.00  0.00     0.101 A 
ATOM     19  C   UNL d   1      52.740  35.676  54.258  0.00  0.00     0.002 A 
ATOM     20  C   UNL d   1      53.428  35.742  54.722  0.00  0.00     0.002 A 
ATOM     21  C   UNL d   1      53.856  35.069  54.945  0.00  0.00     0.021 A 
ATOM     22  N   UNL d   1      53.905  33.572  54.839  0.00  0.00    -0.225 NA
ENDBRANCH  13  14
ENDBRANCH   1  13
TORSDOF 4
ENDMDL
MODEL 4
REMARK VINA RESULT:      -8.2      2.234      3.677
REMARK  4 active torsions:
REMARK  status: ('A' for Active; 'I' for Inactive)
REMARK    1  A    between atoms: C_6  and  C_1 
REMARK    2  A    between atoms: C_3  and  C_5 
REMARK    3  A    between atoms: C_5  and  C_6 
REMARK    4  A    between atoms: C_17  and  C_13 
ROOT
ATOM      1  C   UNL d   1      51.443  34.286  52.815  0.00  0.00     0.202 C 
ATOM      2  O   UNL d   1      52.063  34.813  52.620  0.00  0.00    -0.286 OA
ENDROOT
BRANCH   1   3
ATOM      3  C   UNL d   1      50.685  34.417  52.472  0.00  0.00     0.078 A 
ATOM      4  C   UNL d   1      50.584  34.256  51.641  0.00  0.00     0.202 A 
ATOM      5  C   UNL d   1      49.842  34.385  51.307  0.00  0.00     0.084 A 
ATOM      6  O   UNL d   1      51.218  33.978  51.193  0.00  0.00    -0.286 OA
ATOM      7  C   UNL d   1      49.216  34.660  51.754  0.00  0.00     0.199 A 
ATOM      8  C   UNL d   1      49.316  34.819  52.571  0.00  0.00     0.039 A 
ATOM      9  O   UNL d   1      48.464  34.793  51.421  0.00  0.00    -0.286 OA
ATOM     10  C   UNL d   1      50.062  34.694  52.929  0.00  0.00     0.010 A 
BRANCH   8  11
ATOM     11  C   UNL d   1      48.687  35.098  53.028  0.00  0.00     0.003 C 
ATOM     12  C   UNL d   1      48.768  35.801  53.486  0.00  0.00     0.000 C 
ENDBRANCH   8  11
ENDBRANCH   1   3
BRANCH   1  13
ATOM     13  C   UNL d   1      51.570  33.653  53.329  0.00  0.00     0.081 C 
BRANCH  13  14
ATOM     14  C   UNL d   1      52.322  33.553  53.681  0.00  0.00     0.166 A 
ATOM     15  N   UNL d   1      52.601  33.956  54.336  0.00  0.00    -0.225 NA
ATOM     16  C   UNL d   1      53.369  33.685  54.493  0.00  0.00     0.101 A 
ATOM     17  C   UNL d   1      53.910  33.891  55.077  0.00  0.00     0.021 A 
ATOM     18  C   UNL d   1      53.555  33.117  53.933  0.00  0.00     0.101 A 
ATOM     19  C   UNL d   1      54.652  33.534  55.116  0.00  0.00     0.002 A 
ATOM     20  C   UNL d   1      54.840  32.957  54.545  0.00  0.00     0.002 A 
ATOM     21  C   UNL d   1      54.295  32.750  53.957  0.00  0.00     0.021 A 
ATOM     22  N   UNL d   1      52.918  33.025  53.425  0.00  0.00    -0.225 NA
ENDBRANCH  13  14
ENDBRANCH   1  13
TORSDOF 4
ENDMDL
