MODEL 1
REMARK VINA RESULT:      -8.3      0.000      0.000
REMARK  5 active torsions:
REMARK  status: ('A' for Active; 'I' for Inactive)
REMARK    1  A    between atoms: C_4  and  S_1 
REMARK    2  A    between atoms: C_12  and  S_1 
REMARK    3  A    between atoms: C_3  and  C_6 
REMARK       I    between atoms: N_8  and  C_3 
REMARK    4  A    between atoms: C_6  and  C_4 
REMARK    5  A    between atoms: C_14  and  N_8 
ROOT
ATOM      1  C   UNL d   1      50.757  34.197  52.584  0.00  0.00     0.280 C 
ATOM      2  N   UNL d   1      50.002  34.241  52.923  0.00  0.00    -0.208 NA
ATOM      3  O   UNL d   1      50.893  34.555  51.842  0.00  0.00    -0.265 OA
ENDROOT
BRANCH   1   4
ATOM      4  C   UNL d   1      51.363  33.812  52.965  0.00  0.00     0.075 C 
BRANCH   4   5
ATOM      5  C   UNL d   1      52.029  34.136  53.023  0.00  0.00     0.104 C 
BRANCH   5   6
ATOM      6  S   UNL d   1      52.701  33.884  53.453  0.00  0.00     0.211 S 
ATOM      7  O   UNL d   1      52.488  33.088  53.335  0.00  0.00    -0.217 OA
ATOM      8  O   UNL d   1      52.915  34.692  53.571  0.00  0.00    -0.217 OA
BRANCH   6   9
ATOM      9  C   UNL d   1      53.368  33.642  53.880  0.00  0.00     0.088 A 
ATOM     10  C   UNL d   1      53.486  33.910  54.651  0.00  0.00     0.011 A 
ATOM     11  C   UNL d   1      54.154  33.668  55.080  0.00  0.00     0.001 A 
ATOM     12  C   UNL d   1      54.698  33.158  54.731  0.00  0.00     0.000 A 
ATOM     13  C   UNL d   1      54.590  32.883  53.960  0.00  0.00     0.001 A 
ATOM     14  C   UNL d   1      53.920  33.127  53.532  0.00  0.00     0.011 A 
ENDBRANCH   6   9
ENDBRANCH   5   6
ENDBRANCH   4   5
ENDBRANCH   1   4
BRANCH   2  15
ATOM     15  C   UNL d   1      49.389  34.635  52.531  0.00  0.00     0.087 A 
ATOM     16  C   UNL d   1      48.983  35.236  52.917  0.00  0.00     0.045 A 
ATOM     17  C   UNL d   1      48.375  35.627  52.528  0.00  0.00     0.121 A 
ATOM     18  O   UNL d   1      47.874  36.246  52.773  0.00  0.00    -0.299 OA
ATOM     19  C   UNL d   1      48.178  35.413  51.755  0.00  0.00     0.119 A 
ATOM     20  C   UNL d   1      47.373  36.399  52.132  0.00  0.00     0.304 A 
ATOM     21  O   UNL d   1      47.553  35.901  51.518  0.00  0.00    -0.300 OA
ATOM     22  C   UNL d   1      48.583  34.815  51.372  0.00  0.00     0.028 A 
ATOM     23  C   UNL d   1      49.188  34.427  51.761  0.00  0.00     0.021 A 
ENDBRANCH   2  15
TORSDOF 5
ENDMDL
MODEL 2
REMARK VINA RESULT:      -8.2      1.334      5.492
REMARK  5 active torsions:
REMARK  status: ('A' for Active; 'I' for Inactive)
REMARK    1  A    between atoms: C_4  and  S_1 
REMARK    2  A    between atoms: C_12  and  S_1 
REMARK    3  A    between atoms: C_3  and  C_6 
REMARK       I    between atoms: N_8  and  C_3 
REMARK    4  A    between atoms: C_6  and  C_4 
REMARK    5  A    between atoms: C_14  and  N_8 
ROOT
ATOM      1  C   UNL d   1      51.176  34.011  52.978  0.00  0.00     0.280 C 
ATOM      2  N   UNL d   1      51.972  34.236  52.924  0.00  0.00    -0.208 NA
ATOM      3  O   UNL d   1      50.973  33.333  53.421  0.00  0.00    -0.265 OA
ENDROOT
BRANCH   1   4
ATOM      4  C   UNL d   1      50.595  34.441  52.606  0.00  0.00     0.075 C 
BRANCH   4   5
ATOM      5  C   UNL d   1      49.896  34.413  52.858  0.00  0.00     0.104 C 
BRANCH   5   6
ATOM      6  S   UNL d   1      49.230  34.854  52.608  0.00  0.00     0.211 S 
ATOM      7  O   UNL d   1      49.253  34.482  51.864  0.00  0.00    -0.217 OA
ATOM      8  O   UNL d   1      49.209  35.229  53.364  0.00  0.00    -0.217 OA
BRANCH   6   9
ATOM      9  C   UNL d   1      48.571  35.292  52.368  0.00  0.00     0.088 A 
ATOM     10  C   UNL d   1      48.218  35.144  51.637  0.00  0.00     0.011 A 
ATOM     11  C   UNL d   1      47.557  35.582  51.395  0.00  0.00     0.001 A 
ATOM     12  C   UNL d   1      47.255  36.168  51.889  0.00  0.00     0.000 A 
ATOM     13  C   UNL d   1      47.600  36.326  52.622  0.00  0.00     0.001 A 
ATOM     14  C   UNL d   1      48.263  35.884  52.863  0.00  0.00     0.011 A 
ENDBRANCH   6   9
ENDBRANCH   5   6
ENDBRANCH   4   5
ENDBRANCH   1   4
BRANCH   2  15
ATOM     15  C   UNL d   1      52.559  33.794  53.305  0.00  0.00     0.087 A 
ATOM     16  C   UNL d   1      52.866  34.061  54.019  0.00  0.00     0.045 A 
ATOM     17  C   UNL d   1      53.448  33.624  54.398  0.00  0.00     0.121 A 
ATOM     18  O   UNL d   1      53.855  33.753  55.113  0.00  0.00    -0.299 OA
ATOM     19  C   UNL d   1      53.719  32.921  54.058  0.00  0.00     0.119 A 
ATOM     20  C   UNL d   1      54.376  33.114  55.196  0.00  0.00     0.304 A 
ATOM     21  O   UNL d   1      54.297  32.613  54.564  0.00  0.00    -0.300 OA
ATOM     22  C   UNL d   1      53.413  32.657  53.348  0.00  0.00     0.028 A 
ATOM     23  C   UNL d   1      52.833  33.094  52.973  0.00  0.00     0.021 A 
ENDBRANCH   2  15
TORSDOF 5
ENDMDL
