MODEL 1
REMARK VINA RESULT:      48.6      0.000      0.000
REMARK  7 active torsions:
REMARK  status: ('A' for Active; 'I' for Inactive)
REMARK    1  A    between atoms: C_3  and  C_1 
REMARK    2  A    between atoms: C_6  and  C_2 
REMARK       I    between atoms: N_5  and  C_3 
REMARK    3  A    between atoms: C_9  and  N_5 
REMARK    4  A    between atoms: N_10  and  C_9 
REMARK    5  A    between atoms: C_15  and  N_10 
REMARK    6  A    between atoms: C_13  and  C_15 
REMARK    7  A    between atoms: C_17  and  C_13 
ROOT
ATOM      1  C   UNL d   1      14.085  15.464  -3.789  0.00  0.00     0.285 C 
ATOM      2  N   UNL d   1      14.167  14.700  -4.085  0.00  0.00    -0.179 NA
ATOM      3  O   UNL d   1      13.362  15.715  -3.479  0.00  0.00    -0.265 OA
ENDROOT
BRANCH   1   4
ATOM      4  C   UNL d   1      14.739  15.981  -3.805  0.00  0.00     0.103 A 
ATOM      5  C   UNL d   1      15.146  16.265  -3.154  0.00  0.00     0.116 A 
ATOM      6  N   UNL d   1      15.748  16.755  -3.421  0.00  0.00    -0.126 NA
ATOM      7  O   UNL d   1      15.710  16.771  -4.245  0.00  0.00    -0.211 OA
ATOM      8  C   UNL d   1      15.088  16.294  -4.479  0.00  0.00     0.131 A 
ATOM      9  C   UNL d   1      14.860  16.158  -5.263  0.00  0.00     0.029 C 
BRANCH   5  10
ATOM     10  C   UNL d   1      15.007  16.112  -2.356  0.00  0.00     0.031 A 
ATOM     11  C   UNL d   1      14.992  16.728  -1.811  0.00  0.00     0.059 A 
ATOM     12 CL   UNL d   1      15.117  17.515  -2.062  0.00  0.00    -0.082 Cl
ATOM     13  C   UNL d   1      14.856  16.578  -1.022  0.00  0.00     0.011 A 
ATOM     14  C   UNL d   1      14.732  15.802  -0.770  0.00  0.00     0.001 A 
ATOM     15  C   UNL d   1      14.746  15.187  -1.306  0.00  0.00     0.000 A 
ATOM     16  C   UNL d   1      14.884  15.336  -2.104  0.00  0.00     0.002 A 
ENDBRANCH   5  10
ENDBRANCH   1   4
BRANCH   2  17
ATOM     17  C   UNL d   1      13.525  14.184  -4.072  0.00  0.00     0.224 C 
ATOM     18  S   UNL d   1      12.770  14.464  -4.252  0.00  0.00    -0.037 SA
BRANCH  17  19
ATOM     19  N   UNL d   1      13.641  13.391  -3.880  0.00  0.00    -0.212 NA
BRANCH  19  20
ATOM     20  C   UNL d   1      13.712  13.170  -3.087  0.00  0.00     0.143 C 
BRANCH  20  21
ATOM     21  C   UNL d   1      13.804  12.373  -2.882  0.00  0.00     0.215 C 
ATOM     22  O   UNL d   1      13.607  11.781  -3.415  0.00  0.00    -0.285 OA
BRANCH  21  23
ATOM     23  C   UNL d   1      14.095  12.175  -2.135  0.00  0.00     0.041 A 
ATOM     24  C   UNL d   1      14.887  11.985  -2.034  0.00  0.00     0.003 A 
ATOM     25  C   UNL d   1      15.179  11.787  -1.288  0.00  0.00     0.000 A 
ATOM     26  C   UNL d   1      14.668  11.781  -0.638  0.00  0.00     0.000 A 
ATOM     27  C   UNL d   1      13.877  11.971  -0.739  0.00  0.00     0.000 A 
ATOM     28  C   UNL d   1      13.584  12.169  -1.485  0.00  0.00     0.003 A 
ENDBRANCH  21  23
ENDBRANCH  20  21
ENDBRANCH  19  20
ENDBRANCH  17  19
ENDBRANCH   2  17
TORSDOF 7
ENDMDL
MODEL 2
REMARK VINA RESULT:      50.6      1.505      4.059
REMARK  7 active torsions:
REMARK  status: ('A' for Active; 'I' for Inactive)
REMARK    1  A    between atoms: C_3  and  C_1 
REMARK    2  A    between atoms: C_6  and  C_2 
REMARK       I    between atoms: N_5  and  C_3 
REMARK    3  A    between atoms: C_9  and  N_5 
REMARK    4  A    between atoms: N_10  and  C_9 
REMARK    5  A    between atoms: C_15  and  N_10 
REMARK    6  A    between atoms: C_13  and  C_15 
REMARK    7  A    between atoms: C_17  and  C_13 
ROOT
ATOM      1  C   UNL d   1      13.945  13.776  -2.891  0.00  0.00     0.285 C 
ATOM      2  N   UNL d   1      13.882  14.116  -3.639  0.00  0.00    -0.179 NA
ATOM      3  O   UNL d   1      14.239  14.214  -2.257  0.00  0.00    -0.265 OA
ENDROOT
BRANCH   1   4
ATOM      4  C   UNL d   1      13.709  12.983  -2.783  0.00  0.00     0.103 A 
ATOM      5  C   UNL d   1      13.838  12.529  -2.114  0.00  0.00     0.116 A 
ATOM      6  N   UNL d   1      13.516  11.785  -2.243  0.00  0.00    -0.126 NA
ATOM      7  O   UNL d   1      13.186  11.783  -2.999  0.00  0.00    -0.211 OA
ATOM      8  C   UNL d   1      13.306  12.522  -3.330  0.00  0.00     0.131 A 
ATOM      9  C   UNL d   1      13.059  12.753  -4.085  0.00  0.00     0.029 C 
BRANCH   5  10
ATOM     10  C   UNL d   1      14.219  12.742  -1.414  0.00  0.00     0.031 A 
ATOM     11  C   UNL d   1      14.971  12.454  -1.247  0.00  0.00     0.059 A 
ATOM     12 CL   UNL d   1      15.356  11.942  -1.784  0.00  0.00    -0.082 Cl
ATOM     13  C   UNL d   1      15.348  12.664  -0.556  0.00  0.00     0.011 A 
ATOM     14  C   UNL d   1      14.972  13.168  -0.023  0.00  0.00     0.001 A 
ATOM     15  C   UNL d   1      14.227  13.457  -0.184  0.00  0.00     0.000 A 
ATOM     16  C   UNL d   1      13.842  13.247  -0.881  0.00  0.00     0.002 A 
ENDBRANCH   5  10
ENDBRANCH   1   4
BRANCH   2  17
ATOM     17  C   UNL d   1      14.113  14.898  -3.753  0.00  0.00     0.224 C 
ATOM     18  S   UNL d   1      13.965  15.268  -4.476  0.00  0.00    -0.037 SA
BRANCH  17  19
ATOM     19  N   UNL d   1      14.491  15.307  -3.146  0.00  0.00    -0.212 NA
BRANCH  19  20
ATOM     20  C   UNL d   1      14.401  16.126  -3.088  0.00  0.00     0.143 C 
BRANCH  20  21
ATOM     21  C   UNL d   1      15.042  16.604  -2.870  0.00  0.00     0.215 C 
ATOM     22  O   UNL d   1      15.566  16.880  -3.438  0.00  0.00    -0.285 OA
BRANCH  21  23
ATOM     23  C   UNL d   1      15.152  16.801  -2.076  0.00  0.00     0.041 A 
ATOM     24  C   UNL d   1      14.944  17.544  -1.800  0.00  0.00     0.003 A 
ATOM     25  C   UNL d   1      15.054  17.743  -1.006  0.00  0.00     0.000 A 
ATOM     26  C   UNL d   1      15.377  17.186  -0.487  0.00  0.00     0.000 A 
ATOM     27  C   UNL d   1      15.585  16.443  -0.764  0.00  0.00     0.000 A 
ATOM     28  C   UNL d   1      15.476  16.244  -1.557  0.00  0.00     0.003 A 
ENDBRANCH  21  23
ENDBRANCH  20  21
ENDBRANCH  19  20
ENDBRANCH  17  19
ENDBRANCH   2  17
TORSDOF 7
ENDMDL
MODEL 3
REMARK VINA RESULT:      51.1      2.067      4.900
REMARK  7 active torsions:
REMARK  status: ('A' for Active; 'I' for Inactive)
REMARK    1  A    between atoms: C_3  and  C_1 
REMARK    2  A    between atoms: C_6  and  C_2 
REMARK       I    between atoms: N_5  and  C_3 
REMARK    3  A    between atoms: C_9  and  N_5 
REMARK    4  A    between atoms: N_10  and  C_9 
REMARK    5  A    between atoms: C_15  and  N_10 
REMARK    6  A    between atoms: C_13  and  C_15 
REMARK    7  A    between atoms: C_17  and  C_13 
ROOT
ATOM      1  C   UNL d   1      13.888  13.776  -3.489  0.00  0.00     0.285 C 
ATOM      2  N   UNL d   1      13.593  14.283  -4.067  0.00  0.00    -0.179 NA
ATOM      3  O   UNL d   1      14.472  14.035  -2.966  0.00  0.00    -0.265 OA
ENDROOT
BRANCH   1   4
ATOM      4  C   UNL d   1      13.592  12.999  -3.438  0.00  0.00     0.103 A 
ATOM      5  C   UNL d   1      13.694  12.483  -2.810  0.00  0.00     0.116 A 
ATOM      6  N   UNL d   1      13.312  11.779  -2.990  0.00  0.00    -0.126 NA
ATOM      7  O   UNL d   1      12.971  11.864  -3.737  0.00  0.00    -0.211 OA
ATOM      8  C   UNL d   1      13.144  12.616  -4.011  0.00  0.00     0.131 A 
ATOM      9  C   UNL d   1      12.905  12.925  -4.740  0.00  0.00     0.029 C 
BRANCH   5  10
ATOM     10  C   UNL d   1      14.102  12.609  -2.105  0.00  0.00     0.031 A 
ATOM     11  C   UNL d   1      13.838  12.265  -1.406  0.00  0.00     0.059 A 
ATOM     12 CL   UNL d   1      13.153  11.785  -1.404  0.00  0.00    -0.082 Cl
ATOM     13  C   UNL d   1      14.239  12.389  -0.708  0.00  0.00     0.011 A 
ATOM     14  C   UNL d   1      14.915  12.861  -0.705  0.00  0.00     0.001 A 
ATOM     15  C   UNL d   1      15.182  13.204  -1.395  0.00  0.00     0.000 A 
ATOM     16  C   UNL d   1      14.778  13.082  -2.102  0.00  0.00     0.002 A 
ENDBRANCH   5  10
ENDBRANCH   1   4
BRANCH   2  17
ATOM     17  C   UNL d   1      13.881  15.053  -4.123  0.00  0.00     0.224 C 
ATOM     18  S   UNL d   1      14.198  15.422  -3.456  0.00  0.00    -0.037 SA
BRANCH  17  19
ATOM     19  N   UNL d   1      13.853  15.450  -4.845  0.00  0.00    -0.212 NA
BRANCH  19  20
ATOM     20  C   UNL d   1      14.003  16.262  -4.870  0.00  0.00     0.143 C 
BRANCH  20  21
ATOM     21  C   UNL d   1      13.744  16.715  -5.513  0.00  0.00     0.215 C 
ATOM     22  O   UNL d   1      13.254  16.387  -6.083  0.00  0.00    -0.285 OA
BRANCH  21  23
ATOM     23  C   UNL d   1      13.981  17.503  -5.578  0.00  0.00     0.041 A 
ATOM     24  C   UNL d   1      14.157  17.942  -4.907  0.00  0.00     0.003 A 
ATOM     25  C   UNL d   1      14.394  18.730  -4.971  0.00  0.00     0.000 A 
ATOM     26  C   UNL d   1      14.454  19.079  -5.718  0.00  0.00     0.000 A 
ATOM     27  C   UNL d   1      14.278  18.640  -6.389  0.00  0.00     0.000 A 
ATOM     28  C   UNL d   1      14.041  17.852  -6.325  0.00  0.00     0.003 A 
ENDBRANCH  21  23
ENDBRANCH  20  21
ENDBRANCH  19  20
ENDBRANCH  17  19
ENDBRANCH   2  17
TORSDOF 7
ENDMDL
MODEL 4
REMARK VINA RESULT:      51.5      0.980      2.264
REMARK  7 active torsions:
REMARK  status: ('A' for Active; 'I' for Inactive)
REMARK    1  A    between atoms: C_3  and  C_1 
REMARK    2  A    between atoms: C_6  and  C_2 
REMARK       I    between atoms: N_5  and  C_3 
REMARK    3  A    between atoms: C_9  and  N_5 
REMARK    4  A    between atoms: N_10  and  C_9 
REMARK    5  A    between atoms: C_15  and  N_10 
REMARK    6  A    between atoms: C_13  and  C_15 
REMARK    7  A    between atoms: C_17  and  C_13 
ROOT
ATOM      1  C   UNL d   1      13.901  15.145  -3.465  0.00  0.00     0.285 C 
ATOM      2  N   UNL d   1      14.159  14.363  -3.428  0.00  0.00    -0.179 NA
ATOM      3  O   UNL d   1      13.123  15.318  -3.682  0.00  0.00    -0.265 OA
ENDROOT
BRANCH   1   4
ATOM      4  C   UNL d   1      14.434  15.759  -3.283  0.00  0.00     0.103 A 
ATOM      5  C   UNL d   1      14.745  16.302  -3.812  0.00  0.00     0.116 A 
ATOM      6  N   UNL d   1      15.244  16.807  -3.399  0.00  0.00    -0.126 NA
ATOM      7  O   UNL d   1      15.238  16.571  -2.608  0.00  0.00    -0.211 OA
ATOM      8  C   UNL d   1      14.739  15.926  -2.539  0.00  0.00     0.131 A 
ATOM      9  C   UNL d   1      14.578  15.521  -1.836  0.00  0.00     0.029 C 
BRANCH   5  10
ATOM     10  C   UNL d   1      14.608  16.365  -4.622  0.00  0.00     0.031 A 
ATOM     11  C   UNL d   1      15.238  16.421  -5.147  0.00  0.00     0.059 A 
ATOM     12 CL   UNL d   1      16.024  16.414  -4.863  0.00  0.00    -0.082 Cl
ATOM     13  C   UNL d   1      15.104  16.482  -5.948  0.00  0.00     0.011 A 
ATOM     14  C   UNL d   1      14.330  16.489  -6.232  0.00  0.00     0.001 A 
ATOM     15  C   UNL d   1      13.701  16.434  -5.717  0.00  0.00     0.000 A 
ATOM     16  C   UNL d   1      13.833  16.371  -4.907  0.00  0.00     0.002 A 
ENDBRANCH   5  10
ENDBRANCH   1   4
BRANCH   2  17
ATOM     17  C   UNL d   1      13.638  13.751  -3.607  0.00  0.00     0.224 C 
ATOM     18  S   UNL d   1      13.381  13.645  -4.384  0.00  0.00    -0.037 SA
BRANCH  17  19
ATOM     19  N   UNL d   1      13.375  13.248  -3.010  0.00  0.00    -0.212 NA
BRANCH  19  20
ATOM     20  C   UNL d   1      13.879  12.660  -2.721  0.00  0.00     0.143 C 
BRANCH  20  21
ATOM     21  C   UNL d   1      13.642  12.179  -2.090  0.00  0.00     0.215 C 
ATOM     22  O   UNL d   1      12.919  11.792  -2.111  0.00  0.00    -0.285 OA
BRANCH  21  23
ATOM     23  C   UNL d   1      14.139  12.089  -1.437  0.00  0.00     0.041 A 
ATOM     24  C   UNL d   1      14.933  11.911  -1.540  0.00  0.00     0.003 A 
ATOM     25  C   UNL d   1      15.431  11.821  -0.888  0.00  0.00     0.000 A 
ATOM     26  C   UNL d   1      15.124  11.911  -0.125  0.00  0.00     0.000 A 
ATOM     27  C   UNL d   1      14.330  12.089  -0.022  0.00  0.00     0.000 A 
ATOM     28  C   UNL d   1      13.833  12.179  -0.674  0.00  0.00     0.003 A 
ENDBRANCH  21  23
ENDBRANCH  20  21
ENDBRANCH  19  20
ENDBRANCH  17  19
ENDBRANCH   2  17
TORSDOF 7
ENDMDL
