MODEL 1
REMARK VINA RESULT:      34.0      0.000      0.000
REMARK  9 active torsions:
REMARK  status: ('A' for Active; 'I' for Inactive)
REMARK    1  A    between atoms: N_3  and  C_1 
REMARK       I    between atoms: C_5  and  N_3 
REMARK    2  A    between atoms: C_9  and  N_3 
REMARK    3  A    between atoms: C_8  and  C_5 
REMARK    4  A    between atoms: C_16  and  C_9 
REMARK    5  A    between atoms: O_18  and  C_12 
REMARK    6  A    between atoms: N_17  and  C_16 
REMARK    7  A    between atoms: C_22  and  N_17 
REMARK    8  A    between atoms: C_23  and  N_17 
REMARK    9  A    between atoms: C_24  and  O_18 
ROOT
ATOM      1  N   UNL d   1      46.116 -17.689  43.701  0.00  0.00    -0.250 N 
ATOM      2  C   UNL d   1      45.899 -18.282  44.226  0.00  0.00     0.289 C 
ATOM      3  O   UNL d   1      45.596 -18.097  44.955  0.00  0.00    -0.264 OA
ENDROOT
BRANCH   1   4
ATOM      4  C   UNL d   1      46.022 -16.896  43.925  0.00  0.00     0.182 A 
ATOM      5  N   UNL d   1      45.285 -16.486  43.974  0.00  0.00    -0.220 NA
ATOM      6  C   UNL d   1      45.448 -15.687  44.226  0.00  0.00     0.112 A 
ATOM      7  C   UNL d   1      44.951 -15.035  44.370  0.00  0.00     0.118 A 
ATOM      8  C   UNL d   1      46.278 -15.617  44.329  0.00  0.00     0.052 A 
ATOM      9  C   UNL d   1      45.273 -14.306  44.617  0.00  0.00     0.026 A 
ATOM     10  C   UNL d   1      46.104 -14.230  44.721  0.00  0.00     0.003 A 
ATOM     11  C   UNL d   1      46.598 -14.899  44.572  0.00  0.00     0.008 A 
ATOM     12  S   UNL d   1      46.642 -16.361  44.145  0.00  0.00    -0.048 SA
BRANCH   7  13
ATOM     13  O   UNL d   1      44.116 -15.110  44.266  0.00  0.00    -0.304 OA
BRANCH  13  14
ATOM     14  C   UNL d   1      43.604 -14.487  44.511  0.00  0.00     0.123 C 
ATOM     15  C   UNL d   1      43.197 -14.521  44.928  0.00  0.00     0.029 C 
ENDBRANCH  13  14
ENDBRANCH   7  13
ENDBRANCH   1   4
BRANCH   1  16
ATOM     16  C   UNL d   1      46.422 -17.876  42.963  0.00  0.00     0.104 C 
BRANCH  16  17
ATOM     17  C   UNL d   1      46.155 -17.474  42.294  0.00  0.00     0.100 C 
BRANCH  17  18
ATOM     18  N   UNL d   1      46.066 -17.875  41.586  0.00  0.00    -0.301 N 
BRANCH  18  19
ATOM     19  C   UNL d   1      46.623 -18.442  41.364  0.00  0.00     0.080 C 
ATOM     20  C   UNL d   1      46.647 -18.707  40.588  0.00  0.00     0.021 C 
ENDBRANCH  18  19
BRANCH  18  21
ATOM     21  C   UNL d   1      45.427 -17.715  41.101  0.00  0.00     0.080 C 
ATOM     22  C   UNL d   1      45.153 -18.288  40.585  0.00  0.00     0.021 C 
ENDBRANCH  18  21
ENDBRANCH  17  18
ENDBRANCH  16  17
ENDBRANCH   1  16
BRANCH   2  23
ATOM     23  C   UNL d   1      45.993 -19.067  43.999  0.00  0.00     0.156 A 
ATOM     24  O   UNL d   1      45.570 -19.463  43.424  0.00  0.00    -0.300 OA
ATOM     25  C   UNL d   1      45.856 -20.239  43.387  0.00  0.00     0.123 A 
ATOM     26  C   UNL d   1      46.445 -20.311  43.935  0.00  0.00     0.029 A 
ATOM     27  C   UNL d   1      46.549 -19.599  44.326  0.00  0.00     0.032 A 
ENDBRANCH   2  23
TORSDOF 9
ENDMDL
