MODEL 1
REMARK VINA RESULT:      -8.3      0.000      0.000
REMARK  4 active torsions:
REMARK  status: ('A' for Active; 'I' for Inactive)
REMARK    1  A    between atoms: N_8  and  C_7 
REMARK    2  A    between atoms: C_9  and  N_8 
REMARK    3  A    between atoms: O_15  and  C_10 
REMARK    4  A    between atoms: C_16  and  O_15 
ROOT
ATOM      1  C   UNL d   1      53.250  32.593  53.171  0.00  0.00     0.082 A 
ATOM      2  C   UNL d   1      53.283  30.962  53.374  0.00  0.00     0.100 A 
ATOM      3  C   UNL d   1      52.578  32.146  53.010  0.00  0.00     0.021 A 
ATOM      4  C   UNL d   1      53.939  32.231  53.433  0.00  0.00     0.021 A 
ATOM      5  C   UNL d   1      52.593  31.327  53.112  0.00  0.00     0.026 A 
ATOM      6  C   UNL d   1      53.957  31.409  53.536  0.00  0.00     0.026 A 
ENDROOT
BRANCH   1   7
ATOM      7  N   UNL d   1      53.232  33.415  53.068  0.00  0.00    -0.245 NA
BRANCH   7   8
ATOM      8  C   UNL d   1      53.198  33.987  53.673  0.00  0.00     0.093 A 
ATOM      9  C   UNL d   1      53.367  34.129  54.473  0.00  0.00     0.118 A 
ATOM     10  S   UNL d   1      53.148  34.895  54.641  0.00  0.00     0.213 S 
ATOM     11  C   UNL d   1      52.842  35.238  53.955  0.00  0.00     0.100 A 
ATOM     12  O   UNL d   1      52.922  35.681  54.812  0.00  0.00    -0.217 OA
ATOM     13  O   UNL d   1      53.443  34.604  55.354  0.00  0.00    -0.217 OA
ATOM     14  C   UNL d   1      52.874  34.675  53.357  0.00  0.00     0.032 A 
ENDBRANCH   7   8
ENDBRANCH   1   7
BRANCH   2  15
ATOM     15  O   UNL d   1      53.301  30.140  53.477  0.00  0.00    -0.305 OA
BRANCH  15  16
ATOM     16  C   UNL d   1      53.273  29.823  54.237  0.00  0.00     0.123 C 
ATOM     17  C   UNL d   1      53.300  28.999  54.341  0.00  0.00     0.029 C 
ENDBRANCH  15  16
ENDBRANCH   2  15
TORSDOF 4
ENDMDL
MODEL 2
REMARK VINA RESULT:      -7.9      2.093      3.527
REMARK  4 active torsions:
REMARK  status: ('A' for Active; 'I' for Inactive)
REMARK    1  A    between atoms: N_8  and  C_7 
REMARK    2  A    between atoms: C_9  and  N_8 
REMARK    3  A    between atoms: O_15  and  C_10 
REMARK    4  A    between atoms: C_16  and  O_15 
ROOT
ATOM      1  C   UNL d   1      52.197  33.429  53.129  0.00  0.00     0.082 A 
ATOM      2  C   UNL d   1      50.747  34.121  52.779  0.00  0.00     0.100 A 
ATOM      3  C   UNL d   1      52.164  34.080  52.627  0.00  0.00     0.021 A 
ATOM      4  C   UNL d   1      51.510  33.122  53.458  0.00  0.00     0.021 A 
ATOM      5  C   UNL d   1      51.436  34.428  52.450  0.00  0.00     0.026 A 
ATOM      6  C   UNL d   1      50.779  33.469  53.283  0.00  0.00     0.026 A 
ENDROOT
BRANCH   1   7
ATOM      7  N   UNL d   1      52.928  33.082  53.305  0.00  0.00    -0.245 NA
BRANCH   7   8
ATOM      8  C   UNL d   1      53.441  33.299  53.925  0.00  0.00     0.093 A 
ATOM      9  C   UNL d   1      53.587  33.874  54.505  0.00  0.00     0.118 A 
ATOM     10  S   UNL d   1      54.254  33.649  54.914  0.00  0.00     0.213 S 
ATOM     11  C   UNL d   1      54.531  32.938  54.599  0.00  0.00     0.100 A 
ATOM     12  O   UNL d   1      54.939  33.417  55.333  0.00  0.00    -0.217 OA
ATOM     13  O   UNL d   1      54.024  34.357  55.268  0.00  0.00    -0.217 OA
ATOM     14  C   UNL d   1      54.026  32.722  53.986  0.00  0.00     0.032 A 
ENDBRANCH   7   8
ENDBRANCH   1   7
BRANCH   2  15
ATOM     15  O   UNL d   1      50.015  34.468  52.603  0.00  0.00    -0.305 OA
BRANCH  15  16
ATOM     16  C   UNL d   1      49.704  34.403  51.843  0.00  0.00     0.123 C 
ATOM     17  C   UNL d   1      48.960  34.731  51.673  0.00  0.00     0.029 C 
ENDBRANCH  15  16
ENDBRANCH   2  15
TORSDOF 4
ENDMDL
MODEL 3
REMARK VINA RESULT:      -7.7      1.552      4.182
REMARK  4 active torsions:
REMARK  status: ('A' for Active; 'I' for Inactive)
REMARK    1  A    between atoms: N_8  and  C_7 
REMARK    2  A    between atoms: C_9  and  N_8 
REMARK    3  A    between atoms: O_15  and  C_10 
REMARK    4  A    between atoms: C_16  and  O_15 
ROOT
ATOM      1  C   UNL d   1      54.035  32.380  53.949  0.00  0.00     0.082 A 
ATOM      2  C   UNL d   1      53.791  33.918  54.477  0.00  0.00     0.100 A 
ATOM      3  C   UNL d   1      53.875  32.979  53.407  0.00  0.00     0.021 A 
ATOM      4  C   UNL d   1      54.074  32.544  54.752  0.00  0.00     0.021 A 
ATOM      5  C   UNL d   1      53.753  33.752  53.671  0.00  0.00     0.026 A 
ATOM      6  C   UNL d   1      53.952  33.319  55.020  0.00  0.00     0.026 A 
ENDROOT
BRANCH   1   7
ATOM      7  N   UNL d   1      54.158  31.606  53.681  0.00  0.00    -0.245 NA
BRANCH   7   8
ATOM      8  C   UNL d   1      53.569  31.032  53.545  0.00  0.00     0.093 A 
ATOM      9  C   UNL d   1      52.777  30.922  53.325  0.00  0.00     0.118 A 
ATOM     10  S   UNL d   1      52.628  30.122  53.327  0.00  0.00     0.213 S 
ATOM     11  C   UNL d   1      53.317  29.725  53.546  0.00  0.00     0.100 A 
ATOM     12  O   UNL d   1      52.475  29.301  53.329  0.00  0.00    -0.217 OA
ATOM     13  O   UNL d   1      51.912  30.466  53.103  0.00  0.00    -0.217 OA
ATOM     14  C   UNL d   1      53.900  30.290  53.681  0.00  0.00     0.032 A 
ENDBRANCH   7   8
ENDBRANCH   1   7
BRANCH   2  15
ATOM     15  O   UNL d   1      53.669  34.693  54.745  0.00  0.00    -0.305 OA
BRANCH  15  16
ATOM     16  C   UNL d   1      53.053  35.141  54.431  0.00  0.00     0.123 C 
ATOM     17  C   UNL d   1      52.946  35.926  54.680  0.00  0.00     0.029 C 
ENDBRANCH  15  16
ENDBRANCH   2  15
TORSDOF 4
ENDMDL
MODEL 4
REMARK VINA RESULT:      -7.3      2.373      4.222
REMARK  4 active torsions:
REMARK  status: ('A' for Active; 'I' for Inactive)
REMARK    1  A    between atoms: N_8  and  C_7 
REMARK    2  A    between atoms: C_9  and  N_8 
REMARK    3  A    between atoms: O_15  and  C_10 
REMARK    4  A    between atoms: C_16  and  O_15 
ROOT
ATOM      1  C   UNL d   1      51.950  33.517  53.120  0.00  0.00     0.082 A 
ATOM      2  C   UNL d   1      50.585  34.239  52.554  0.00  0.00     0.100 A 
ATOM      3  C   UNL d   1      51.980  33.969  52.433  0.00  0.00     0.021 A 
ATOM      4  C   UNL d   1      51.243  33.423  53.527  0.00  0.00     0.021 A 
ATOM      5  C   UNL d   1      51.295  34.332  52.148  0.00  0.00     0.026 A 
ATOM      6  C   UNL d   1      50.554  33.786  53.243  0.00  0.00     0.026 A 
ENDROOT
BRANCH   1   7
ATOM      7  N   UNL d   1      52.639  33.155  53.404  0.00  0.00    -0.245 NA
BRANCH   7   8
ATOM      8  C   UNL d   1      52.854  32.356  53.302  0.00  0.00     0.093 A 
ATOM      9  C   UNL d   1      52.674  31.661  52.887  0.00  0.00     0.118 A 
ATOM     10  S   UNL d   1      53.192  31.083  53.135  0.00  0.00     0.213 S 
ATOM     11  C   UNL d   1      53.697  31.407  53.702  0.00  0.00     0.100 A 
ATOM     12  O   UNL d   1      53.724  30.492  53.390  0.00  0.00    -0.217 OA
ATOM     13  O   UNL d   1      52.717  30.708  52.575  0.00  0.00    -0.217 OA
ATOM     14  C   UNL d   1      53.486  32.196  53.804  0.00  0.00     0.032 A 
ENDBRANCH   7   8
ENDBRANCH   1   7
BRANCH   2  15
ATOM     15  O   UNL d   1      49.896  34.601  52.270  0.00  0.00    -0.305 OA
BRANCH  15  16
ATOM     16  C   UNL d   1      49.550  34.331  51.573  0.00  0.00     0.123 C 
ATOM     17  C   UNL d   1      48.852  34.685  51.296  0.00  0.00     0.029 C 
ENDBRANCH  15  16
ENDBRANCH   2  15
TORSDOF 4
ENDMDL
