MODEL 1
REMARK VINA RESULT:      32.1      0.000      0.000
REMARK  3 active torsions:
REMARK  status: ('A' for Active; 'I' for Inactive)
REMARK    1  A    between atoms: C_12  and  C_5 
REMARK    2  A    between atoms: C_14  and  C_12 
REMARK    3  A    between atoms: C_15  and  C_14 
ROOT
ATOM      1  C   UNL d   1     -50.046  26.847  33.449  0.00  0.00     0.206 A 
ATOM      2  C   UNL d   1     -50.739  26.403  33.396  0.00  0.00     0.063 A 
ATOM      3  C   UNL d   1     -49.975  25.208  33.389  0.00  0.00     0.111 A 
ATOM      4  C   UNL d   1     -49.284  25.650  33.443  0.00  0.00     0.214 A 
ATOM      5  C   UNL d   1     -50.705  25.589  33.366  0.00  0.00     0.018 A 
ATOM      6  O   UNL d   1     -49.324  26.473  33.473  0.00  0.00    -0.268 OA
ATOM      7  N   UNL d   1     -50.233  27.620  33.470  0.00  0.00    -0.123 NA
ATOM      8  N   UNL d   1     -51.032  27.696  33.431  0.00  0.00    -0.146 NA
ATOM      9  C   UNL d   1     -51.360  26.946  33.385  0.00  0.00     0.106 A 
ATOM     10  C   UNL d   1     -49.935  24.385  33.360  0.00  0.00     0.105 C 
ATOM     11  N   UNL d   1     -49.897  23.573  33.330  0.00  0.00    -0.191 NA
ATOM     12  N   UNL d   1     -48.580  25.282  33.465  0.00  0.00    -0.120 N 
ATOM     13  C   UNL d   1     -52.270  26.861  33.334  0.00  0.00     0.023 C 
ENDROOT
BRANCH   5  14
ATOM     14  C   UNL d   1     -51.386  25.154  33.314  0.00  0.00     0.001 C 
BRANCH  14  15
ATOM     15  C   UNL d   1     -51.660  24.399  33.786  0.00  0.00     0.000 C 
BRANCH  15  16
ATOM     16  C   UNL d   1     -52.421  24.081  33.828  0.00  0.00     0.000 A 
ATOM     17  C   UNL d   1     -52.606  23.499  34.402  0.00  0.00     0.000 A 
ATOM     18  C   UNL d   1     -53.359  23.192  34.434  0.00  0.00     0.000 A 
ATOM     19  C   UNL d   1     -53.946  23.454  33.899  0.00  0.00     0.000 A 
ATOM     20  C   UNL d   1     -53.763  24.028  33.334  0.00  0.00     0.000 A 
ATOM     21  C   UNL d   1     -52.996  24.336  33.306  0.00  0.00     0.000 A 
ENDBRANCH  15  16
ENDBRANCH  14  15
ENDBRANCH   5  14
TORSDOF 3
ENDMDL
MODEL 2
REMARK VINA RESULT:      34.1      0.667      2.167
REMARK  3 active torsions:
REMARK  status: ('A' for Active; 'I' for Inactive)
REMARK    1  A    between atoms: C_12  and  C_5 
REMARK    2  A    between atoms: C_14  and  C_12 
REMARK    3  A    between atoms: C_15  and  C_14 
ROOT
ATOM      1  C   UNL d   1     -49.744  25.870  33.554  0.00  0.00     0.206 A 
ATOM      2  C   UNL d   1     -50.302  25.270  33.454  0.00  0.00     0.063 A 
ATOM      3  C   UNL d   1     -51.340  26.237  33.453  0.00  0.00     0.111 A 
ATOM      4  C   UNL d   1     -50.785  26.833  33.552  0.00  0.00     0.214 A 
ATOM      5  C   UNL d   1     -51.095  25.451  33.404  0.00  0.00     0.018 A 
ATOM      6  O   UNL d   1     -49.984  26.645  33.602  0.00  0.00    -0.268 OA
ATOM      7  N   UNL d   1     -49.017  25.546  33.586  0.00  0.00    -0.123 NA
ATOM      8  N   UNL d   1     -49.084  24.748  33.510  0.00  0.00    -0.146 NA
ATOM      9  C   UNL d   1     -49.878  24.563  33.427  0.00  0.00     0.106 A 
ATOM     10  C   UNL d   1     -52.142  26.425  33.403  0.00  0.00     0.105 C 
ATOM     11  N   UNL d   1     -52.932  26.609  33.353  0.00  0.00    -0.191 NA
ATOM     12  N   UNL d   1     -51.022  27.591  33.599  0.00  0.00    -0.120 N 
ATOM     13  C   UNL d   1     -50.122  23.686  33.329  0.00  0.00     0.023 C 
ENDROOT
BRANCH   5  14
ATOM     14  C   UNL d   1     -51.643  24.862  33.306  0.00  0.00     0.001 C 
BRANCH  14  15
ATOM     15  C   UNL d   1     -51.941  24.209  33.899  0.00  0.00     0.000 C 
BRANCH  15  16
ATOM     16  C   UNL d   1     -52.707  23.908  33.971  0.00  0.00     0.000 A 
ATOM     17  C   UNL d   1     -53.267  24.023  33.358  0.00  0.00     0.000 A 
ATOM     18  C   UNL d   1     -54.018  23.722  33.439  0.00  0.00     0.000 A 
ATOM     19  C   UNL d   1     -54.233  23.301  34.129  0.00  0.00     0.000 A 
ATOM     20  C   UNL d   1     -53.682  23.188  34.733  0.00  0.00     0.000 A 
ATOM     21  C   UNL d   1     -52.919  23.496  34.645  0.00  0.00     0.000 A 
ENDBRANCH  15  16
ENDBRANCH  14  15
ENDBRANCH   5  14
TORSDOF 3
ENDMDL
