MODEL 1
REMARK VINA RESULT:      49.2      0.000      0.000
REMARK  4 active torsions:
REMARK  status: ('A' for Active; 'I' for Inactive)
REMARK    1  A    between atoms: C_4  and  C_1 
REMARK    2  A    between atoms: C_13  and  N_3 
REMARK    3  A    between atoms: C_11  and  N_5 
REMARK    4  A    between atoms: C_14  and  C_11 
ROOT
ATOM      1  C   UNL d   1     -50.809  25.312  33.366  0.00  0.00     0.057 A 
ATOM      2  N   UNL d   1     -51.553  24.195  33.334  0.00  0.00    -0.272 N 
ATOM      3  C   UNL d   1     -50.753  23.973  33.341  0.00  0.00     0.265 A 
ATOM      4  C   UNL d   1     -51.582  25.015  33.349  0.00  0.00     0.086 A 
ATOM      5  C   UNL d   1     -50.298  24.658  33.361  0.00  0.00     0.066 A 
ATOM      6  O   UNL d   1     -50.474  23.195  33.330  0.00  0.00    -0.267 OA
ENDROOT
BRANCH   1   7
ATOM      7  C   UNL d   1     -50.638  26.111  33.384  0.00  0.00     0.149 A 
ATOM      8  N   UNL d   1     -49.934  26.478  33.422  0.00  0.00    -0.227 NA
ATOM      9  C   UNL d   1     -50.059  27.296  33.426  0.00  0.00     0.099 A 
ATOM     10  C   UNL d   1     -49.539  27.924  33.459  0.00  0.00     0.021 A 
ATOM     11  C   UNL d   1     -50.864  27.419  33.388  0.00  0.00     0.083 A 
ATOM     12  C   UNL d   1     -49.847  28.695  33.453  0.00  0.00     0.002 A 
ATOM     13  C   UNL d   1     -50.652  28.818  33.415  0.00  0.00     0.002 A 
ATOM     14  C   UNL d   1     -51.174  28.174  33.381  0.00  0.00     0.019 A 
ATOM     15  N   UNL d   1     -51.226  26.675  33.361  0.00  0.00    -0.289 N 
BRANCH  15  16
ATOM     16  C   UNL d   1     -52.047  26.525  33.319  0.00  0.00     0.082 C 
ATOM     17  C   UNL d   1     -52.489  26.404  34.024  0.00  0.00     0.021 C 
ENDBRANCH  15  16
ENDBRANCH   1   7
BRANCH   2  18
ATOM     18  C   UNL d   1     -52.210  23.677  33.314  0.00  0.00     0.083 C 
BRANCH  18  19
ATOM     19  C   UNL d   1     -52.746  23.675  33.950  0.00  0.00     0.018 A 
ATOM     20  C   UNL d   1     -52.600  24.168  34.601  0.00  0.00     0.002 A 
ATOM     21  C   UNL d   1     -53.133  24.164  35.230  0.00  0.00     0.000 A 
ATOM     22  C   UNL d   1     -53.797  23.683  35.218  0.00  0.00     0.000 A 
ATOM     23  C   UNL d   1     -53.938  23.194  34.569  0.00  0.00     0.000 A 
ATOM     24  C   UNL d   1     -53.407  23.192  33.931  0.00  0.00     0.002 A 
ENDBRANCH  18  19
ENDBRANCH   2  18
TORSDOF 4
ENDMDL
