MODEL 1
REMARK VINA RESULT:      -5.2      0.000      0.000
REMARK  7 active torsions:
REMARK  status: ('A' for Active; 'I' for Inactive)
REMARK    1  A    between atoms: C_11  and  C_3 
REMARK    2  A    between atoms: N_12  and  C_7 
REMARK       I    between atoms: C_9  and  N_15 
REMARK    3  A    between atoms: C_14  and  C_9 
REMARK    4  A    between atoms: C_16  and  C_11 
REMARK    5  A    between atoms: C_17  and  N_12 
REMARK    6  A    between atoms: N_15  and  C_16 
REMARK    7  A    between atoms: C_19  and  C_17 
ROOT
ATOM      1  N   UNL d   1      57.962  -0.395  30.157  0.00  0.00    -0.190 N 
ATOM      2  C   UNL d   1      57.820   0.208  29.608  0.00  0.00     0.187 A 
ATOM      3  C   UNL d   1      57.439  -0.294  30.801  0.00  0.00     0.188 A 
ATOM      4  N   UNL d   1      58.554  -0.960  29.996  0.00  0.00    -0.143 NA
ATOM      5  N   UNL d   1      57.206   0.682  29.917  0.00  0.00    -0.127 NA
ATOM      6  N   UNL d   1      56.984   0.364  30.644  0.00  0.00    -0.127 NA
ATOM      7  C   UNL d   1      58.991  -0.917  29.297  0.00  0.00     0.182 A 
ATOM      8  C   UNL d   1      58.257   0.251  28.910  0.00  0.00     0.044 A 
ATOM      9  C   UNL d   1      58.841  -0.308  28.754  0.00  0.00     0.044 A 
ENDROOT
BRANCH   3  10
ATOM     10  C   UNL d   1      57.390  -0.772  31.474  0.00  0.00     0.061 C 
BRANCH  10  11
ATOM     11  C   UNL d   1      56.702  -0.779  31.924  0.00  0.00     0.105 C 
BRANCH  11  12
ATOM     12  N   UNL d   1      56.450  -1.488  32.266  0.00  0.00    -0.206 NA
ATOM     13  C   UNL d   1      56.049  -1.471  32.992  0.00  0.00     0.279 C 
ATOM     14  O   UNL d   1      55.798  -2.184  33.332  0.00  0.00    -0.265 OA
BRANCH  13  15
ATOM     15  C   UNL d   1      55.907  -0.753  33.364  0.00  0.00     0.058 A 
ATOM     16  C   UNL d   1      56.512  -0.364  33.781  0.00  0.00     0.005 A 
ATOM     17  C   UNL d   1      56.358   0.349  34.146  0.00  0.00     0.000 A 
ATOM     18  C   UNL d   1      55.611   0.680  34.102  0.00  0.00     0.000 A 
ATOM     19  C   UNL d   1      55.010   0.310  33.698  0.00  0.00     0.000 A 
ATOM     20  C   UNL d   1      55.152  -0.414  33.323  0.00  0.00     0.005 A 
ENDBRANCH  13  15
ENDBRANCH  11  12
ENDBRANCH  10  11
ENDBRANCH   3  10
BRANCH   7  21
ATOM     21  N   UNL d   1      59.581  -1.476  29.130  0.00  0.00    -0.224 NA
BRANCH  21  22
ATOM     22  C   UNL d   1      59.415  -2.077  28.587  0.00  0.00     0.101 C 
BRANCH  22  23
ATOM     23  C   UNL d   1      59.838  -2.785  28.602  0.00  0.00     0.019 A 
ATOM     24  C   UNL d   1      59.445  -3.507  28.471  0.00  0.00     0.002 A 
ATOM     25  C   UNL d   1      59.878  -4.209  28.488  0.00  0.00     0.011 A 
ATOM     26  C   UNL d   1      60.689  -4.203  28.633  0.00  0.00     0.058 A 
ATOM     27  C   UNL d   1      61.081  -3.481  28.764  0.00  0.00     0.011 A 
ATOM     28 CL   UNL d   1      61.122  -4.905  28.650  0.00  0.00    -0.082 Cl
ATOM     29  C   UNL d   1      60.652  -2.776  28.747  0.00  0.00     0.002 A 
ENDBRANCH  22  23
ENDBRANCH  21  22
ENDBRANCH   7  21
TORSDOF 7
ENDMDL
