MODEL 1
REMARK VINA RESULT:      50.6      0.000      0.000
REMARK  5 active torsions:
REMARK  status: ('A' for Active; 'I' for Inactive)
REMARK    1  A    between atoms: C_9  and  N_1 
REMARK    2  A    between atoms: C_6  and  C_2 
REMARK    3  A    between atoms: O_10  and  C_6 
REMARK    4  A    between atoms: C_13  and  C_9 
REMARK    5  A    between atoms: C_19  and  O_10 
ROOT
ATOM      1  N   UNL d   1      45.287 -15.331  44.686  0.00  0.00    -0.271 N 
ATOM      2  C   UNL d   1      45.351 -14.030  44.420  0.00  0.00     0.120 A 
ATOM      3  C   UNL d   1      45.805 -14.712  44.516  0.00  0.00     0.177 A 
ATOM      4  C   UNL d   1      44.519 -15.032  44.695  0.00  0.00     0.167 A 
ATOM      5  C   UNL d   1      44.558 -14.232  44.531  0.00  0.00     0.124 A 
ATOM      6  N   UNL d   1      43.791 -15.394  44.832  0.00  0.00    -0.225 NA
ATOM      7  N   UNL d   1      43.869 -13.782  44.503  0.00  0.00    -0.241 NA
ATOM      8  C   UNL d   1      43.102 -14.952  44.805  0.00  0.00     0.101 A 
ATOM      9  C   UNL d   1      43.145 -14.145  44.640  0.00  0.00     0.099 A 
ATOM     10  N   UNL d   1      46.629 -14.769  44.454  0.00  0.00    -0.128 N 
ATOM     11  C   UNL d   1      42.381 -15.317  44.943  0.00  0.00     0.021 A 
ATOM     12  C   UNL d   1      42.443 -13.702  44.614  0.00  0.00     0.021 A 
ATOM     13  C   UNL d   1      41.683 -14.867  44.915  0.00  0.00     0.002 A 
ATOM     14  C   UNL d   1      41.726 -14.069  44.752  0.00  0.00     0.002 A 
ENDROOT
BRANCH   2  15
ATOM     15  C   UNL d   1      45.645 -13.272  44.243  0.00  0.00     0.300 C 
ATOM     16  O   UNL d   1      46.425 -13.093  44.386  0.00  0.00    -0.259 OA
BRANCH  15  17
ATOM     17  O   UNL d   1      45.135 -12.700  43.918  0.00  0.00    -0.303 OA
BRANCH  17  18
ATOM     18  C   UNL d   1      45.212 -12.497  43.123  0.00  0.00     0.102 C 
ATOM     19  C   UNL d   1      46.033 -12.401  43.222  0.00  0.00     0.030 C 
ATOM     20  C   UNL d   1      44.396 -12.591  43.017  0.00  0.00     0.030 C 
ATOM     21  C   UNL d   1      45.285 -12.293  42.320  0.00  0.00     0.030 C 
ENDBRANCH  17  18
ENDBRANCH  15  17
ENDBRANCH   2  15
BRANCH   1  22
ATOM     22  C   UNL d   1      45.503 -16.114  44.823  0.00  0.00     0.108 C 
BRANCH  22  23
ATOM     23  C   UNL d   1      45.843 -16.562  44.214  0.00  0.00     0.118 A 
ATOM     24  O   UNL d   1      45.568 -16.606  43.437  0.00  0.00    -0.304 OA
ATOM     25  C   UNL d   1      46.074 -17.116  43.021  0.00  0.00     0.123 A 
ATOM     26  C   UNL d   1      46.647 -17.376  43.546  0.00  0.00     0.029 A 
ATOM     27  C   UNL d   1      46.509 -17.038  44.279  0.00  0.00     0.028 A 
ENDBRANCH  22  23
ENDBRANCH   1  22
TORSDOF 5
ENDMDL
MODEL 2
REMARK VINA RESULT:      50.9      6.065      7.451
REMARK  5 active torsions:
REMARK  status: ('A' for Active; 'I' for Inactive)
REMARK    1  A    between atoms: C_9  and  N_1 
REMARK    2  A    between atoms: C_6  and  C_2 
REMARK    3  A    between atoms: O_10  and  C_6 
REMARK    4  A    between atoms: C_13  and  C_9 
REMARK    5  A    between atoms: C_19  and  O_10 
ROOT
ATOM      1  N   UNL d   1      45.250 -15.542  36.922  0.00  0.00    -0.271 N 
ATOM      2  C   UNL d   1      44.921 -16.503  37.778  0.00  0.00     0.120 A 
ATOM      3  C   UNL d   1      45.559 -16.114  37.430  0.00  0.00     0.177 A 
ATOM      4  C   UNL d   1      44.428 -15.579  36.958  0.00  0.00     0.167 A 
ATOM      5  C   UNL d   1      44.225 -16.170  37.484  0.00  0.00     0.124 A 
ATOM      6  N   UNL d   1      43.842 -15.145  36.573  0.00  0.00    -0.225 NA
ATOM      7  N   UNL d   1      43.432 -16.336  37.634  0.00  0.00    -0.241 NA
ATOM      8  C   UNL d   1      43.052 -15.305  36.717  0.00  0.00     0.101 A 
ATOM      9  C   UNL d   1      42.850 -15.902  37.249  0.00  0.00     0.099 A 
ATOM     10  N   UNL d   1      46.362 -16.265  37.562  0.00  0.00    -0.128 N 
ATOM     11  C   UNL d   1      42.473 -14.870  36.332  0.00  0.00     0.021 A 
ATOM     12  C   UNL d   1      42.047 -16.060  37.392  0.00  0.00     0.021 A 
ATOM     13  C   UNL d   1      41.672 -15.034  36.481  0.00  0.00     0.002 A 
ATOM     14  C   UNL d   1      41.473 -15.624  37.006  0.00  0.00     0.002 A 
ENDROOT
BRANCH   2  15
ATOM     15  C   UNL d   1      44.974 -17.124  38.330  0.00  0.00     0.300 C 
ATOM     16  O   UNL d   1      44.621 -17.840  38.174  0.00  0.00    -0.259 OA
BRANCH  15  17
ATOM     17  O   UNL d   1      45.389 -17.006  39.042  0.00  0.00    -0.303 OA
BRANCH  17  18
ATOM     18  C   UNL d   1      45.291 -17.543  39.658  0.00  0.00     0.102 C 
ATOM     19  C   UNL d   1      44.465 -17.458  39.607  0.00  0.00     0.030 C 
ATOM     20  C   UNL d   1      46.112 -17.633  39.715  0.00  0.00     0.030 C 
ATOM     21  C   UNL d   1      45.197 -18.087  40.282  0.00  0.00     0.030 C 
ENDBRANCH  17  18
ENDBRANCH  15  17
ENDBRANCH   2  15
BRANCH   1  22
ATOM     22  C   UNL d   1      45.691 -15.023  36.459  0.00  0.00     0.108 C 
BRANCH  22  23
ATOM     23  C   UNL d   1      46.002 -14.331  36.794  0.00  0.00     0.118 A 
ATOM     24  O   UNL d   1      45.905 -14.089  37.577  0.00  0.00    -0.304 OA
ATOM     25  C   UNL d   1      46.308 -13.369  37.669  0.00  0.00     0.123 A 
ATOM     26  C   UNL d   1      46.644 -13.183  36.945  0.00  0.00     0.029 A 
ATOM     27  C   UNL d   1      46.459 -13.770  36.406  0.00  0.00     0.028 A 
ENDBRANCH  22  23
ENDBRANCH   1  22
TORSDOF 5
ENDMDL
MODEL 3
REMARK VINA RESULT:      51.9      0.846      3.381
REMARK  5 active torsions:
REMARK  status: ('A' for Active; 'I' for Inactive)
REMARK    1  A    between atoms: C_9  and  N_1 
REMARK    2  A    between atoms: C_6  and  C_2 
REMARK    3  A    between atoms: O_10  and  C_6 
REMARK    4  A    between atoms: C_13  and  C_9 
REMARK    5  A    between atoms: C_19  and  O_10 
ROOT
ATOM      1  N   UNL d   1      45.601 -14.775  44.705  0.00  0.00    -0.271 N 
ATOM      2  C   UNL d   1      45.188 -16.030  44.564  0.00  0.00     0.120 A 
ATOM      3  C   UNL d   1      45.859 -15.551  44.599  0.00  0.00     0.177 A 
ATOM      4  C   UNL d   1      44.778 -14.776  44.735  0.00  0.00     0.167 A 
ATOM      5  C   UNL d   1      44.523 -15.547  44.649  0.00  0.00     0.124 A 
ATOM      6  N   UNL d   1      44.231 -14.166  44.830  0.00  0.00    -0.225 NA
ATOM      7  N   UNL d   1      43.718 -15.721  44.657  0.00  0.00    -0.241 NA
ATOM      8  C   UNL d   1      43.430 -14.331  44.839  0.00  0.00     0.101 A 
ATOM      9  C   UNL d   1      43.176 -15.111  44.752  0.00  0.00     0.099 A 
ATOM     10  N   UNL d   1      46.646 -15.800  44.540  0.00  0.00    -0.128 N 
ATOM     11  C   UNL d   1      42.891 -13.720  44.935  0.00  0.00     0.021 A 
ATOM     12  C   UNL d   1      42.361 -15.273  44.762  0.00  0.00     0.021 A 
ATOM     13  C   UNL d   1      42.078 -13.891  44.943  0.00  0.00     0.002 A 
ATOM     14  C   UNL d   1      41.827 -14.662  44.857  0.00  0.00     0.002 A 
ENDROOT
BRANCH   2  15
ATOM     15  C   UNL d   1      45.186 -16.856  44.462  0.00  0.00     0.300 C 
ATOM     16  O   UNL d   1      44.742 -17.327  44.955  0.00  0.00    -0.259 OA
BRANCH  15  17
ATOM     17  O   UNL d   1      45.641 -17.195  43.853  0.00  0.00    -0.303 OA
BRANCH  17  18
ATOM     18  C   UNL d   1      45.650 -18.015  43.767  0.00  0.00     0.102 C 
ATOM     19  C   UNL d   1      46.008 -17.936  43.019  0.00  0.00     0.030 C 
ATOM     20  C   UNL d   1      45.294 -18.101  44.509  0.00  0.00     0.030 C 
ATOM     21  C   UNL d   1      45.657 -18.843  43.683  0.00  0.00     0.030 C 
ENDBRANCH  17  18
ENDBRANCH  15  17
ENDBRANCH   2  15
BRANCH   1  22
ATOM     22  C   UNL d   1      46.087 -14.113  44.769  0.00  0.00     0.108 C 
BRANCH  22  23
ATOM     23  C   UNL d   1      45.923 -13.435  44.320  0.00  0.00     0.118 A 
ATOM     24  O   UNL d   1      45.596 -13.426  43.562  0.00  0.00    -0.304 OA
ATOM     25  C   UNL d   1      45.530 -12.632  43.327  0.00  0.00     0.123 A 
ATOM     26  C   UNL d   1      45.816 -12.170  43.940  0.00  0.00     0.029 A 
ATOM     27  C   UNL d   1      46.058 -12.659  44.551  0.00  0.00     0.028 A 
ENDBRANCH  22  23
ENDBRANCH   1  22
TORSDOF 5
ENDMDL
MODEL 4
REMARK VINA RESULT:      52.5      6.052      6.838
REMARK  5 active torsions:
REMARK  status: ('A' for Active; 'I' for Inactive)
REMARK    1  A    between atoms: C_9  and  N_1 
REMARK    2  A    between atoms: C_6  and  C_2 
REMARK    3  A    between atoms: O_10  and  C_6 
REMARK    4  A    between atoms: C_13  and  C_9 
REMARK    5  A    between atoms: C_19  and  O_10 
ROOT
ATOM      1  N   UNL d   1      44.563 -16.821  37.974  0.00  0.00    -0.271 N 
ATOM      2  C   UNL d   1      45.115 -15.780  37.359  0.00  0.00     0.120 A 
ATOM      3  C   UNL d   1      45.280 -16.443  37.822  0.00  0.00     0.177 A 
ATOM      4  C   UNL d   1      43.961 -16.394  37.607  0.00  0.00     0.167 A 
ATOM      5  C   UNL d   1      44.300 -15.755  37.228  0.00  0.00     0.124 A 
ATOM      6  N   UNL d   1      43.146 -16.514  37.573  0.00  0.00    -0.225 NA
ATOM      7  N   UNL d   1      43.828 -15.225  36.810  0.00  0.00    -0.241 NA
ATOM      8  C   UNL d   1      42.672 -15.991  37.159  0.00  0.00     0.101 A 
ATOM      9  C   UNL d   1      43.017 -15.346  36.778  0.00  0.00     0.099 A 
ATOM     10  N   UNL d   1      46.026 -16.686  38.088  0.00  0.00    -0.128 N 
ATOM     11  C   UNL d   1      41.861 -16.115  37.129  0.00  0.00     0.021 A 
ATOM     12  C   UNL d   1      42.531 -14.818  36.360  0.00  0.00     0.021 A 
ATOM     13  C   UNL d   1      41.382 -15.582  36.708  0.00  0.00     0.002 A 
ATOM     14  C   UNL d   1      41.724 -14.945  36.332  0.00  0.00     0.002 A 
ENDROOT
BRANCH   2  15
ATOM     15  C   UNL d   1      45.676 -15.235  37.074  0.00  0.00     0.300 C 
ATOM     16  O   UNL d   1      45.993 -15.327  36.331  0.00  0.00    -0.259 OA
BRANCH  15  17
ATOM     17  O   UNL d   1      45.908 -14.597  37.555  0.00  0.00    -0.303 OA
BRANCH  17  18
ATOM     18  C   UNL d   1      46.213 -13.918  37.202  0.00  0.00     0.102 C 
ATOM     19  C   UNL d   1      46.647 -14.385  36.666  0.00  0.00     0.030 C 
ATOM     20  C   UNL d   1      45.785 -13.446  37.731  0.00  0.00     0.030 C 
ATOM     21  C   UNL d   1      46.519 -13.229  36.848  0.00  0.00     0.030 C 
ENDBRANCH  17  18
ENDBRANCH  15  17
ENDBRANCH   2  15
BRANCH   1  22
ATOM     22  C   UNL d   1      44.467 -17.508  38.418  0.00  0.00     0.108 C 
BRANCH  22  23
ATOM     23  C   UNL d   1      44.843 -17.581  39.154  0.00  0.00     0.118 A 
ATOM     24  O   UNL d   1      44.572 -17.265  39.866  0.00  0.00    -0.304 OA
ATOM     25  C   UNL d   1      45.118 -17.473  40.456  0.00  0.00     0.123 A 
ATOM     26  C   UNL d   1      45.711 -17.910  40.099  0.00  0.00     0.029 A 
ATOM     27  C   UNL d   1      45.546 -17.979  39.300  0.00  0.00     0.028 A 
ENDBRANCH  22  23
ENDBRANCH   1  22
TORSDOF 5
ENDMDL
MODEL 5
REMARK VINA RESULT:      52.9      6.057      7.790
REMARK  5 active torsions:
REMARK  status: ('A' for Active; 'I' for Inactive)
REMARK    1  A    between atoms: C_9  and  N_1 
REMARK    2  A    between atoms: C_6  and  C_2 
REMARK    3  A    between atoms: O_10  and  C_6 
REMARK    4  A    between atoms: C_13  and  C_9 
REMARK    5  A    between atoms: C_19  and  O_10 
ROOT
ATOM      1  N   UNL d   1      43.972 -16.248  36.966  0.00  0.00    -0.271 N 
ATOM      2  C   UNL d   1      44.603 -16.485  38.111  0.00  0.00     0.120 A 
ATOM      3  C   UNL d   1      43.997 -16.751  37.619  0.00  0.00     0.177 A 
ATOM      4  C   UNL d   1      44.559 -15.677  37.055  0.00  0.00     0.167 A 
ATOM      5  C   UNL d   1      44.948 -15.822  37.759  0.00  0.00     0.124 A 
ATOM      6  N   UNL d   1      44.785 -15.043  36.578  0.00  0.00    -0.225 NA
ATOM      7  N   UNL d   1      45.568 -15.335  37.997  0.00  0.00    -0.241 NA
ATOM      8  C   UNL d   1      45.400 -14.555  36.808  0.00  0.00     0.101 A 
ATOM      9  C   UNL d   1      45.790 -14.704  37.520  0.00  0.00     0.099 A 
ATOM     10  N   UNL d   1      43.502 -17.401  37.753  0.00  0.00    -0.128 N 
ATOM     11  C   UNL d   1      45.620 -13.926  36.330  0.00  0.00     0.021 A 
ATOM     12  C   UNL d   1      46.414 -14.206  37.749  0.00  0.00     0.021 A 
ATOM     13  C   UNL d   1      46.246 -13.433  36.567  0.00  0.00     0.002 A 
ATOM     14  C   UNL d   1      46.631 -13.580  37.270  0.00  0.00     0.002 A 
ENDROOT
BRANCH   2  15
ATOM     15  C   UNL d   1      44.826 -16.828  38.836  0.00  0.00     0.300 C 
ATOM     16  O   UNL d   1      44.328 -16.785  39.478  0.00  0.00    -0.259 OA
BRANCH  15  17
ATOM     17  O   UNL d   1      45.561 -17.213  38.899  0.00  0.00    -0.303 OA
BRANCH  17  18
ATOM     18  C   UNL d   1      45.700 -17.712  39.539  0.00  0.00     0.102 C 
ATOM     19  C   UNL d   1      44.881 -17.779  39.671  0.00  0.00     0.030 C 
ATOM     20  C   UNL d   1      46.516 -17.651  39.414  0.00  0.00     0.030 C 
ATOM     21  C   UNL d   1      45.845 -18.216  40.186  0.00  0.00     0.030 C 
ENDBRANCH  17  18
ENDBRANCH  15  17
ENDBRANCH   2  15
BRANCH   1  22
ATOM     22  C   UNL d   1      43.449 -16.309  36.333  0.00  0.00     0.108 C 
BRANCH  22  23
ATOM     23  C   UNL d   1      42.740 -15.879  36.340  0.00  0.00     0.118 A 
ATOM     24  O   UNL d   1      41.980 -16.201  36.353  0.00  0.00    -0.304 OA
ATOM     25  C   UNL d   1      41.440 -15.571  36.355  0.00  0.00     0.123 A 
ATOM     26  C   UNL d   1      41.875 -14.876  36.344  0.00  0.00     0.029 A 
ATOM     27  C   UNL d   1      42.672 -15.061  36.334  0.00  0.00     0.028 A 
ENDBRANCH  22  23
ENDBRANCH   1  22
TORSDOF 5
ENDMDL
