MODEL 1
REMARK VINA RESULT:      35.0      0.000      0.000
REMARK  5 active torsions:
REMARK  status: ('A' for Active; 'I' for Inactive)
REMARK    1  A    between atoms: C_2  and  C_1 
REMARK    2  A    between atoms: C_6  and  C_2 
REMARK    3  A    between atoms: S_3  and  C_11 
REMARK    4  A    between atoms: N_7  and  S_3 
REMARK    5  A    between atoms: C_15  and  C_6 
ROOT
ATOM      1  C   UNL d   1      45.160 -14.146  44.221  0.00  0.00     0.141 C 
ATOM      2  C   UNL d   1      44.412 -14.222  44.587  0.00  0.00     0.107 C 
ATOM      3  N   UNL d   1      43.694 -14.305  44.953  0.00  0.00    -0.191 NA
ENDROOT
BRANCH   1   4
ATOM      4  C   UNL d   1      45.237 -13.663  43.557  0.00  0.00     0.161 A 
ATOM      5  N   UNL d   1      44.613 -13.360  43.101  0.00  0.00    -0.287 N 
ATOM      6  C   UNL d   1      44.929 -12.907  42.492  0.00  0.00     0.083 A 
ATOM      7  C   UNL d   1      43.787 -13.491  43.236  0.00  0.00     0.101 C 
ATOM      8  C   UNL d   1      44.576 -12.486  41.890  0.00  0.00     0.019 A 
ATOM      9  C   UNL d   1      45.774 -12.931  42.573  0.00  0.00     0.099 A 
ATOM     10  C   UNL d   1      45.061 -12.080  41.355  0.00  0.00     0.002 A 
ATOM     11  C   UNL d   1      45.907 -12.104  41.436  0.00  0.00     0.002 A 
ATOM     12  C   UNL d   1      46.248 -12.534  42.050  0.00  0.00     0.021 A 
ATOM     13  N   UNL d   1      45.942 -13.398  43.228  0.00  0.00    -0.226 NA
ENDBRANCH   1   4
BRANCH   1  14
ATOM     14  C   UNL d   1      45.810 -14.546  44.515  0.00  0.00     0.208 C 
ATOM     15  O   UNL d   1      46.367 -14.143  44.953  0.00  0.00    -0.286 OA
BRANCH  14  16
ATOM     16  C   UNL d   1      45.901 -15.358  44.369  0.00  0.00     0.040 A 
ATOM     17  C   UNL d   1      45.692 -15.665  43.620  0.00  0.00     0.004 A 
ATOM     18  C   UNL d   1      45.783 -16.472  43.474  0.00  0.00     0.013 A 
ATOM     19  C   UNL d   1      46.073 -16.963  44.060  0.00  0.00     0.104 A 
ATOM     20  C   UNL d   1      46.282 -16.657  44.809  0.00  0.00     0.013 A 
ATOM     21  C   UNL d   1      46.191 -15.850  44.954  0.00  0.00     0.004 A 
BRANCH  19  22
ATOM     22  S   UNL d   1      46.164 -17.776  43.913  0.00  0.00     0.271 S 
ATOM     23  O   UNL d   1      46.048 -17.639  43.081  0.00  0.00    -0.200 OA
ATOM     24  O   UNL d   1      46.278 -17.910  44.725  0.00  0.00    -0.200 OA
BRANCH  22  25
ATOM     25  N   UNL d   1      46.255 -18.583  43.768  0.00  0.00    -0.229 N 
ATOM     26  C   UNL d   1      46.408 -18.848  43.009  0.00  0.00     0.092 A 
ATOM     27  C   UNL d   1      46.499 -19.659  42.863  0.00  0.00     0.020 A 
ATOM     28  C   UNL d   1      46.436 -20.201  43.476  0.00  0.00     0.003 A 
ATOM     29  C   UNL d   1      46.283 -19.929  44.227  0.00  0.00     0.020 A 
ATOM     30  C   UNL d   1      46.192 -19.117  44.373  0.00  0.00     0.092 A 
ENDBRANCH  22  25
ENDBRANCH  19  22
ENDBRANCH  14  16
ENDBRANCH   1  14
TORSDOF 5
ENDMDL
