MODEL 1
REMARK VINA RESULT:      -3.0      0.000      0.000
REMARK  4 active torsions:
REMARK  status: ('A' for Active; 'I' for Inactive)
REMARK    1  A    between atoms: C_10  and  N_1 
REMARK       I    between atoms: C_3  and  N_9 
REMARK    2  A    between atoms: C_6  and  C_3 
REMARK    3  A    between atoms: N_9  and  C_11 
REMARK    4  A    between atoms: C_11  and  C_10 
ROOT
ATOM      1  N   UNL d   1      29.966  17.072 -24.499  0.00  0.00    -0.303 N 
ATOM      2  C   UNL d   1      29.486  17.707 -24.727  0.00  0.00     0.080 A 
ATOM      3  C   UNL d   1      29.504  16.562 -24.034  0.00  0.00     0.064 A 
ATOM      4  C   UNL d   1      28.737  17.590 -24.406  0.00  0.00     0.021 A 
ATOM      5  C   UNL d   1      28.744  16.885 -23.979  0.00  0.00     0.018 A 
ATOM      6  C   UNL d   1      29.688  15.853 -23.663  0.00  0.00     0.018 A 
ATOM      7  C   UNL d   1      28.170  16.487 -23.545  0.00  0.00     0.002 A 
ATOM      8  C   UNL d   1      29.113  15.455 -23.229  0.00  0.00     0.002 A 
ATOM      9  C   UNL d   1      28.341  15.768 -23.163  0.00  0.00     0.000 A 
ENDROOT
BRANCH   1  10
ATOM     10  C   UNL d   1      30.760  16.969 -24.700  0.00  0.00     0.101 C 
BRANCH  10  11
ATOM     11  C   UNL d   1      31.328  17.493 -24.414  0.00  0.00     0.121 C 
BRANCH  11  12
ATOM     12  N   UNL d   1      31.928  17.761 -24.913  0.00  0.00    -0.209 NA
ATOM     13  C   UNL d   1      32.640  18.031 -24.599  0.00  0.00     0.255 C 
ATOM     14  O   UNL d   1      33.241  18.298 -25.097  0.00  0.00    -0.270 OA
BRANCH  13  15
ATOM     15  C   UNL d   1      32.753  18.033 -23.776  0.00  0.00     0.073 C 
ATOM     16  C   UNL d   1      32.491  18.820 -23.743  0.00  0.00     0.009 C 
ATOM     17  C   UNL d   1      32.866  18.031 -22.962  0.00  0.00     0.009 C 
ATOM     18  C   UNL d   1      33.010  17.253 -23.819  0.00  0.00     0.009 C 
ENDBRANCH  13  15
ENDBRANCH  11  12
ENDBRANCH  10  11
ENDBRANCH   1  10
TORSDOF 4
ENDMDL
MODEL 2
REMARK VINA RESULT:      -2.9      1.459      4.054
REMARK  4 active torsions:
REMARK  status: ('A' for Active; 'I' for Inactive)
REMARK    1  A    between atoms: C_10  and  N_1 
REMARK       I    between atoms: C_3  and  N_9 
REMARK    2  A    between atoms: C_6  and  C_3 
REMARK    3  A    between atoms: N_9  and  C_11 
REMARK    4  A    between atoms: C_11  and  C_10 
ROOT
ATOM      1  N   UNL d   1      31.750  17.214 -24.239  0.00  0.00    -0.303 N 
ATOM      2  C   UNL d   1      31.998  16.931 -23.501  0.00  0.00     0.080 A 
ATOM      3  C   UNL d   1      32.185  17.902 -24.403  0.00  0.00     0.064 A 
ATOM      4  C   UNL d   1      32.579  17.438 -23.214  0.00  0.00     0.021 A 
ATOM      5  C   UNL d   1      32.697  18.038 -23.768  0.00  0.00     0.018 A 
ATOM      6  C   UNL d   1      32.171  18.409 -25.049  0.00  0.00     0.018 A 
ATOM      7  C   UNL d   1      33.196  18.692 -23.788  0.00  0.00     0.002 A 
ATOM      8  C   UNL d   1      32.671  19.062 -25.069  0.00  0.00     0.002 A 
ATOM      9  C   UNL d   1      33.193  19.214 -24.435  0.00  0.00     0.000 A 
ENDROOT
BRANCH   1  10
ATOM     10  C   UNL d   1      31.174  16.870 -24.720  0.00  0.00     0.101 C 
BRANCH  10  11
ATOM     11  C   UNL d   1      30.437  16.677 -24.405  0.00  0.00     0.121 C 
BRANCH  11  12
ATOM     12  N   UNL d   1      29.984  16.082 -24.753  0.00  0.00    -0.209 NA
ATOM     13  C   UNL d   1      29.171  16.050 -24.627  0.00  0.00     0.255 C 
ATOM     14  O   UNL d   1      28.718  15.455 -24.976  0.00  0.00    -0.270 OA
BRANCH  13  15
ATOM     15  C   UNL d   1      28.806  16.621 -24.147  0.00  0.00     0.073 C 
ATOM     16  C   UNL d   1      28.872  16.113 -23.494  0.00  0.00     0.009 C 
ATOM     17  C   UNL d   1      28.445  17.189 -23.675  0.00  0.00     0.009 C 
ATOM     18  C   UNL d   1      28.745  17.118 -24.800  0.00  0.00     0.009 C 
ENDBRANCH  13  15
ENDBRANCH  11  12
ENDBRANCH  10  11
ENDBRANCH   1  10
TORSDOF 4
ENDMDL
MODEL 3
REMARK VINA RESULT:      -2.5      1.994      4.468
REMARK  4 active torsions:
REMARK  status: ('A' for Active; 'I' for Inactive)
REMARK    1  A    between atoms: C_10  and  N_1 
REMARK       I    between atoms: C_3  and  N_9 
REMARK    2  A    between atoms: C_6  and  C_3 
REMARK    3  A    between atoms: N_9  and  C_11 
REMARK    4  A    between atoms: C_11  and  C_10 
ROOT
ATOM      1  N   UNL d   1      33.235  19.429 -22.958  0.00  0.00    -0.303 N 
ATOM      2  C   UNL d   1      33.240  19.931 -23.616  0.00  0.00     0.080 A 
ATOM      3  C   UNL d   1      33.223  19.906 -22.278  0.00  0.00     0.064 A 
ATOM      4  C   UNL d   1      33.232  20.709 -23.345  0.00  0.00     0.021 A 
ATOM      5  C   UNL d   1      33.221  20.697 -22.521  0.00  0.00     0.018 A 
ATOM      6  C   UNL d   1      33.214  19.710 -21.480  0.00  0.00     0.018 A 
ATOM      7  C   UNL d   1      33.210  21.291 -21.952  0.00  0.00     0.002 A 
ATOM      8  C   UNL d   1      33.203  20.305 -20.912  0.00  0.00     0.002 A 
ATOM      9  C   UNL d   1      33.201  21.108 -21.141  0.00  0.00     0.000 A 
ENDROOT
BRANCH   1  10
ATOM     10  C   UNL d   1      33.241  18.604 -22.979  0.00  0.00     0.101 C 
BRANCH  10  11
ATOM     11  C   UNL d   1      32.785  18.204 -23.538  0.00  0.00     0.121 C 
BRANCH  11  12
ATOM     12  N   UNL d   1      33.037  17.472 -23.825  0.00  0.00    -0.209 NA
ATOM     13  C   UNL d   1      32.501  16.959 -24.182  0.00  0.00     0.255 C 
ATOM     14  O   UNL d   1      32.752  16.228 -24.469  0.00  0.00    -0.270 OA
BRANCH  13  15
ATOM     15  C   UNL d   1      31.704  17.180 -24.252  0.00  0.00     0.073 C 
ATOM     16  C   UNL d   1      31.548  16.853 -23.505  0.00  0.00     0.009 C 
ATOM     17  C   UNL d   1      30.915  17.401 -24.325  0.00  0.00     0.009 C 
ATOM     18  C   UNL d   1      31.868  17.501 -24.992  0.00  0.00     0.009 C 
ENDBRANCH  13  15
ENDBRANCH  11  12
ENDBRANCH  10  11
ENDBRANCH   1  10
TORSDOF 4
ENDMDL
MODEL 4
REMARK VINA RESULT:      -2.4      1.706      4.196
REMARK  4 active torsions:
REMARK  status: ('A' for Active; 'I' for Inactive)
REMARK    1  A    between atoms: C_10  and  N_1 
REMARK       I    between atoms: C_3  and  N_9 
REMARK    2  A    between atoms: C_6  and  C_3 
REMARK    3  A    between atoms: N_9  and  C_11 
REMARK    4  A    between atoms: C_11  and  C_10 
ROOT
ATOM      1  N   UNL d   1      33.240  18.824 -23.603  0.00  0.00    -0.303 N 
ATOM      2  C   UNL d   1      33.240  19.285 -24.291  0.00  0.00     0.080 A 
ATOM      3  C   UNL d   1      33.240  19.342 -22.954  0.00  0.00     0.064 A 
ATOM      4  C   UNL d   1      33.241  20.078 -24.068  0.00  0.00     0.021 A 
ATOM      5  C   UNL d   1      33.240  20.116 -23.244  0.00  0.00     0.018 A 
ATOM      6  C   UNL d   1      33.239  19.196 -22.145  0.00  0.00     0.018 A 
ATOM      7  C   UNL d   1      33.241  20.745 -22.713  0.00  0.00     0.002 A 
ATOM      8  C   UNL d   1      33.239  19.824 -21.614  0.00  0.00     0.002 A 
ATOM      9  C   UNL d   1      33.240  20.612 -21.892  0.00  0.00     0.000 A 
ENDROOT
BRANCH   1  10
ATOM     10  C   UNL d   1      33.239  18.000 -23.573  0.00  0.00     0.101 C 
BRANCH  10  11
ATOM     11  C   UNL d   1      32.606  17.577 -23.890  0.00  0.00     0.121 C 
BRANCH  11  12
ATOM     12  N   UNL d   1      32.736  16.838 -24.233  0.00  0.00    -0.209 NA
ATOM     13  C   UNL d   1      32.110  16.314 -24.339  0.00  0.00     0.255 C 
ATOM     14  O   UNL d   1      32.239  15.575 -24.683  0.00  0.00    -0.270 OA
BRANCH  13  15
ATOM     15  C   UNL d   1      31.346  16.531 -24.099  0.00  0.00     0.073 C 
ATOM     16  C   UNL d   1      31.205  16.863 -24.846  0.00  0.00     0.009 C 
ATOM     17  C   UNL d   1      30.589  16.744 -23.856  0.00  0.00     0.009 C 
ATOM     18  C   UNL d   1      31.494  16.198 -23.361  0.00  0.00     0.009 C 
ENDBRANCH  13  15
ENDBRANCH  11  12
ENDBRANCH  10  11
ENDBRANCH   1  10
TORSDOF 4
ENDMDL
MODEL 5
REMARK VINA RESULT:      -2.3      3.574      5.130
REMARK  4 active torsions:
REMARK  status: ('A' for Active; 'I' for Inactive)
REMARK    1  A    between atoms: C_10  and  N_1 
REMARK       I    between atoms: C_3  and  N_9 
REMARK    2  A    between atoms: C_6  and  C_3 
REMARK    3  A    between atoms: N_9  and  C_11 
REMARK    4  A    between atoms: C_11  and  C_10 
ROOT
ATOM      1  N   UNL d   1      33.183  19.964 -22.546  0.00  0.00    -0.303 N 
ATOM      2  C   UNL d   1      33.241  20.511 -23.165  0.00  0.00     0.080 A 
ATOM      3  C   UNL d   1      33.058  19.216 -22.883  0.00  0.00     0.064 A 
ATOM      4  C   UNL d   1      33.152  20.104 -23.875  0.00  0.00     0.021 A 
ATOM      5  C   UNL d   1      33.039  19.305 -23.705  0.00  0.00     0.018 A 
ATOM      6  C   UNL d   1      32.961  18.477 -22.537  0.00  0.00     0.018 A 
ATOM      7  C   UNL d   1      32.921  18.642 -24.178  0.00  0.00     0.002 A 
ATOM      8  C   UNL d   1      32.843  17.814 -23.010  0.00  0.00     0.002 A 
ATOM      9  C   UNL d   1      32.821  17.888 -23.842  0.00  0.00     0.000 A 
ENDROOT
BRANCH   1  10
ATOM     10  C   UNL d   1      33.241  20.138 -21.741  0.00  0.00     0.101 C 
BRANCH  10  11
ATOM     11  C   UNL d   1      33.011  20.879 -21.463  0.00  0.00     0.121 C 
BRANCH  11  12
ATOM     12  N   UNL d   1      33.143  21.080 -20.673  0.00  0.00    -0.209 NA
ATOM     13  C   UNL d   1      32.897  21.811 -20.384  0.00  0.00     0.255 C 
ATOM     14  O   UNL d   1      33.029  22.013 -19.595  0.00  0.00    -0.270 OA
BRANCH  13  15
ATOM     15  C   UNL d   1      32.515  22.346 -20.890  0.00  0.00     0.073 C 
ATOM     16  C   UNL d   1      33.225  22.768 -20.979  0.00  0.00     0.009 C 
ATOM     17  C   UNL d   1      32.132  22.875 -21.391  0.00  0.00     0.009 C 
ATOM     18  C   UNL d   1      31.816  21.922 -20.796  0.00  0.00     0.009 C 
ENDBRANCH  13  15
ENDBRANCH  11  12
ENDBRANCH  10  11
ENDBRANCH   1  10
TORSDOF 4
ENDMDL
MODEL 6
REMARK VINA RESULT:      -2.0      3.930      5.537
REMARK  4 active torsions:
REMARK  status: ('A' for Active; 'I' for Inactive)
REMARK    1  A    between atoms: C_10  and  N_1 
REMARK       I    between atoms: C_3  and  N_9 
REMARK    2  A    between atoms: C_6  and  C_3 
REMARK    3  A    between atoms: N_9  and  C_11 
REMARK    4  A    between atoms: C_11  and  C_10 
ROOT
ATOM      1  N   UNL d   1      33.228  20.258 -22.132  0.00  0.00    -0.303 N 
ATOM      2  C   UNL d   1      33.240  19.791 -21.448  0.00  0.00     0.080 A 
ATOM      3  C   UNL d   1      33.203  19.746 -22.785  0.00  0.00     0.064 A 
ATOM      4  C   UNL d   1      33.224  19.001 -21.678  0.00  0.00     0.021 A 
ATOM      5  C   UNL d   1      33.201  18.970 -22.502  0.00  0.00     0.018 A 
ATOM      6  C   UNL d   1      33.183  19.900 -23.592  0.00  0.00     0.018 A 
ATOM      7  C   UNL d   1      33.178  18.346 -23.039  0.00  0.00     0.002 A 
ATOM      8  C   UNL d   1      33.160  19.277 -24.129  0.00  0.00     0.002 A 
ATOM      9  C   UNL d   1      33.158  18.487 -23.858  0.00  0.00     0.000 A 
ENDROOT
BRANCH   1  10
ATOM     10  C   UNL d   1      33.237  21.083 -22.154  0.00  0.00     0.101 C 
BRANCH  10  11
ATOM     11  C   UNL d   1      32.894  21.515 -21.542  0.00  0.00     0.121 C 
BRANCH  11  12
ATOM     12  N   UNL d   1      32.349  22.110 -21.714  0.00  0.00    -0.209 NA
ATOM     13  C   UNL d   1      32.183  22.695 -21.159  0.00  0.00     0.255 C 
ATOM     14  O   UNL d   1      31.638  23.291 -21.331  0.00  0.00    -0.270 OA
BRANCH  13  15
ATOM     15  C   UNL d   1      32.565  22.684 -20.422  0.00  0.00     0.073 C 
ATOM     16  C   UNL d   1      33.241  23.021 -20.769  0.00  0.00     0.009 C 
ATOM     17  C   UNL d   1      32.941  22.672 -19.691  0.00  0.00     0.009 C 
ATOM     18  C   UNL d   1      31.891  22.351 -20.088  0.00  0.00     0.009 C 
ENDBRANCH  13  15
ENDBRANCH  11  12
ENDBRANCH  10  11
ENDBRANCH   1  10
TORSDOF 4
ENDMDL
MODEL 7
REMARK VINA RESULT:      -2.0      2.470      4.873
REMARK  4 active torsions:
REMARK  status: ('A' for Active; 'I' for Inactive)
REMARK    1  A    between atoms: C_10  and  N_1 
REMARK       I    between atoms: C_3  and  N_9 
REMARK    2  A    between atoms: C_6  and  C_3 
REMARK    3  A    between atoms: N_9  and  C_11 
REMARK    4  A    between atoms: C_11  and  C_10 
ROOT
ATOM      1  N   UNL d   1      33.161  19.946 -22.223  0.00  0.00    -0.303 N 
ATOM      2  C   UNL d   1      33.197  19.554 -21.494  0.00  0.00     0.080 A 
ATOM      3  C   UNL d   1      33.066  20.756 -22.068  0.00  0.00     0.064 A 
ATOM      4  C   UNL d   1      33.125  20.116 -20.897  0.00  0.00     0.021 A 
ATOM      5  C   UNL d   1      33.044  20.859 -21.248  0.00  0.00     0.018 A 
ATOM      6  C   UNL d   1      32.999  21.400 -22.575  0.00  0.00     0.018 A 
ATOM      7  C   UNL d   1      32.953  21.617 -20.940  0.00  0.00     0.002 A 
ATOM      8  C   UNL d   1      32.908  22.157 -22.267  0.00  0.00     0.002 A 
ATOM      9  C   UNL d   1      32.884  22.277 -21.440  0.00  0.00     0.000 A 
ENDROOT
BRANCH   1  10
ATOM     10  C   UNL d   1      33.212  19.591 -22.966  0.00  0.00     0.101 C 
BRANCH  10  11
ATOM     11  C   UNL d   1      32.934  18.822 -23.074  0.00  0.00     0.121 C 
BRANCH  11  12
ATOM     12  N   UNL d   1      33.241  18.356 -23.682  0.00  0.00    -0.209 NA
ATOM     13  C   UNL d   1      32.759  17.816 -24.075  0.00  0.00     0.255 C 
ATOM     14  O   UNL d   1      33.065  17.349 -24.683  0.00  0.00    -0.270 OA
BRANCH  13  15
ATOM     15  C   UNL d   1      31.962  17.740 -23.856  0.00  0.00     0.073 C 
ATOM     16  C   UNL d   1      32.179  17.226 -23.242  0.00  0.00     0.009 C 
ATOM     17  C   UNL d   1      31.170  17.668 -23.643  0.00  0.00     0.009 C 
ATOM     18  C   UNL d   1      31.756  18.251 -24.468  0.00  0.00     0.009 C 
ENDBRANCH  13  15
ENDBRANCH  11  12
ENDBRANCH  10  11
ENDBRANCH   1  10
TORSDOF 4
ENDMDL
MODEL 8
REMARK VINA RESULT:      -0.5      2.573      3.791
REMARK  4 active torsions:
REMARK  status: ('A' for Active; 'I' for Inactive)
REMARK    1  A    between atoms: C_10  and  N_1 
REMARK       I    between atoms: C_3  and  N_9 
REMARK    2  A    between atoms: C_6  and  C_3 
REMARK    3  A    between atoms: N_9  and  C_11 
REMARK    4  A    between atoms: C_11  and  C_10 
ROOT
ATOM      1  N   UNL d   1      32.768  18.327 -23.251  0.00  0.00    -0.303 N 
ATOM      2  C   UNL d   1      33.195  18.712 -23.847  0.00  0.00     0.080 A 
ATOM      3  C   UNL d   1      32.462  17.626 -23.575  0.00  0.00     0.064 A 
ATOM      4  C   UNL d   1      33.153  18.254 -24.529  0.00  0.00     0.021 A 
ATOM      5  C   UNL d   1      32.702  17.584 -24.365  0.00  0.00     0.018 A 
ATOM      6  C   UNL d   1      32.000  17.034 -23.243  0.00  0.00     0.018 A 
ATOM      7  C   UNL d   1      32.472  16.938 -24.820  0.00  0.00     0.002 A 
ATOM      8  C   UNL d   1      31.770  16.388 -23.698  0.00  0.00     0.002 A 
ATOM      9  C   UNL d   1      32.004  16.331 -24.498  0.00  0.00     0.000 A 
ENDROOT
BRANCH   1  10
ATOM     10  C   UNL d   1      32.667  18.595 -22.477  0.00  0.00     0.101 C 
BRANCH  10  11
ATOM     11  C   UNL d   1      32.836  19.380 -22.289  0.00  0.00     0.121 C 
BRANCH  11  12
ATOM     12  N   UNL d   1      33.098  19.573 -21.530  0.00  0.00    -0.209 NA
ATOM     13  C   UNL d   1      32.979  20.331 -21.230  0.00  0.00     0.255 C 
ATOM     14  O   UNL d   1      33.240  20.525 -20.472  0.00  0.00    -0.270 OA
BRANCH  13  15
ATOM     15  C   UNL d   1      32.594  20.902 -21.694  0.00  0.00     0.073 C 
ATOM     16  C   UNL d   1      33.237  20.908 -22.220  0.00  0.00     0.009 C 
ATOM     17  C   UNL d   1      32.209  21.467 -22.151  0.00  0.00     0.009 C 
ATOM     18  C   UNL d   1      31.962  20.889 -21.168  0.00  0.00     0.009 C 
ENDBRANCH  13  15
ENDBRANCH  11  12
ENDBRANCH  10  11
ENDBRANCH   1  10
TORSDOF 4
ENDMDL
