MODEL 1
REMARK VINA RESULT:      -1.9      0.000      0.000
REMARK  6 active torsions:
REMARK  status: ('A' for Active; 'I' for Inactive)
REMARK    1  A    between atoms: C_4  and  C_1 
REMARK    2  A    between atoms: C_7  and  C_4 
REMARK    3  A    between atoms: N_10  and  C_7 
REMARK    4  A    between atoms: C_11  and  N_10 
REMARK    5  A    between atoms: O_14  and  C_12 
REMARK    6  A    between atoms: C_19  and  O_14 
ROOT
ATOM      1  C   UNL d   1      58.110  -0.311  30.102  0.00  0.00     0.122 C 
ATOM      2  C   UNL d   1      57.642   0.184  29.640  0.00  0.00     0.106 C 
ATOM      3  N   UNL d   1      57.174   0.680  29.178  0.00  0.00    -0.191 NA
ENDROOT
BRANCH   1   4
ATOM      4  C   UNL d   1      58.554  -0.909  29.747  0.00  0.00     0.159 A 
ATOM      5  N   UNL d   1      58.291  -1.672  29.570  0.00  0.00    -0.226 NA
ATOM      6  C   UNL d   1      58.911  -2.081  29.223  0.00  0.00     0.099 A 
ATOM      7  C   UNL d   1      58.974  -2.856  28.933  0.00  0.00     0.021 A 
ATOM      8  C   UNL d   1      59.561  -1.574  29.183  0.00  0.00     0.083 A 
ATOM      9  C   UNL d   1      59.689  -3.114  28.606  0.00  0.00     0.002 A 
ATOM     10  C   UNL d   1      60.339  -2.608  28.566  0.00  0.00     0.002 A 
ATOM     11  C   UNL d   1      60.281  -1.838  28.852  0.00  0.00     0.019 A 
ATOM     12  N   UNL d   1      59.345  -0.851  29.505  0.00  0.00    -0.287 N 
ATOM     13  C   UNL d   1      59.824  -0.177  29.580  0.00  0.00     0.101 C 
ENDBRANCH   1   4
BRANCH   1  14
ATOM     14  C   UNL d   1      58.134  -0.209  30.919  0.00  0.00     0.112 C 
BRANCH  14  15
ATOM     15  N   UNL d   1      57.435  -0.218  31.356  0.00  0.00    -0.241 NA
BRANCH  15  16
ATOM     16  C   UNL d   1      57.446  -0.007  32.157  0.00  0.00     0.104 A 
ATOM     17  C   UNL d   1      56.849  -0.264  32.665  0.00  0.00     0.118 A 
ATOM     18  C   UNL d   1      56.864  -0.052  33.462  0.00  0.00     0.026 A 
ATOM     19  C   UNL d   1      57.480   0.419  33.751  0.00  0.00     0.002 A 
ATOM     20  C   UNL d   1      58.087   0.682  33.238  0.00  0.00     0.002 A 
ATOM     21  C   UNL d   1      58.063   0.463  32.439  0.00  0.00     0.021 A 
BRANCH  17  22
ATOM     22  O   UNL d   1      56.242  -0.730  32.375  0.00  0.00    -0.304 OA
BRANCH  22  23
ATOM     23  C   UNL d   1      55.806  -1.202  32.893  0.00  0.00     0.123 C 
ATOM     24  C   UNL d   1      55.268  -1.749  32.602  0.00  0.00     0.029 C 
ENDBRANCH  22  23
ENDBRANCH  17  22
ENDBRANCH  15  16
ENDBRANCH  14  15
ENDBRANCH   1  14
TORSDOF 6
ENDMDL
MODEL 2
REMARK VINA RESULT:      -0.1      1.412      4.840
REMARK  6 active torsions:
REMARK  status: ('A' for Active; 'I' for Inactive)
REMARK    1  A    between atoms: C_4  and  C_1 
REMARK    2  A    between atoms: C_7  and  C_4 
REMARK    3  A    between atoms: N_10  and  C_7 
REMARK    4  A    between atoms: C_11  and  N_10 
REMARK    5  A    between atoms: O_14  and  C_12 
REMARK    6  A    between atoms: C_19  and  O_14 
ROOT
ATOM      1  C   UNL d   1      57.393   0.142  32.032  0.00  0.00     0.122 C 
ATOM      2  C   UNL d   1      58.099   0.409  32.358  0.00  0.00     0.106 C 
ATOM      3  N   UNL d   1      58.807   0.676  32.684  0.00  0.00    -0.191 NA
ENDROOT
BRANCH   1   4
ATOM      4  C   UNL d   1      56.721   0.068  32.505  0.00  0.00     0.159 A 
ATOM      5  N   UNL d   1      56.379   0.665  32.964  0.00  0.00    -0.226 NA
ATOM      6  C   UNL d   1      55.724   0.351  33.343  0.00  0.00     0.099 A 
ATOM      7  C   UNL d   1      55.171   0.682  33.867  0.00  0.00     0.021 A 
ATOM      8  C   UNL d   1      55.655  -0.441  33.122  0.00  0.00     0.083 A 
ATOM      9  C   UNL d   1      54.557   0.214  34.163  0.00  0.00     0.002 A 
ATOM     10  C   UNL d   1      54.488  -0.577  33.942  0.00  0.00     0.002 A 
ATOM     11  C   UNL d   1      55.033  -0.909  33.422  0.00  0.00     0.019 A 
ATOM     12  N   UNL d   1      56.268  -0.619  32.605  0.00  0.00    -0.287 N 
ATOM     13  C   UNL d   1      56.416  -1.351  32.243  0.00  0.00     0.101 C 
ENDBRANCH   1   4
BRANCH   1  14
ATOM     14  C   UNL d   1      57.356  -0.051  31.232  0.00  0.00     0.112 C 
BRANCH  14  15
ATOM     15  N   UNL d   1      58.022  -0.355  30.850  0.00  0.00    -0.241 NA
BRANCH  15  16
ATOM     16  C   UNL d   1      58.151  -0.189  30.050  0.00  0.00     0.104 A 
ATOM     17  C   UNL d   1      58.588  -0.707  29.580  0.00  0.00     0.118 A 
ATOM     18  C   UNL d   1      58.715  -0.538  28.783  0.00  0.00     0.026 A 
ATOM     19  C   UNL d   1      58.401   0.154  28.455  0.00  0.00     0.002 A 
ATOM     20  C   UNL d   1      57.956   0.682  28.929  0.00  0.00     0.002 A 
ATOM     21  C   UNL d   1      57.835   0.503  29.728  0.00  0.00     0.021 A 
BRANCH  17  22
ATOM     22  O   UNL d   1      58.897  -1.390  29.910  0.00  0.00    -0.304 OA
BRANCH  22  23
ATOM     23  C   UNL d   1      59.189  -1.985  29.418  0.00  0.00     0.123 C 
ATOM     24  C   UNL d   1      59.148  -2.771  29.648  0.00  0.00     0.029 C 
ENDBRANCH  22  23
ENDBRANCH  17  22
ENDBRANCH  15  16
ENDBRANCH  14  15
ENDBRANCH   1  14
TORSDOF 6
ENDMDL
