MODEL 1
REMARK VINA RESULT:      79.8      0.000      0.000
REMARK  4 active torsions:
REMARK  status: ('A' for Active; 'I' for Inactive)
REMARK    1  A    between atoms: C_11  and  C_4 
REMARK    2  A    between atoms: N_10  and  C_5 
REMARK    3  A    between atoms: C_13  and  N_10 
REMARK    4  A    between atoms: C_14  and  C_13 
ROOT
ATOM      1  N   UNL d   1     -55.736-100.750 -43.582  0.00  0.00    -0.195 N 
ATOM      2  C   UNL d   1     -56.293-100.650 -44.182  0.00  0.00     0.167 A 
ATOM      3  N   UNL d   1     -55.772-100.094 -43.095  0.00  0.00    -0.163 NA
ATOM      4  C   UNL d   1     -56.671 -99.931 -44.066  0.00  0.00     0.055 A 
ATOM      5  C   UNL d   1     -55.272-101.429 -43.560  0.00  0.00     0.167 A 
ATOM      6  C   UNL d   1     -56.351 -99.586 -43.395  0.00  0.00     0.104 A 
ATOM      7  N   UNL d   1     -56.384-101.228 -44.761  0.00  0.00    -0.227 NA
ATOM      8  C   UNL d   1     -55.361-102.014 -44.141  0.00  0.00     0.058 A 
ATOM      9  C   UNL d   1     -55.917-101.913 -44.742  0.00  0.00     0.086 A 
ATOM     10  C   UNL d   1     -56.570 -98.857 -43.075  0.00  0.00     0.023 C 
ATOM     11  C   UNL d   1     -56.016-102.493 -45.331  0.00  0.00     0.021 C 
ENDROOT
BRANCH   5  12
ATOM     12  N   UNL d   1     -54.715-101.530 -42.959  0.00  0.00    -0.224 NA
BRANCH  12  13
ATOM     13  C   UNL d   1     -54.732-102.206 -42.492  0.00  0.00     0.120 C 
BRANCH  13  14
ATOM     14  C   UNL d   1     -54.768-102.140 -41.670  0.00  0.00     0.101 A 
ATOM     15  N   UNL d   1     -54.712-101.393 -41.314  0.00  0.00    -0.242 NA
ATOM     16  C   UNL d   1     -54.749-101.327 -40.489  0.00  0.00     0.099 A 
ATOM     17  C   UNL d   1     -54.842-102.008 -40.024  0.00  0.00     0.021 A 
ATOM     18  C   UNL d   1     -54.898-102.747 -40.381  0.00  0.00     0.003 A 
ATOM     19  C   UNL d   1     -54.861-102.813 -41.206  0.00  0.00     0.021 A 
ENDBRANCH  13  14
ENDBRANCH  12  13
ENDBRANCH   5  12
BRANCH   4  20
ATOM     20  C   UNL d   1     -57.267 -99.541 -44.482  0.00  0.00     0.004 A 
ATOM     21  C   UNL d   1     -57.095 -99.180 -45.209  0.00  0.00     0.000 A 
ATOM     22  C   UNL d   1     -57.691 -98.789 -45.626  0.00  0.00     0.000 A 
ATOM     23  C   UNL d   1     -58.457 -98.757 -45.322  0.00  0.00     0.000 A 
ATOM     24  C   UNL d   1     -58.628 -99.119 -44.593  0.00  0.00     0.000 A 
ATOM     25  C   UNL d   1     -58.033 -99.508 -44.179  0.00  0.00     0.000 A 
ENDBRANCH   4  20
TORSDOF 4
ENDMDL
