MODEL 1
REMARK VINA RESULT:      31.3      0.000      0.000
REMARK  3 active torsions:
REMARK  status: ('A' for Active; 'I' for Inactive)
REMARK    1  A    between atoms: C_2  and  C_1 
REMARK       I    between atoms: N_8  and  C_2 
REMARK    2  A    between atoms: C_12  and  C_4 
REMARK    3  A    between atoms: C_9  and  N_8 
ROOT
ATOM      1  C   UNL d   1      46.206 -18.145  43.088  0.00  0.00     0.106 A 
ATOM      2  C   UNL d   1      46.302 -17.551  42.433  0.00  0.00     0.093 A 
ATOM      3  C   UNL d   1      46.052 -18.845  42.977  0.00  0.00     0.093 A 
ATOM      4  C   UNL d   1      46.027 -18.654  41.577  0.00  0.00     0.369 A 
ATOM      5  N   UNL d   1      46.202 -17.851  41.685  0.00  0.00    -0.191 NA
ATOM      6  N   UNL d   1      45.952 -19.150  42.223  0.00  0.00    -0.191 NA
ATOM      7  O   UNL d   1      45.927 -18.952  40.811  0.00  0.00    -0.242 OA
ATOM      8  C   UNL d   1      46.476 -16.767  42.584  0.00  0.00     0.021 C 
ENDROOT
BRANCH   1   9
ATOM      9  C   UNL d   1      46.298 -17.884  43.861  0.00  0.00     0.331 C 
ATOM     10  N   UNL d   1      46.093 -17.121  44.069  0.00  0.00    -0.365 NA
ATOM     11  O   UNL d   1      46.600 -18.397  44.428  0.00  0.00    -0.251 OA
BRANCH  10  12
ATOM     12  C   UNL d   1      45.866 -16.303  44.262  0.00  0.00     0.135 A 
ATOM     13  C   UNL d   1      45.122 -16.133  44.702  0.00  0.00     0.030 A 
ATOM     14  C   UNL d   1      44.605 -16.805  44.947  0.00  0.00     0.003 C 
ATOM     15  C   UNL d   1      44.897 -15.322  44.894  0.00  0.00     0.003 A 
ATOM     16  C   UNL d   1      45.411 -14.648  44.651  0.00  0.00     0.000 A 
ATOM     17  C   UNL d   1      46.151 -14.812  44.214  0.00  0.00     0.003 A 
ATOM     18  C   UNL d   1      46.381 -15.634  44.019  0.00  0.00     0.032 A 
ENDBRANCH  10  12
ENDBRANCH   1   9
BRANCH   3  19
ATOM     19  C   UNL d   1      45.978 -19.340  43.626  0.00  0.00     0.018 A 
ATOM     20  C   UNL d   1      46.646 -19.598  44.036  0.00  0.00     0.002 A 
ATOM     21  C   UNL d   1      46.560 -20.091  44.681  0.00  0.00     0.000 A 
ATOM     22  C   UNL d   1      45.814 -20.330  44.924  0.00  0.00     0.000 A 
ATOM     23  C   UNL d   1      45.153 -20.074  44.520  0.00  0.00     0.000 A 
ATOM     24  C   UNL d   1      45.226 -19.582  43.874  0.00  0.00     0.002 A 
ENDBRANCH   3  19
TORSDOF 3
ENDMDL
