MODEL 1
REMARK VINA RESULT:      -5.9      0.000      0.000
REMARK  6 active torsions:
REMARK  status: ('A' for Active; 'I' for Inactive)
REMARK    1  A    between atoms: N_2  and  C_1 
REMARK       I    between atoms: C_4  and  N_2 
REMARK    2  A    between atoms: C_6  and  C_4 
REMARK    3  A    between atoms: C_9  and  C_6 
REMARK    4  A    between atoms: C_8  and  O_15 
REMARK    5  A    between atoms: O_15  and  C_9 
REMARK    6  A    between atoms: O_17  and  C_10 
ROOT
ATOM      1  C   UNL d   1     -47.567  13.534  22.992  0.00  0.00     0.128 C 
ENDROOT
BRANCH   1   2
ATOM      2  C   UNL d   1     -47.866  14.296  22.847  0.00  0.00     0.089 C 
BRANCH   2   3
ATOM      3  C   UNL d   1     -48.650  14.470  23.033  0.00  0.00     0.283 C 
ATOM      4  N   UNL d   1     -48.948  15.221  22.869  0.00  0.00    -0.183 NA
ATOM      5  O   UNL d   1     -49.131  13.897  23.379  0.00  0.00    -0.265 OA
BRANCH   4   6
ATOM      6  C   UNL d   1     -49.737  15.394  23.057  0.00  0.00     0.197 A 
ATOM      7  N   UNL d   1     -50.404  15.137  22.650  0.00  0.00    -0.219 NA
ATOM      8  C   UNL d   1     -51.064  15.439  23.027  0.00  0.00     0.108 A 
ATOM      9  C   UNL d   1     -50.805  15.887  23.672  0.00  0.00     0.059 A 
ATOM     10  S   UNL d   1     -49.984  15.861  23.692  0.00  0.00    -0.046 SA
ENDBRANCH   4   6
ENDBRANCH   2   3
ENDBRANCH   1   2
BRANCH   1  11
ATOM     11  O   UNL d   1     -46.829  13.523  22.626  0.00  0.00    -0.305 OA
BRANCH  11  12
ATOM     12  C   UNL d   1     -46.300  12.915  22.790  0.00  0.00     0.100 A 
ATOM     13  C   UNL d   1     -45.539  12.931  22.467  0.00  0.00     0.027 A 
ATOM     14  C   UNL d   1     -45.009  12.322  22.632  0.00  0.00     0.026 A 
ATOM     15  C   UNL d   1     -45.237  11.696  23.119  0.00  0.00     0.094 A 
ATOM     16  C   UNL d   1     -45.993  11.679  23.441  0.00  0.00     0.026 A 
ATOM     17  C   UNL d   1     -46.527  12.289  23.278  0.00  0.00     0.027 A 
BRANCH  15  18
ATOM     18  O   UNL d   1     -44.699  11.085  23.282  0.00  0.00    -0.328 OA
ATOM     19  C   UNL d   1     -44.944  10.417  23.696  0.00  0.00     0.181 C 
ENDBRANCH  15  18
ENDBRANCH  11  12
ENDBRANCH   1  11
TORSDOF 6
ENDMDL
MODEL 2
REMARK VINA RESULT:      -5.4      1.143      1.548
REMARK  6 active torsions:
REMARK  status: ('A' for Active; 'I' for Inactive)
REMARK    1  A    between atoms: N_2  and  C_1 
REMARK       I    between atoms: C_4  and  N_2 
REMARK    2  A    between atoms: C_6  and  C_4 
REMARK    3  A    between atoms: C_9  and  C_6 
REMARK    4  A    between atoms: C_8  and  O_15 
REMARK    5  A    between atoms: O_15  and  C_9 
REMARK    6  A    between atoms: O_17  and  C_10 
ROOT
ATOM      1  C   UNL d   1     -47.212  13.790  22.634  0.00  0.00     0.128 C 
ENDROOT
BRANCH   1   2
ATOM      2  C   UNL d   1     -47.891  13.876  23.104  0.00  0.00     0.089 C 
BRANCH   2   3
ATOM      3  C   UNL d   1     -48.579  14.191  22.775  0.00  0.00     0.283 C 
ATOM      4  N   UNL d   1     -49.312  13.894  23.009  0.00  0.00    -0.183 NA
ATOM      5  O   UNL d   1     -48.534  14.795  22.217  0.00  0.00    -0.265 OA
BRANCH   4   6
ATOM      6  C   UNL d   1     -50.003  14.211  22.677  0.00  0.00     0.197 A 
ATOM      7  N   UNL d   1     -50.389  13.943  22.002  0.00  0.00    -0.219 NA
ATOM      8  C   UNL d   1     -51.044  14.417  21.878  0.00  0.00     0.108 A 
ATOM      9  C   UNL d   1     -51.064  14.984  22.480  0.00  0.00     0.059 A 
ATOM     10  S   UNL d   1     -50.421  14.858  22.976  0.00  0.00    -0.046 SA
ENDBRANCH   4   6
ENDBRANCH   2   3
ENDBRANCH   1   2
BRANCH   1  11
ATOM     11  O   UNL d   1     -46.683  13.365  23.101  0.00  0.00    -0.305 OA
BRANCH  11  12
ATOM     12  C   UNL d   1     -45.977  13.094  22.777  0.00  0.00     0.100 A 
ATOM     13  C   UNL d   1     -45.682  12.351  22.992  0.00  0.00     0.027 A 
ATOM     14  C   UNL d   1     -44.976  12.080  22.668  0.00  0.00     0.026 A 
ATOM     15  C   UNL d   1     -44.561  12.548  22.130  0.00  0.00     0.094 A 
ATOM     16  C   UNL d   1     -44.853  13.286  21.915  0.00  0.00     0.026 A 
ATOM     17  C   UNL d   1     -45.562  13.561  22.239  0.00  0.00     0.027 A 
BRANCH  15  18
ATOM     18  O   UNL d   1     -43.849  12.269  21.806  0.00  0.00    -0.328 OA
ATOM     19  C   UNL d   1     -43.282  12.801  21.533  0.00  0.00     0.181 C 
ENDBRANCH  15  18
ENDBRANCH  11  12
ENDBRANCH   1  11
TORSDOF 6
ENDMDL
MODEL 3
REMARK VINA RESULT:      -5.3      1.177      1.467
REMARK  6 active torsions:
REMARK  status: ('A' for Active; 'I' for Inactive)
REMARK    1  A    between atoms: N_2  and  C_1 
REMARK       I    between atoms: C_4  and  N_2 
REMARK    2  A    between atoms: C_6  and  C_4 
REMARK    3  A    between atoms: C_9  and  C_6 
REMARK    4  A    between atoms: C_8  and  O_15 
REMARK    5  A    between atoms: O_15  and  C_9 
REMARK    6  A    between atoms: O_17  and  C_10 
ROOT
ATOM      1  C   UNL d   1     -48.125  12.427  23.185  0.00  0.00     0.128 C 
ENDROOT
BRANCH   1   2
ATOM      2  C   UNL d   1     -48.899  12.536  23.467  0.00  0.00     0.089 C 
BRANCH   2   3
ATOM      3  C   UNL d   1     -49.361  13.151  23.167  0.00  0.00     0.283 C 
ATOM      4  N   UNL d   1     -49.538  13.795  23.649  0.00  0.00    -0.183 NA
ATOM      5  O   UNL d   1     -49.642  13.119  22.393  0.00  0.00    -0.265 OA
BRANCH   4   6
ATOM      6  C   UNL d   1     -50.003  14.412  23.347  0.00  0.00     0.197 A 
ATOM      7  N   UNL d   1     -49.729  15.119  23.027  0.00  0.00    -0.219 NA
ATOM      8  C   UNL d   1     -50.377  15.563  22.799  0.00  0.00     0.108 A 
ATOM      9  C   UNL d   1     -51.058  15.128  22.978  0.00  0.00     0.059 A 
ATOM     10  S   UNL d   1     -50.828  14.416  23.317  0.00  0.00    -0.046 SA
ENDBRANCH   4   6
ENDBRANCH   2   3
ENDBRANCH   1   2
BRANCH   1  11
ATOM     11  O   UNL d   1     -47.813  11.825  23.651  0.00  0.00    -0.305 OA
BRANCH  11  12
ATOM     12  C   UNL d   1     -47.027  11.599  23.556  0.00  0.00     0.100 A 
ATOM     13  C   UNL d   1     -46.802  10.816  23.698  0.00  0.00     0.027 A 
ATOM     14  C   UNL d   1     -46.016  10.590  23.603  0.00  0.00     0.026 A 
ATOM     15  C   UNL d   1     -45.452  11.144  23.366  0.00  0.00     0.094 A 
ATOM     16  C   UNL d   1     -45.674  11.923  23.225  0.00  0.00     0.026 A 
ATOM     17  C   UNL d   1     -46.463  12.153  23.320  0.00  0.00     0.027 A 
BRANCH  15  18
ATOM     18  O   UNL d   1     -44.661  10.912  23.272  0.00  0.00    -0.328 OA
ATOM     19  C   UNL d   1     -44.362  10.273  23.698  0.00  0.00     0.181 C 
ENDBRANCH  15  18
ENDBRANCH  11  12
ENDBRANCH   1  11
TORSDOF 6
ENDMDL
MODEL 4
REMARK VINA RESULT:      -5.2      2.823      5.093
REMARK  6 active torsions:
REMARK  status: ('A' for Active; 'I' for Inactive)
REMARK    1  A    between atoms: N_2  and  C_1 
REMARK       I    between atoms: C_4  and  N_2 
REMARK    2  A    between atoms: C_6  and  C_4 
REMARK    3  A    between atoms: C_9  and  C_6 
REMARK    4  A    between atoms: C_8  and  O_15 
REMARK    5  A    between atoms: O_15  and  C_9 
REMARK    6  A    between atoms: O_17  and  C_10 
ROOT
ATOM      1  C   UNL d   1     -47.112  13.028  22.784  0.00  0.00     0.128 C 
ENDROOT
BRANCH   1   2
ATOM      2  C   UNL d   1     -46.439  13.446  22.533  0.00  0.00     0.089 C 
BRANCH   2   3
ATOM      3  C   UNL d   1     -45.703  13.072  22.530  0.00  0.00     0.283 C 
ATOM      4  N   UNL d   1     -45.196  13.184  21.890  0.00  0.00    -0.183 NA
ATOM      5  O   UNL d   1     -45.480  12.591  23.160  0.00  0.00    -0.265 OA
BRANCH   4   6
ATOM      6  C   UNL d   1     -44.457  12.808  21.888  0.00  0.00     0.197 A 
ATOM      7  N   UNL d   1     -44.239  12.156  22.340  0.00  0.00    -0.219 NA
ATOM      8  C   UNL d   1     -43.462  11.971  22.162  0.00  0.00     0.108 A 
ATOM      9  C   UNL d   1     -43.197  12.511  21.595  0.00  0.00     0.059 A 
ATOM     10  S   UNL d   1     -43.810  13.030  21.424  0.00  0.00    -0.046 SA
ENDBRANCH   4   6
ENDBRANCH   2   3
ENDBRANCH   1   2
BRANCH   1  11
ATOM     11  O   UNL d   1     -47.743  13.396  22.402  0.00  0.00    -0.305 OA
BRANCH  11  12
ATOM     12  C   UNL d   1     -48.514  13.163  22.570  0.00  0.00     0.100 A 
ATOM     13  C   UNL d   1     -48.791  12.429  22.306  0.00  0.00     0.027 A 
ATOM     14  C   UNL d   1     -49.563  12.197  22.474  0.00  0.00     0.026 A 
ATOM     15  C   UNL d   1     -50.060  12.694  22.905  0.00  0.00     0.094 A 
ATOM     16  C   UNL d   1     -49.787  13.424  23.168  0.00  0.00     0.026 A 
ATOM     17  C   UNL d   1     -49.012  13.660  23.001  0.00  0.00     0.027 A 
BRANCH  15  18
ATOM     18  O   UNL d   1     -50.838  12.455  23.072  0.00  0.00    -0.328 OA
ATOM     19  C   UNL d   1     -50.988  11.940  23.697  0.00  0.00     0.181 C 
ENDBRANCH  15  18
ENDBRANCH  11  12
ENDBRANCH   1  11
TORSDOF 6
ENDMDL
MODEL 5
REMARK VINA RESULT:      -4.6      9.107     10.142
REMARK  6 active torsions:
REMARK  status: ('A' for Active; 'I' for Inactive)
REMARK    1  A    between atoms: N_2  and  C_1 
REMARK       I    between atoms: C_4  and  N_2 
REMARK    2  A    between atoms: C_6  and  C_4 
REMARK    3  A    between atoms: C_9  and  C_6 
REMARK    4  A    between atoms: C_8  and  O_15 
REMARK    5  A    between atoms: O_15  and  C_9 
REMARK    6  A    between atoms: O_17  and  C_10 
ROOT
ATOM      1  C   UNL d   1     -39.064  14.236  19.510  0.00  0.00     0.128 C 
ENDROOT
BRANCH   1   2
ATOM      2  C   UNL d   1     -39.475  14.138  20.225  0.00  0.00     0.089 C 
BRANCH   2   3
ATOM      3  C   UNL d   1     -39.083  14.254  20.942  0.00  0.00     0.283 C 
ATOM      4  N   UNL d   1     -39.423  13.973  21.638  0.00  0.00    -0.183 NA
ATOM      5  O   UNL d   1     -38.359  14.647  20.959  0.00  0.00    -0.265 OA
BRANCH   4   6
ATOM      6  C   UNL d   1     -39.027  14.090  22.358  0.00  0.00     0.197 A 
ATOM      7  N   UNL d   1     -38.957  14.800  22.767  0.00  0.00    -0.219 NA
ATOM      8  C   UNL d   1     -38.523  14.661  23.446  0.00  0.00     0.108 A 
ATOM      9  C   UNL d   1     -38.324  13.858  23.459  0.00  0.00     0.059 A 
ATOM     10  S   UNL d   1     -38.635  13.503  22.787  0.00  0.00    -0.046 SA
ENDBRANCH   4   6
ENDBRANCH   2   3
ENDBRANCH   1   2
BRANCH   1  11
ATOM     11  O   UNL d   1     -39.573  13.944  18.931  0.00  0.00    -0.305 OA
BRANCH  11  12
ATOM     12  C   UNL d   1     -39.335  13.937  18.143  0.00  0.00     0.100 A 
ATOM     13  C   UNL d   1     -38.861  13.320  17.861  0.00  0.00     0.027 A 
ATOM     14  C   UNL d   1     -38.623  13.312  17.073  0.00  0.00     0.026 A 
ATOM     15  C   UNL d   1     -38.856  13.919  16.564  0.00  0.00     0.094 A 
ATOM     16  C   UNL d   1     -39.327  14.533  16.844  0.00  0.00     0.026 A 
ATOM     17  C   UNL d   1     -39.568  14.543  17.635  0.00  0.00     0.027 A 
BRANCH  15  18
ATOM     18  O   UNL d   1     -38.614  13.906  15.770  0.00  0.00    -0.328 OA
ATOM     19  C   UNL d   1     -37.942  14.321  15.535  0.00  0.00     0.181 C 
ENDBRANCH  15  18
ENDBRANCH  11  12
ENDBRANCH   1  11
TORSDOF 6
ENDMDL
MODEL 6
REMARK VINA RESULT:      -4.4      9.084     10.185
REMARK  6 active torsions:
REMARK  status: ('A' for Active; 'I' for Inactive)
REMARK    1  A    between atoms: N_2  and  C_1 
REMARK       I    between atoms: C_4  and  N_2 
REMARK    2  A    between atoms: C_6  and  C_4 
REMARK    3  A    between atoms: C_9  and  C_6 
REMARK    4  A    between atoms: C_8  and  O_15 
REMARK    5  A    between atoms: O_15  and  C_9 
REMARK    6  A    between atoms: O_17  and  C_10 
ROOT
ATOM      1  C   UNL d   1     -39.601  14.430  19.383  0.00  0.00     0.128 C 
ENDROOT
BRANCH   1   2
ATOM      2  C   UNL d   1     -39.862  14.600  18.613  0.00  0.00     0.089 C 
BRANCH   2   3
ATOM      3  C   UNL d   1     -39.520  14.212  17.970  0.00  0.00     0.283 C 
ATOM      4  N   UNL d   1     -38.961  14.606  17.511  0.00  0.00    -0.183 NA
ATOM      5  O   UNL d   1     -39.737  13.437  17.790  0.00  0.00    -0.265 OA
BRANCH   4   6
ATOM      6  C   UNL d   1     -38.618  14.214  16.865  0.00  0.00     0.197 A 
ATOM      7  N   UNL d   1     -38.161  13.531  16.894  0.00  0.00    -0.219 NA
ATOM      8  C   UNL d   1     -37.940  13.340  16.130  0.00  0.00     0.108 A 
ATOM      9  C   UNL d   1     -38.263  13.909  15.623  0.00  0.00     0.059 A 
ATOM     10  S   UNL d   1     -38.683  14.450  16.076  0.00  0.00    -0.046 SA
ENDBRANCH   4   6
ENDBRANCH   2   3
ENDBRANCH   1   2
BRANCH   1  11
ATOM     11  O   UNL d   1     -40.038  14.930  19.870  0.00  0.00    -0.305 OA
BRANCH  11  12
ATOM     12  C   UNL d   1     -39.805  15.047  20.651  0.00  0.00     0.100 A 
ATOM     13  C   UNL d   1     -39.594  15.805  20.909  0.00  0.00     0.027 A 
ATOM     14  C   UNL d   1     -39.361  15.922  21.690  0.00  0.00     0.026 A 
ATOM     15  C   UNL d   1     -39.338  15.286  22.215  0.00  0.00     0.094 A 
ATOM     16  C   UNL d   1     -39.547  14.533  21.960  0.00  0.00     0.026 A 
ATOM     17  C   UNL d   1     -39.782  14.412  21.176  0.00  0.00     0.027 A 
BRANCH  15  18
ATOM     18  O   UNL d   1     -39.102  15.410  23.002  0.00  0.00    -0.328 OA
ATOM     19  C   UNL d   1     -38.453  15.006  23.309  0.00  0.00     0.181 C 
ENDBRANCH  15  18
ENDBRANCH  11  12
ENDBRANCH   1  11
TORSDOF 6
ENDMDL
