MODEL 1
REMARK VINA RESULT:     -10.2      0.000      0.000
REMARK  3 active torsions:
REMARK  status: ('A' for Active; 'I' for Inactive)
REMARK    1  A    between atoms: C_6  and  C_1 
REMARK    2  A    between atoms: O_10  and  C_6 
REMARK    3  A    between atoms: C_19  and  O_10 
ROOT
ATOM      1  C   UNL d   1     -48.059  13.746  22.924  0.00  0.00     0.081 A 
ATOM      2  C   UNL d   1     -47.519  12.429  23.277  0.00  0.00     0.056 A 
ATOM      3  C   UNL d   1     -46.766  12.707  23.163  0.00  0.00     0.080 A 
ATOM      4  C   UNL d   1     -47.305  14.023  22.809  0.00  0.00     0.086 A 
ATOM      5  C   UNL d   1     -48.173  12.922  23.165  0.00  0.00     0.013 A 
ATOM      6  N   UNL d   1     -46.619  13.495  22.930  0.00  0.00    -0.246 NA
ATOM      7  C   UNL d   1     -47.651  11.648  23.508  0.00  0.00     0.193 A 
ATOM      8  C   UNL d   1     -46.097  12.221  23.272  0.00  0.00    -0.003 A 
ATOM      9  C   UNL d   1     -46.242  11.428  23.506  0.00  0.00     0.042 A 
ATOM     10  C   UNL d   1     -46.996  11.150  23.621  0.00  0.00     0.019 A 
ATOM     11  O   UNL d   1     -48.405  11.370  23.622  0.00  0.00    -0.287 OA
ATOM     12  C   UNL d   1     -49.394  12.472  23.351  0.00  0.00     0.020 A 
ATOM     13  N   UNL d   1     -50.790  12.738  23.338  0.00  0.00    -0.242 NA
ATOM     14  C   UNL d   1     -47.158  14.812  22.576  0.00  0.00     0.021 C 
ATOM     15  C   UNL d   1     -50.025  13.021  23.222  0.00  0.00     0.099 A 
ATOM     16  C   UNL d   1     -45.494  11.146  23.553  0.00  0.00     0.009 C 
ATOM     17  C   UNL d   1     -45.950  10.715  23.698  0.00  0.00     0.009 C 
ATOM     18  C   UNL d   1     -50.889  11.921  23.578  0.00  0.00     0.099 A 
ATOM     19  C   UNL d   1     -49.484  11.700  23.577  0.00  0.00     0.003 A 
ATOM     20  C   UNL d   1     -50.250  11.418  23.693  0.00  0.00     0.021 A 
ENDROOT
BRANCH   1  21
ATOM     21  C   UNL d   1     -48.712  14.239  22.812  0.00  0.00     0.301 C 
ATOM     22  O   UNL d   1     -49.179  14.166  22.152  0.00  0.00    -0.259 OA
BRANCH  21  23
ATOM     23  O   UNL d   1     -48.879  14.808  23.386  0.00  0.00    -0.273 OA
BRANCH  23  24
ATOM     24  C   UNL d   1     -49.325  15.395  23.216  0.00  0.00     0.103 C 
ATOM     25  C   UNL d   1     -49.184  15.797  22.569  0.00  0.00     0.027 C 
ATOM     26  C   UNL d   1     -49.899  15.580  23.678  0.00  0.00     0.027 C 
ENDBRANCH  23  24
ENDBRANCH  21  23
ENDBRANCH   1  21
TORSDOF 3
ENDMDL
MODEL 2
REMARK VINA RESULT:      -9.7      1.186      2.620
REMARK  3 active torsions:
REMARK  status: ('A' for Active; 'I' for Inactive)
REMARK    1  A    between atoms: C_6  and  C_1 
REMARK    2  A    between atoms: O_10  and  C_6 
REMARK    3  A    between atoms: C_19  and  O_10 
ROOT
ATOM      1  C   UNL d   1     -48.923  12.486  23.245  0.00  0.00     0.081 A 
ATOM      2  C   UNL d   1     -47.480  12.230  23.283  0.00  0.00     0.056 A 
ATOM      3  C   UNL d   1     -47.623  11.459  23.493  0.00  0.00     0.080 A 
ATOM      4  C   UNL d   1     -49.066  11.716  23.455  0.00  0.00     0.086 A 
ATOM      5  C   UNL d   1     -48.105  12.754  23.155  0.00  0.00     0.013 A 
ATOM      6  N   UNL d   1     -48.399  11.166  23.589  0.00  0.00    -0.246 NA
ATOM      7  C   UNL d   1     -46.708  12.506  23.192  0.00  0.00     0.193 A 
ATOM      8  C   UNL d   1     -47.002  10.917  23.626  0.00  0.00    -0.003 A 
ATOM      9  C   UNL d   1     -46.221  11.210  23.530  0.00  0.00     0.042 A 
ATOM     10  C   UNL d   1     -46.079  11.980  23.320  0.00  0.00     0.019 A 
ATOM     11  O   UNL d   1     -46.566  13.277  22.981  0.00  0.00    -0.287 OA
ATOM     12  C   UNL d   1     -47.874  14.003  22.814  0.00  0.00     0.020 A 
ATOM     13  N   UNL d   1     -48.407  15.279  22.482  0.00  0.00    -0.242 NA
ATOM     14  C   UNL d   1     -49.842  11.422  23.550  0.00  0.00     0.021 C 
ATOM     15  C   UNL d   1     -48.551  14.496  22.696  0.00  0.00     0.099 A 
ATOM     16  C   UNL d   1     -45.794  10.554  23.698  0.00  0.00     0.009 C 
ATOM     17  C   UNL d   1     -45.440  11.071  23.551  0.00  0.00     0.009 C 
ATOM     18  C   UNL d   1     -47.591  15.531  22.397  0.00  0.00     0.099 A 
ATOM     19  C   UNL d   1     -47.105  14.239  22.734  0.00  0.00     0.003 A 
ATOM     20  C   UNL d   1     -46.960  15.022  22.521  0.00  0.00     0.021 A 
ENDROOT
BRANCH   1  21
ATOM     21  C   UNL d   1     -49.548  13.011  23.117  0.00  0.00     0.301 C 
ATOM     22  O   UNL d   1     -49.781  13.527  23.698  0.00  0.00    -0.259 OA
BRANCH  21  23
ATOM     23  O   UNL d   1     -49.930  12.999  22.384  0.00  0.00    -0.273 OA
BRANCH  23  24
ATOM     24  C   UNL d   1     -50.661  13.189  22.338  0.00  0.00     0.103 C 
ATOM     25  C   UNL d   1     -51.001  13.200  21.643  0.00  0.00     0.027 C 
ATOM     26  C   UNL d   1     -51.046  13.365  22.970  0.00  0.00     0.027 C 
ENDBRANCH  23  24
ENDBRANCH  21  23
ENDBRANCH   1  21
TORSDOF 3
ENDMDL
MODEL 3
REMARK VINA RESULT:      -7.8      1.294      2.828
REMARK  3 active torsions:
REMARK  status: ('A' for Active; 'I' for Inactive)
REMARK    1  A    between atoms: C_6  and  C_1 
REMARK    2  A    between atoms: O_10  and  C_6 
REMARK    3  A    between atoms: C_19  and  O_10 
ROOT
ATOM      1  C   UNL d   1     -48.493  12.617  22.904  0.00  0.00     0.081 A 
ATOM      2  C   UNL d   1     -47.220  13.290  22.631  0.00  0.00     0.056 A 
ATOM      3  C   UNL d   1     -46.838  12.575  22.648  0.00  0.00     0.080 A 
ATOM      4  C   UNL d   1     -48.111  11.902  22.921  0.00  0.00     0.086 A 
ATOM      5  C   UNL d   1     -48.035  13.336  22.755  0.00  0.00     0.013 A 
ATOM      6  N   UNL d   1     -47.247  11.861  22.789  0.00  0.00    -0.246 NA
ATOM      7  C   UNL d   1     -46.803  13.988  22.490  0.00  0.00     0.193 A 
ATOM      8  C   UNL d   1     -46.015  12.513  22.525  0.00  0.00    -0.003 A 
ATOM      9  C   UNL d   1     -45.601  13.229  22.383  0.00  0.00     0.042 A 
ATOM     10  C   UNL d   1     -45.983  13.945  22.366  0.00  0.00     0.019 A 
ATOM     11  O   UNL d   1     -47.185  14.704  22.474  0.00  0.00    -0.287 OA
ATOM     12  C   UNL d   1     -48.654  14.496  22.727  0.00  0.00     0.020 A 
ATOM     13  N   UNL d   1     -49.878  15.210  22.843  0.00  0.00    -0.242 NA
ATOM     14  C   UNL d   1     -48.520  11.187  23.062  0.00  0.00     0.021 C 
ATOM     15  C   UNL d   1     -49.490  14.484  22.860  0.00  0.00     0.099 A 
ATOM     16  C   UNL d   1     -44.853  12.955  22.295  0.00  0.00     0.009 C 
ATOM     17  C   UNL d   1     -44.911  13.594  22.235  0.00  0.00     0.009 C 
ATOM     18  C   UNL d   1     -49.412  15.915  22.694  0.00  0.00     0.099 A 
ATOM     19  C   UNL d   1     -48.213  15.159  22.587  0.00  0.00     0.003 A 
ATOM     20  C   UNL d   1     -48.601  15.886  22.569  0.00  0.00     0.021 A 
ENDROOT
BRANCH   1  21
ATOM     21  C   UNL d   1     -49.308  12.663  23.028  0.00  0.00     0.301 C 
ATOM     22  O   UNL d   1     -49.608  13.025  23.690  0.00  0.00    -0.259 OA
BRANCH  21  23
ATOM     23  O   UNL d   1     -49.812  12.332  22.463  0.00  0.00    -0.273 OA
BRANCH  23  24
ATOM     24  C   UNL d   1     -50.550  12.262  22.613  0.00  0.00     0.103 C 
ATOM     25  C   UNL d   1     -51.064  12.476  22.074  0.00  0.00     0.027 C 
ATOM     26  C   UNL d   1     -50.774  11.984  23.284  0.00  0.00     0.027 C 
ENDBRANCH  23  24
ENDBRANCH  21  23
ENDBRANCH   1  21
TORSDOF 3
ENDMDL
