MODEL 1
REMARK VINA RESULT:      -4.2      0.000      0.000
REMARK  8 active torsions:
REMARK  status: ('A' for Active; 'I' for Inactive)
REMARK    1  A    between atoms: N_5  and  C_1 
REMARK    2  A    between atoms: C_2  and  N_5 
REMARK    3  A    between atoms: N_3  and  C_2 
REMARK       I    between atoms: C_6  and  N_3 
REMARK    4  A    between atoms: C_13  and  C_6 
REMARK    5  A    between atoms: C_9  and  C_7 
REMARK    6  A    between atoms: C_11  and  C_9 
REMARK    7  A    between atoms: O_18  and  C_11 
REMARK    8  A    between atoms: C_22  and  O_18 
ROOT
ATOM      1  C   UNL d   1      57.215  -0.424  31.098  0.00  0.00     0.225 C 
ATOM      2  S   UNL d   1      57.519  -1.192  31.130  0.00  0.00    -0.037 SA
ENDROOT
BRANCH   1   3
ATOM      3  N   UNL d   1      57.232   0.029  30.412  0.00  0.00    -0.192 NA
BRANCH   3   4
ATOM      4  C   UNL d   1      57.896   0.008  29.946  0.00  0.00     0.196 A 
ATOM      5  N   UNL d   1      58.235  -0.533  29.432  0.00  0.00    -0.220 NA
ATOM      6  C   UNL d   1      58.903  -0.240  29.126  0.00  0.00     0.095 A 
ATOM      7  C   UNL d   1      59.041   0.501  29.416  0.00  0.00     0.058 A 
ATOM      8  S   UNL d   1      58.429   0.682  29.930  0.00  0.00    -0.046 SA
BRANCH   6   9
ATOM      9  C   UNL d   1      59.428  -0.646  28.555  0.00  0.00     0.088 C 
BRANCH   9  10
ATOM     10  C   UNL d   1      60.120  -0.986  28.804  0.00  0.00     0.302 C 
ATOM     11  O   UNL d   1      60.807  -0.539  28.872  0.00  0.00    -0.259 OA
BRANCH  10  12
ATOM     12  O   UNL d   1      60.138  -1.802  28.993  0.00  0.00    -0.271 OA
BRANCH  12  13
ATOM     13  C   UNL d   1      60.862  -2.211  29.003  0.00  0.00     0.126 C 
ATOM     14  C   UNL d   1      60.905  -2.973  29.287  0.00  0.00     0.029 C 
ENDBRANCH  12  13
ENDBRANCH  10  12
ENDBRANCH   9  10
ENDBRANCH   6   9
ENDBRANCH   3   4
ENDBRANCH   1   3
BRANCH   1  15
ATOM     15  N   UNL d   1      56.875  -0.094  31.794  0.00  0.00    -0.179 NA
ATOM     16  C   UNL d   1      56.444  -0.566  32.269  0.00  0.00     0.281 C 
ATOM     17  O   UNL d   1      56.328  -1.371  32.087  0.00  0.00    -0.265 OA
BRANCH  16  18
ATOM     18  C   UNL d   1      56.094  -0.247  32.977  0.00  0.00     0.058 A 
ATOM     19  C   UNL d   1      55.370  -0.533  33.249  0.00  0.00     0.005 A 
ATOM     20  C   UNL d   1      55.016  -0.246  33.920  0.00  0.00     0.000 A 
ATOM     21  C   UNL d   1      55.402   0.362  34.349  0.00  0.00     0.000 A 
ATOM     22  C   UNL d   1      56.117   0.645  34.081  0.00  0.00     0.000 A 
ATOM     23  C   UNL d   1      55.075   0.682  35.036  0.00  0.00     0.000 C 
ATOM     24  C   UNL d   1      56.485   0.358  33.397  0.00  0.00     0.005 A 
ENDBRANCH  16  18
ENDBRANCH   1  15
TORSDOF 8
ENDMDL
MODEL 2
REMARK VINA RESULT:      -3.3      1.331      5.436
REMARK  8 active torsions:
REMARK  status: ('A' for Active; 'I' for Inactive)
REMARK    1  A    between atoms: N_5  and  C_1 
REMARK    2  A    between atoms: C_2  and  N_5 
REMARK    3  A    between atoms: N_3  and  C_2 
REMARK       I    between atoms: C_6  and  N_3 
REMARK    4  A    between atoms: C_13  and  C_6 
REMARK    5  A    between atoms: C_9  and  C_7 
REMARK    6  A    between atoms: C_11  and  C_9 
REMARK    7  A    between atoms: O_18  and  C_11 
REMARK    8  A    between atoms: C_22  and  O_18 
ROOT
ATOM      1  C   UNL d   1      58.712  -0.095  29.448  0.00  0.00     0.225 C 
ATOM      2  S   UNL d   1      58.266   0.327  28.894  0.00  0.00    -0.037 SA
ENDROOT
BRANCH   1   3
ATOM      3  N   UNL d   1      59.079   0.269  30.087  0.00  0.00    -0.192 NA
BRANCH   3   4
ATOM      4  C   UNL d   1      58.647   0.406  30.760  0.00  0.00     0.196 A 
ATOM      5  N   UNL d   1      57.850   0.439  30.950  0.00  0.00    -0.220 NA
ATOM      6  C   UNL d   1      57.757   0.600  31.719  0.00  0.00     0.095 A 
ATOM      7  C   UNL d   1      58.478   0.681  32.076  0.00  0.00     0.058 A 
ATOM      8  S   UNL d   1      59.051   0.565  31.503  0.00  0.00    -0.046 SA
BRANCH   6   9
ATOM      9  C   UNL d   1      56.993   0.681  32.138  0.00  0.00     0.088 C 
BRANCH   9  10
ATOM     10  C   UNL d   1      56.733   0.096  32.635  0.00  0.00     0.302 C 
ATOM     11  O   UNL d   1      57.246  -0.263  33.167  0.00  0.00    -0.259 OA
BRANCH  10  12
ATOM     12  O   UNL d   1      55.931  -0.148  32.605  0.00  0.00    -0.271 OA
BRANCH  12  13
ATOM     13  C   UNL d   1      55.392   0.131  33.174  0.00  0.00     0.126 C 
ATOM     14  C   UNL d   1      54.906  -0.386  33.573  0.00  0.00     0.029 C 
ENDBRANCH  12  13
ENDBRANCH  10  12
ENDBRANCH   9  10
ENDBRANCH   6   9
ENDBRANCH   3   4
ENDBRANCH   1   3
BRANCH   1  15
ATOM     15  N   UNL d   1      58.793  -0.927  29.352  0.00  0.00    -0.179 NA
ATOM     16  C   UNL d   1      59.374  -1.202  28.882  0.00  0.00     0.281 C 
ATOM     17  O   UNL d   1      59.895  -0.683  28.490  0.00  0.00    -0.265 OA
BRANCH  16  18
ATOM     18  C   UNL d   1      59.469  -2.042  28.775  0.00  0.00     0.058 A 
ATOM     19  C   UNL d   1      58.810  -2.539  28.777  0.00  0.00     0.005 A 
ATOM     20  C   UNL d   1      58.874  -3.341  28.678  0.00  0.00     0.000 A 
ATOM     21  C   UNL d   1      59.635  -3.673  28.569  0.00  0.00     0.000 A 
ATOM     22  C   UNL d   1      60.285  -3.184  28.566  0.00  0.00     0.000 A 
ATOM     23  C   UNL d   1      59.743  -4.486  28.464  0.00  0.00     0.000 C 
ATOM     24  C   UNL d   1      60.230  -2.364  28.667  0.00  0.00     0.005 A 
ENDBRANCH  16  18
ENDBRANCH   1  15
TORSDOF 8
ENDMDL
MODEL 3
REMARK VINA RESULT:      -1.9      8.610     10.103
REMARK  8 active torsions:
REMARK  status: ('A' for Active; 'I' for Inactive)
REMARK    1  A    between atoms: N_5  and  C_1 
REMARK    2  A    between atoms: C_2  and  N_5 
REMARK    3  A    between atoms: N_3  and  C_2 
REMARK       I    between atoms: C_6  and  N_3 
REMARK    4  A    between atoms: C_13  and  C_6 
REMARK    5  A    between atoms: C_9  and  C_7 
REMARK    6  A    between atoms: C_11  and  C_9 
REMARK    7  A    between atoms: O_18  and  C_11 
REMARK    8  A    between atoms: C_22  and  O_18 
ROOT
ATOM      1  C   UNL d   1      59.220  -9.662  33.309  0.00  0.00     0.225 C 
ATOM      2  S   UNL d   1      58.605  -9.588  33.857  0.00  0.00    -0.037 SA
ENDROOT
BRANCH   1   3
ATOM      3  N   UNL d   1      60.008  -9.717  33.536  0.00  0.00    -0.192 NA
BRANCH   3   4
ATOM      4  C   UNL d   1      60.245  -9.357  34.223  0.00  0.00     0.196 A 
ATOM      5  N   UNL d   1      59.902  -8.848  34.767  0.00  0.00    -0.220 NA
ATOM      6  C   UNL d   1      60.415  -8.678  35.345  0.00  0.00     0.095 A 
ATOM      7  C   UNL d   1      61.116  -9.059  35.216  0.00  0.00     0.058 A 
ATOM      8  S   UNL d   1      61.039  -9.490  34.524  0.00  0.00    -0.046 SA
BRANCH   6   9
ATOM      9  C   UNL d   1      60.262  -8.155  36.030  0.00  0.00     0.088 C 
BRANCH   9  10
ATOM     10  C   UNL d   1      60.032  -7.386  35.916  0.00  0.00     0.302 C 
ATOM     11  O   UNL d   1      59.240  -7.172  35.971  0.00  0.00    -0.259 OA
BRANCH  10  12
ATOM     12  O   UNL d   1      60.607  -6.802  35.742  0.00  0.00    -0.271 OA
BRANCH  12  13
ATOM     13  C   UNL d   1      60.789  -6.217  36.305  0.00  0.00     0.126 C 
ATOM     14  C   UNL d   1      60.843  -5.434  36.087  0.00  0.00     0.029 C 
ENDBRANCH  12  13
ENDBRANCH  10  12
ENDBRANCH   9  10
ENDBRANCH   6   9
ENDBRANCH   3   4
ENDBRANCH   1   3
BRANCH   1  15
ATOM     15  N   UNL d   1      59.030  -9.681  32.489  0.00  0.00    -0.179 NA
ATOM     16  C   UNL d   1      58.265  -9.738  32.276  0.00  0.00     0.281 C 
ATOM     17  O   UNL d   1      57.660  -9.778  32.846  0.00  0.00    -0.265 OA
BRANCH  16  18
ATOM     18  C   UNL d   1      58.057  -9.758  31.450  0.00  0.00     0.058 A 
ATOM     19  C   UNL d   1      58.647  -9.788  30.873  0.00  0.00     0.005 A 
ATOM     20  C   UNL d   1      58.475  -9.809  30.081  0.00  0.00     0.000 A 
ATOM     21  C   UNL d   1      57.671  -9.799  29.843  0.00  0.00     0.000 A 
ATOM     22  C   UNL d   1      57.090  -9.769  30.412  0.00  0.00     0.000 A 
ATOM     23  C   UNL d   1      57.455  -9.818  29.046  0.00  0.00     0.000 C 
ATOM     24  C   UNL d   1      57.255  -9.748  31.223  0.00  0.00     0.005 A 
ENDBRANCH  16  18
ENDBRANCH   1  15
TORSDOF 8
ENDMDL
