MODEL 1
REMARK VINA RESULT:      68.3      0.000      0.000
REMARK  3 active torsions:
REMARK  status: ('A' for Active; 'I' for Inactive)
REMARK    1  A    between atoms: C_2  and  S_1 
REMARK    2  A    between atoms: N_3  and  S_1 
REMARK    3  A    between atoms: C_9  and  N_3 
ROOT
ATOM      1  S   UNL d   1     -51.073  26.246  33.582  0.00  0.00     0.285 S 
ATOM      2  O   UNL d   1     -51.800  26.510  33.851  0.00  0.00    -0.198 OA
ATOM      3  O   UNL d   1     -50.342  25.976  33.310  0.00  0.00    -0.198 OA
ENDROOT
BRANCH   1   4
ATOM      4  C   UNL d   1     -51.378  25.480  33.513  0.00  0.00     0.105 A 
ATOM      5  C   UNL d   1     -50.879  24.829  33.579  0.00  0.00     0.013 A 
ATOM      6  C   UNL d   1     -51.178  24.071  33.512  0.00  0.00     0.001 A 
ATOM      7  C   UNL d   1     -50.677  23.415  33.579  0.00  0.00     0.000 C 
ATOM      8  C   UNL d   1     -51.984  23.953  33.377  0.00  0.00     0.000 A 
ATOM      9  C   UNL d   1     -52.487  24.605  33.310  0.00  0.00     0.001 A 
ATOM     10  C   UNL d   1     -52.294  23.189  33.308  0.00  0.00     0.000 C 
ATOM     11  C   UNL d   1     -52.185  25.372  33.378  0.00  0.00     0.012 A 
ATOM     12  C   UNL d   1     -52.686  26.020  33.312  0.00  0.00     0.001 C 
ENDBRANCH   1   4
BRANCH   1  13
ATOM     13  N   UNL d   1     -50.766  27.011  33.649  0.00  0.00    -0.159 NA
BRANCH  13  14
ATOM     14  C   UNL d   1     -50.241  27.188  34.253  0.00  0.00     0.089 A 
ATOM     15  C   UNL d   1     -50.488  27.158  35.040  0.00  0.00     0.015 A 
ATOM     16  C   UNL d   1     -49.966  27.335  35.647  0.00  0.00     0.100 A 
ATOM     17  C   UNL d   1     -49.812  27.418  36.450  0.00  0.00     0.029 C 
ATOM     18  C   UNL d   1     -50.562  27.196  36.197  0.00  0.00     0.029 C 
ATOM     19  N   UNL d   1     -49.192  27.542  35.472  0.00  0.00    -0.295 NA
ATOM     20  C   UNL d   1     -48.938  27.574  34.690  0.00  0.00     0.100 A 
ATOM     21  C   UNL d   1     -49.461  27.397  34.083  0.00  0.00     0.015 A 
ATOM     22  C   UNL d   1     -48.344  27.712  34.135  0.00  0.00     0.029 C 
ATOM     23  C   UNL d   1     -48.184  27.798  34.945  0.00  0.00     0.029 C 
ENDBRANCH  13  14
ENDBRANCH   1  13
TORSDOF 3
ENDMDL
