MODEL 1
REMARK VINA RESULT:       2.2      0.000      0.000
REMARK  7 active torsions:
REMARK  status: ('A' for Active; 'I' for Inactive)
REMARK    1  A    between atoms: C_3  and  C_1 
REMARK    2  A    between atoms: N_5  and  C_2 
REMARK    3  A    between atoms: N_4  and  C_3 
REMARK    4  A    between atoms: C_10  and  C_3 
REMARK    5  A    between atoms: C_13  and  N_4 
REMARK       I    between atoms: C_6  and  N_5 
REMARK    6  A    between atoms: C_8  and  C_13 
REMARK    7  A    between atoms: O_16  and  C_8 
ROOT
ATOM      1  C   UNL d   1      58.403  -1.479  30.010  0.00  0.00     0.083 C 
ENDROOT
BRANCH   1   2
ATOM      2  C   UNL d   1      58.518  -0.759  29.623  0.00  0.00     0.036 A 
ATOM      3  C   UNL d   1      59.248  -0.401  29.612  0.00  0.00     0.086 A 
ATOM      4  C   UNL d   1      59.363   0.318  29.225  0.00  0.00     0.020 A 
ATOM      5  C   UNL d   1      58.750   0.679  28.848  0.00  0.00     0.008 A 
ATOM      6  C   UNL d   1      57.984   0.317  28.851  0.00  0.00     0.035 A 
ATOM      7  C   UNL d   1      57.887  -0.402  29.243  0.00  0.00     0.010 A 
ATOM      8 BR   UNL d   1      57.335   0.682  28.463  0.00  0.00    -0.049 Br
BRANCH   3   9
ATOM      9  N   UNL d   1      59.895  -0.775  30.005  0.00  0.00    -0.208 NA
ATOM     10  C   UNL d   1      60.516  -0.315  30.304  0.00  0.00     0.279 C 
ATOM     11  O   UNL d   1      61.133  -0.672  30.679  0.00  0.00    -0.265 OA
ATOM     12  C   UNL d   1      60.515   0.499  30.226  0.00  0.00     0.068 C 
ENDBRANCH   3   9
ENDBRANCH   1   2
BRANCH   1  13
ATOM     13  N   UNL d   1      58.136  -1.508  30.780  0.00  0.00    -0.238 NA
BRANCH  13  14
ATOM     14  C   UNL d   1      57.374  -1.221  30.939  0.00  0.00     0.167 C 
BRANCH  14  15
ATOM     15  C   UNL d   1      57.118  -1.207  31.741  0.00  0.00     0.315 C 
ATOM     16  O   UNL d   1      57.665  -0.949  32.334  0.00  0.00    -0.257 OA
BRANCH  15  17
ATOM     17  O   UNL d   1      56.355  -1.437  31.953  0.00  0.00    -0.295 OA
ATOM     18  C   UNL d   1      55.992  -1.094  32.577  0.00  0.00     0.185 C 
ENDBRANCH  15  17
ENDBRANCH  14  15
ENDBRANCH  13  14
ENDBRANCH   1  13
BRANCH   1  19
ATOM     19  C   UNL d   1      58.558  -2.181  29.614  0.00  0.00     0.018 A 
ATOM     20  C   UNL d   1      59.257  -2.598  29.749  0.00  0.00     0.002 A 
ATOM     21  C   UNL d   1      59.429  -3.297  29.366  0.00  0.00     0.000 A 
ATOM     22  C   UNL d   1      58.855  -3.598  28.807  0.00  0.00     0.000 A 
ATOM     23  C   UNL d   1      58.154  -3.187  28.667  0.00  0.00     0.000 A 
ATOM     24  C   UNL d   1      58.004  -2.481  29.068  0.00  0.00     0.002 A 
ENDBRANCH   1  19
TORSDOF 7
ENDMDL
MODEL 2
REMARK VINA RESULT:       4.3      1.461      1.881
REMARK  7 active torsions:
REMARK  status: ('A' for Active; 'I' for Inactive)
REMARK    1  A    between atoms: C_3  and  C_1 
REMARK    2  A    between atoms: N_5  and  C_2 
REMARK    3  A    between atoms: N_4  and  C_3 
REMARK    4  A    between atoms: C_10  and  C_3 
REMARK    5  A    between atoms: C_13  and  N_4 
REMARK       I    between atoms: C_6  and  N_5 
REMARK    6  A    between atoms: C_8  and  C_13 
REMARK    7  A    between atoms: O_16  and  C_8 
ROOT
ATOM      1  C   UNL d   1      58.461  -1.536  30.096  0.00  0.00     0.083 C 
ENDROOT
BRANCH   1   2
ATOM      2  C   UNL d   1      59.041  -0.953  30.156  0.00  0.00     0.036 A 
ATOM      3  C   UNL d   1      58.913  -0.203  29.871  0.00  0.00     0.086 A 
ATOM      4  C   UNL d   1      59.494   0.381  29.932  0.00  0.00     0.020 A 
ATOM      5  C   UNL d   1      60.201   0.214  30.278  0.00  0.00     0.008 A 
ATOM      6  C   UNL d   1      60.349  -0.564  30.579  0.00  0.00     0.035 A 
ATOM      7  C   UNL d   1      59.757  -1.135  30.510  0.00  0.00     0.010 A 
ATOM      8 BR   UNL d   1      61.082  -0.752  30.942  0.00  0.00    -0.049 Br
BRANCH   3   9
ATOM      9  N   UNL d   1      58.173  -0.022  29.508  0.00  0.00    -0.208 NA
ATOM     10  C   UNL d   1      58.156   0.418  28.806  0.00  0.00     0.279 C 
ATOM     11  O   UNL d   1      57.449   0.590  28.459  0.00  0.00    -0.265 OA
ATOM     12  C   UNL d   1      58.845   0.682  28.455  0.00  0.00     0.068 C 
ENDBRANCH   3   9
ENDBRANCH   1   2
BRANCH   1  13
ATOM     13  N   UNL d   1      57.741  -1.459  30.470  0.00  0.00    -0.238 NA
BRANCH  13  14
ATOM     14  C   UNL d   1      57.737  -1.181  31.252  0.00  0.00     0.167 C 
BRANCH  14  15
ATOM     15  C   UNL d   1      56.993  -1.099  31.636  0.00  0.00     0.315 C 
ATOM     16  O   UNL d   1      56.461  -0.500  31.362  0.00  0.00    -0.257 OA
BRANCH  15  17
ATOM     17  O   UNL d   1      56.777  -1.585  32.267  0.00  0.00    -0.295 OA
ATOM     18  C   UNL d   1      56.236  -1.336  32.799  0.00  0.00     0.185 C 
ENDBRANCH  15  17
ENDBRANCH  14  15
ENDBRANCH  13  14
ENDBRANCH   1  13
BRANCH   1  19
ATOM     19  C   UNL d   1      58.609  -2.210  29.650  0.00  0.00     0.018 A 
ATOM     20  C   UNL d   1      59.208  -2.736  29.863  0.00  0.00     0.002 A 
ATOM     21  C   UNL d   1      59.370  -3.410  29.434  0.00  0.00     0.000 A 
ATOM     22  C   UNL d   1      58.894  -3.565  28.739  0.00  0.00     0.000 A 
ATOM     23  C   UNL d   1      58.293  -3.044  28.520  0.00  0.00     0.000 A 
ATOM     24  C   UNL d   1      58.150  -2.369  28.972  0.00  0.00     0.002 A 
ENDBRANCH   1  19
TORSDOF 7
ENDMDL
MODEL 3
REMARK VINA RESULT:       5.1      1.269      2.599
REMARK  7 active torsions:
REMARK  status: ('A' for Active; 'I' for Inactive)
REMARK    1  A    between atoms: C_3  and  C_1 
REMARK    2  A    between atoms: N_5  and  C_2 
REMARK    3  A    between atoms: N_4  and  C_3 
REMARK    4  A    between atoms: C_10  and  C_3 
REMARK    5  A    between atoms: C_13  and  N_4 
REMARK       I    between atoms: C_6  and  N_5 
REMARK    6  A    between atoms: C_8  and  C_13 
REMARK    7  A    between atoms: O_16  and  C_8 
ROOT
ATOM      1  C   UNL d   1      58.576  -0.304  30.858  0.00  0.00     0.083 C 
ENDROOT
BRANCH   1   2
ATOM      2  C   UNL d   1      58.384  -0.417  30.064  0.00  0.00     0.036 A 
ATOM      3  C   UNL d   1      58.587  -1.102  29.675  0.00  0.00     0.086 A 
ATOM      4  C   UNL d   1      58.395  -1.214  28.881  0.00  0.00     0.020 A 
ATOM      5  C   UNL d   1      58.000  -0.642  28.475  0.00  0.00     0.008 A 
ATOM      6  C   UNL d   1      57.782   0.077  28.866  0.00  0.00     0.035 A 
ATOM      7  C   UNL d   1      57.982   0.172  29.661  0.00  0.00     0.010 A 
ATOM      8 BR   UNL d   1      57.370   0.682  28.455  0.00  0.00    -0.049 Br
BRANCH   3   9
ATOM      9  N   UNL d   1      59.002  -1.705  30.097  0.00  0.00    -0.208 NA
ATOM     10  C   UNL d   1      59.190  -2.417  29.716  0.00  0.00     0.279 C 
ATOM     11  O   UNL d   1      59.585  -2.992  30.119  0.00  0.00    -0.265 OA
ATOM     12  C   UNL d   1      58.981  -2.548  28.937  0.00  0.00     0.068 C 
ENDBRANCH   3   9
ENDBRANCH   1   2
BRANCH   1  13
ATOM     13  N   UNL d   1      58.056  -0.504  31.452  0.00  0.00    -0.238 NA
BRANCH  13  14
ATOM     14  C   UNL d   1      57.393  -0.016  31.569  0.00  0.00     0.167 C 
BRANCH  14  15
ATOM     15  C   UNL d   1      57.023  -0.030  32.325  0.00  0.00     0.315 C 
ATOM     16  O   UNL d   1      56.974  -0.768  32.737  0.00  0.00    -0.257 OA
BRANCH  15  17
ATOM     17  O   UNL d   1      56.713   0.654  32.665  0.00  0.00    -0.295 OA
ATOM     18  C   UNL d   1      56.267   0.607  33.326  0.00  0.00     0.185 C 
ENDBRANCH  15  17
ENDBRANCH  14  15
ENDBRANCH  13  14
ENDBRANCH   1  13
BRANCH   1  19
ATOM     19  C   UNL d   1      59.306   0.015  31.057  0.00  0.00     0.018 A 
ATOM     20  C   UNL d   1      59.914   0.061  30.501  0.00  0.00     0.002 A 
ATOM     21  C   UNL d   1      60.645   0.375  30.679  0.00  0.00     0.000 A 
ATOM     22  C   UNL d   1      60.774   0.662  31.476  0.00  0.00     0.000 A 
ATOM     23  C   UNL d   1      60.170   0.618  32.037  0.00  0.00     0.000 A 
ATOM     24  C   UNL d   1      59.439   0.296  31.830  0.00  0.00     0.002 A 
ENDBRANCH   1  19
TORSDOF 7
ENDMDL
