MODEL 1
REMARK VINA RESULT:      -5.7      0.000      0.000
REMARK  2 active torsions:
REMARK  status: ('A' for Active; 'I' for Inactive)
REMARK    1  A    between atoms: C_6  and  C_1 
REMARK    2  A    between atoms: N_8  and  C_6 
ROOT
ATOM      1  C   UNL d   1     -41.130-122.560 -50.722  0.00  0.00     0.090 C 
ENDROOT
BRANCH   1   2
ATOM      2  C   UNL d   1     -41.228-122.406 -51.529  0.00  0.00     0.133 A 
ATOM      3  C   UNL d   1     -41.329-123.038 -52.051  0.00  0.00     0.289 A 
ATOM      4  N   UNL d   1     -41.427-122.893 -52.858  0.00  0.00    -0.151 NA
ATOM      5  O   UNL d   1     -41.333-123.817 -51.774  0.00  0.00    -0.265 OA
ATOM      6  C   UNL d   1     -41.423-122.114 -53.136  0.00  0.00     0.374 A 
ATOM      7  N   UNL d   1     -41.322-121.483 -52.614  0.00  0.00    -0.151 NA
ATOM      8  O   UNL d   1     -41.521-121.969 -53.943  0.00  0.00    -0.242 OA
ATOM      9  C   UNL d   1     -41.223-121.636 -51.798  0.00  0.00     0.289 A 
ATOM     10  O   UNL d   1     -41.123-121.014 -51.278  0.00  0.00    -0.265 OA
ENDBRANCH   1   2
BRANCH   1  11
ATOM     11  N   UNL d   1     -41.789-122.628 -50.233  0.00  0.00    -0.304 N 
ATOM     12  C   UNL d   1     -41.796-122.932 -49.461  0.00  0.00     0.064 A 
ATOM     13  C   UNL d   1     -42.570-122.893 -49.185  0.00  0.00     0.018 A 
ATOM     14  C   UNL d   1     -41.199-123.234 -48.985  0.00  0.00     0.018 A 
ATOM     15  C   UNL d   1     -42.749-123.161 -48.421  0.00  0.00     0.002 A 
ATOM     16  C   UNL d   1     -43.043-122.571 -49.772  0.00  0.00     0.021 A 
ATOM     17  C   UNL d   1     -42.148-123.464 -47.946  0.00  0.00     0.000 A 
ATOM     18  C   UNL d   1     -41.373-123.500 -48.229  0.00  0.00     0.002 A 
ATOM     19  C   UNL d   1     -42.567-122.403 -50.425  0.00  0.00     0.080 A 
ENDBRANCH   1  11
TORSDOF 2
ENDMDL
MODEL 2
REMARK VINA RESULT:      -4.5      1.510      4.199
REMARK  2 active torsions:
REMARK  status: ('A' for Active; 'I' for Inactive)
REMARK    1  A    between atoms: C_6  and  C_1 
REMARK    2  A    between atoms: N_8  and  C_6 
ROOT
ATOM      1  C   UNL d   1     -41.222-122.334 -52.898  0.00  0.00     0.090 C 
ENDROOT
BRANCH   1   2
ATOM      2  C   UNL d   1     -41.410-122.433 -52.099  0.00  0.00     0.133 A 
ATOM      3  C   UNL d   1     -41.648-123.176 -51.830  0.00  0.00     0.289 A 
ATOM      4  N   UNL d   1     -41.837-123.283 -51.033  0.00  0.00    -0.151 NA
ATOM      5  O   UNL d   1     -41.698-123.817 -52.350  0.00  0.00    -0.265 OA
ATOM      6  C   UNL d   1     -41.787-122.643 -50.512  0.00  0.00     0.374 A 
ATOM      7  N   UNL d   1     -41.549-121.900 -50.782  0.00  0.00    -0.151 NA
ATOM      8  O   UNL d   1     -41.977-122.750 -49.716  0.00  0.00    -0.242 OA
ATOM      9  C   UNL d   1     -41.359-121.799 -51.589  0.00  0.00     0.289 A 
ATOM     10  O   UNL d   1     -41.123-121.064 -51.861  0.00  0.00    -0.265 OA
ENDBRANCH   1   2
BRANCH   1  11
ATOM     11  N   UNL d   1     -41.810-122.135 -53.439  0.00  0.00    -0.304 N 
ATOM     12  C   UNL d   1     -41.747-122.169 -54.266  0.00  0.00     0.064 A 
ATOM     13  C   UNL d   1     -42.465-121.921 -54.581  0.00  0.00     0.018 A 
ATOM     14  C   UNL d   1     -41.131-122.393 -54.760  0.00  0.00     0.018 A 
ATOM     15  C   UNL d   1     -42.569-121.896 -55.403  0.00  0.00     0.002 A 
ATOM     16  C   UNL d   1     -42.972-121.733 -53.965  0.00  0.00     0.021 A 
ATOM     17  C   UNL d   1     -41.949-122.122 -55.896  0.00  0.00     0.000 A 
ATOM     18  C   UNL d   1     -41.230-122.370 -55.574  0.00  0.00     0.002 A 
ATOM     19  C   UNL d   1     -42.575-121.863 -53.254  0.00  0.00     0.080 A 
ENDBRANCH   1  11
TORSDOF 2
ENDMDL
MODEL 3
REMARK VINA RESULT:      -4.2      1.167      2.034
REMARK  2 active torsions:
REMARK  status: ('A' for Active; 'I' for Inactive)
REMARK    1  A    between atoms: C_6  and  C_1 
REMARK    2  A    between atoms: N_8  and  C_6 
ROOT
ATOM      1  C   UNL d   1     -41.230-122.629 -52.495  0.00  0.00     0.090 C 
ENDROOT
BRANCH   1   2
ATOM      2  C   UNL d   1     -41.566-122.450 -53.228  0.00  0.00     0.133 A 
ATOM      3  C   UNL d   1     -41.543-121.672 -53.503  0.00  0.00     0.289 A 
ATOM      4  N   UNL d   1     -41.876-121.484 -54.235  0.00  0.00    -0.151 NA
ATOM      5  O   UNL d   1     -41.189-121.075 -53.053  0.00  0.00    -0.265 OA
ATOM      6  C   UNL d   1     -42.230-122.079 -54.687  0.00  0.00     0.374 A 
ATOM      7  N   UNL d   1     -42.253-122.857 -54.412  0.00  0.00    -0.151 NA
ATOM      8  O   UNL d   1     -42.563-121.892 -55.419  0.00  0.00    -0.242 OA
ATOM      9  C   UNL d   1     -41.914-123.040 -53.670  0.00  0.00     0.289 A 
ATOM     10  O   UNL d   1     -41.934-123.810 -53.394  0.00  0.00    -0.265 OA
ENDBRANCH   1   2
BRANCH   1  11
ATOM     11  N   UNL d   1     -41.640-122.460 -51.801  0.00  0.00    -0.304 N 
ATOM     12  C   UNL d   1     -41.579-122.871 -51.083  0.00  0.00     0.064 A 
ATOM     13  C   UNL d   1     -42.087-122.511 -50.545  0.00  0.00     0.018 A 
ATOM     14  C   UNL d   1     -41.129-123.521 -50.860  0.00  0.00     0.018 A 
ATOM     15  C   UNL d   1     -42.145-122.805 -49.772  0.00  0.00     0.002 A 
ATOM     16  C   UNL d   1     -42.462-121.884 -50.916  0.00  0.00     0.021 A 
ATOM     17  C   UNL d   1     -41.692-123.456 -49.551  0.00  0.00     0.000 A 
ATOM     18  C   UNL d   1     -41.184-123.814 -50.096  0.00  0.00     0.002 A 
ATOM     19  C   UNL d   1     -42.191-121.844 -51.695  0.00  0.00     0.080 A 
ENDBRANCH   1  11
TORSDOF 2
ENDMDL
MODEL 4
REMARK VINA RESULT:      -3.7      1.757      3.830
REMARK  2 active torsions:
REMARK  status: ('A' for Active; 'I' for Inactive)
REMARK    1  A    between atoms: C_6  and  C_1 
REMARK    2  A    between atoms: N_8  and  C_6 
ROOT
ATOM      1  C   UNL d   1     -42.175-122.330 -50.049  0.00  0.00     0.090 C 
ENDROOT
BRANCH   1   2
ATOM      2  C   UNL d   1     -42.405-122.702 -49.347  0.00  0.00     0.133 A 
ATOM      3  C   UNL d   1     -43.169-123.008 -49.285  0.00  0.00     0.289 A 
ATOM      4  N   UNL d   1     -43.408-123.381 -48.588  0.00  0.00    -0.151 NA
ATOM      5  O   UNL d   1     -43.701-122.947 -49.916  0.00  0.00    -0.265 OA
ATOM      6  C   UNL d   1     -42.877-123.443 -47.957  0.00  0.00     0.374 A 
ATOM      7  N   UNL d   1     -42.113-123.136 -48.019  0.00  0.00    -0.151 NA
ATOM      8  O   UNL d   1     -43.116-123.815 -47.259  0.00  0.00    -0.242 OA
ATOM      9  C   UNL d   1     -41.878-122.761 -48.727  0.00  0.00     0.289 A 
ATOM     10  O   UNL d   1     -41.123-122.455 -48.793  0.00  0.00    -0.265 OA
ENDBRANCH   1   2
BRANCH   1  11
ATOM     11  N   UNL d   1     -41.856-122.774 -50.665  0.00  0.00    -0.304 N 
ATOM     12  C   UNL d   1     -41.664-122.494 -51.422  0.00  0.00     0.064 A 
ATOM     13  C   UNL d   1     -41.364-123.127 -51.853  0.00  0.00     0.018 A 
ATOM     14  C   UNL d   1     -41.727-121.751 -51.764  0.00  0.00     0.018 A 
ATOM     15  C   UNL d   1     -41.123-123.014 -52.638  0.00  0.00     0.002 A 
ATOM     16  C   UNL d   1     -41.365-123.795 -51.377  0.00  0.00     0.021 A 
ATOM     17  C   UNL d   1     -41.187-122.267 -52.978  0.00  0.00     0.000 A 
ATOM     18  C   UNL d   1     -41.490-121.636 -52.540  0.00  0.00     0.002 A 
ATOM     19  C   UNL d   1     -41.669-123.585 -50.639  0.00  0.00     0.080 A 
ENDBRANCH   1  11
TORSDOF 2
ENDMDL
