MODEL 1
REMARK VINA RESULT:      38.8      0.000      0.000
REMARK  5 active torsions:
REMARK  status: ('A' for Active; 'I' for Inactive)
REMARK    1  A    between atoms: C_6  and  N_2 
REMARK    2  A    between atoms: C_8  and  C_6 
REMARK    3  A    between atoms: C_13  and  C_8 
REMARK    4  A    between atoms: C_9  and  O_12 
REMARK    5  A    between atoms: O_12  and  C_13 
ROOT
ATOM      1  N   UNL d   1     -52.074  26.136  33.307  0.00  0.00    -0.227 NA
ATOM      2  N   UNL d   1     -50.738  26.205  33.316  0.00  0.00    -0.289 N 
ATOM      3  C   UNL d   1     -51.432  26.674  33.310  0.00  0.00     0.148 A 
ATOM      4  C   UNL d   1     -50.948  25.414  33.316  0.00  0.00     0.083 A 
ATOM      5  C   UNL d   1     -51.812  25.369  33.310  0.00  0.00     0.099 A 
ATOM      6  C   UNL d   1     -51.475  27.506  33.308  0.00  0.00     0.041 C 
ATOM      7  C   UNL d   1     -50.493  24.739  33.321  0.00  0.00     0.019 A 
ATOM      8  C   UNL d   1     -52.134  24.600  33.310  0.00  0.00     0.021 A 
ATOM      9  C   UNL d   1     -50.876  24.025  33.320  0.00  0.00     0.002 A 
ATOM     10  C   UNL d   1     -51.683  23.983  33.314  0.00  0.00     0.002 A 
ENDROOT
BRANCH   2  11
ATOM     11  C   UNL d   1     -50.061  26.629  33.320  0.00  0.00     0.084 C 
BRANCH  11  12
ATOM     12  C   UNL d   1     -49.836  27.104  33.955  0.00  0.00     0.046 C 
BRANCH  12  13
ATOM     13  C   UNL d   1     -49.142  27.536  33.972  0.00  0.00     0.124 C 
BRANCH  13  14
ATOM     14  O   UNL d   1     -48.655  27.574  34.626  0.00  0.00    -0.305 OA
BRANCH  14  15
ATOM     15  C   UNL d   1     -48.384  28.282  34.951  0.00  0.00     0.100 A 
ATOM     16  C   UNL d   1     -48.094  28.871  34.429  0.00  0.00     0.025 A 
ATOM     17  C   UNL d   1     -47.814  29.599  34.736  0.00  0.00     0.002 A 
ATOM     18  C   UNL d   1     -47.822  29.739  35.561  0.00  0.00     0.000 A 
ATOM     19  C   UNL d   1     -48.112  29.150  36.082  0.00  0.00     0.002 A 
ATOM     20  C   UNL d   1     -48.382  28.444  35.759  0.00  0.00     0.025 A 
ENDBRANCH  14  15
ENDBRANCH  13  14
ENDBRANCH  12  13
ENDBRANCH  11  12
ENDBRANCH   2  11
TORSDOF 5
ENDMDL
MODEL 2
REMARK VINA RESULT:      39.0      1.159      2.075
REMARK  5 active torsions:
REMARK  status: ('A' for Active; 'I' for Inactive)
REMARK    1  A    between atoms: C_6  and  N_2 
REMARK    2  A    between atoms: C_8  and  C_6 
REMARK    3  A    between atoms: C_13  and  C_8 
REMARK    4  A    between atoms: C_9  and  O_12 
REMARK    5  A    between atoms: O_12  and  C_13 
ROOT
ATOM      1  N   UNL d   1     -51.344  23.221  33.343  0.00  0.00    -0.227 NA
ATOM      2  N   UNL d   1     -51.111  24.538  33.320  0.00  0.00    -0.289 N 
ATOM      3  C   UNL d   1     -50.731  23.792  33.335  0.00  0.00     0.148 A 
ATOM      4  C   UNL d   1     -51.922  24.428  33.318  0.00  0.00     0.083 A 
ATOM      5  C   UNL d   1     -52.073  23.576  33.333  0.00  0.00     0.099 A 
ATOM      6  C   UNL d   1     -49.911  23.647  33.342  0.00  0.00     0.041 C 
ATOM      7  C   UNL d   1     -52.536  24.962  33.306  0.00  0.00     0.019 A 
ATOM      8  C   UNL d   1     -52.876  23.351  33.333  0.00  0.00     0.021 A 
ATOM      9  C   UNL d   1     -53.291  24.670  33.307  0.00  0.00     0.002 A 
ATOM     10  C   UNL d   1     -53.432  23.875  33.321  0.00  0.00     0.002 A 
ENDROOT
BRANCH   2  11
ATOM     11  C   UNL d   1     -50.606  25.158  33.311  0.00  0.00     0.084 C 
BRANCH  11  12
ATOM     12  C   UNL d   1     -50.857  25.938  33.401  0.00  0.00     0.046 C 
BRANCH  12  13
ATOM     13  C   UNL d   1     -50.344  26.573  33.459  0.00  0.00     0.124 C 
BRANCH  13  14
ATOM     14  O   UNL d   1     -49.904  26.732  34.129  0.00  0.00    -0.305 OA
BRANCH  14  15
ATOM     15  C   UNL d   1     -49.565  27.468  34.284  0.00  0.00     0.100 A 
ATOM     16  C   UNL d   1     -49.791  28.117  33.806  0.00  0.00     0.025 A 
ATOM     17  C   UNL d   1     -49.459  28.875  33.945  0.00  0.00     0.002 A 
ATOM     18  C   UNL d   1     -48.903  28.983  34.560  0.00  0.00     0.000 A 
ATOM     19  C   UNL d   1     -48.677  28.334  35.039  0.00  0.00     0.002 A 
ATOM     20  C   UNL d   1     -49.015  27.600  34.885  0.00  0.00     0.025 A 
ENDBRANCH  14  15
ENDBRANCH  13  14
ENDBRANCH  12  13
ENDBRANCH  11  12
ENDBRANCH   2  11
TORSDOF 5
ENDMDL
