MODEL 1
REMARK VINA RESULT:      -6.2      0.000      0.000
REMARK  6 active torsions:
REMARK  status: ('A' for Active; 'I' for Inactive)
REMARK    1  A    between atoms: C_18  and  N_1 
REMARK    2  A    between atoms: S_7  and  C_2 
REMARK    3  A    between atoms: C_20  and  S_7 
REMARK    4  A    between atoms: C_10  and  C_20 
REMARK       I    between atoms: N_13  and  C_10 
REMARK    5  A    between atoms: C_16  and  N_13 
REMARK    6  A    between atoms: C_21  and  C_18 
ROOT
ATOM      1  N   UNL d   1     -39.579  14.768  17.650  0.00  0.00    -0.253 N 
ATOM      2  C   UNL d   1     -39.589  14.625  18.514  0.00  0.00     0.182 A 
ATOM      3  C   UNL d   1     -39.169  14.273  17.170  0.00  0.00     0.268 A 
ATOM      4  N   UNL d   1     -39.189  14.005  18.799  0.00  0.00    -0.222 NA
ATOM      5  C   UNL d   1     -38.765  13.642  17.481  0.00  0.00     0.074 A 
ATOM      6  C   UNL d   1     -38.772  13.500  18.311  0.00  0.00     0.088 A 
ATOM      7  O   UNL d   1     -39.180  14.442  16.328  0.00  0.00    -0.267 OA
ATOM      8  C   UNL d   1     -38.347  13.138  16.983  0.00  0.00     0.006 A 
ATOM      9  C   UNL d   1     -38.360  12.859  18.610  0.00  0.00     0.019 A 
ATOM     10  C   UNL d   1     -37.943  12.507  17.289  0.00  0.00     0.000 A 
ATOM     11  C   UNL d   1     -37.941  12.356  18.107  0.00  0.00     0.002 A 
ENDROOT
BRANCH   2  12
ATOM     12  S   UNL d   1     -40.012  15.133  19.027  0.00  0.00    -0.044 SA
BRANCH  12  13
ATOM     13  C   UNL d   1     -39.928  15.075  19.882  0.00  0.00     0.101 C 
BRANCH  13  14
ATOM     14  C   UNL d   1     -40.487  15.447  20.369  0.00  0.00     0.286 C 
ATOM     15  N   UNL d   1     -40.401  15.458  21.175  0.00  0.00    -0.207 NA
ATOM     16  O   UNL d   1     -41.143  15.813  20.024  0.00  0.00    -0.265 OA
BRANCH  15  17
ATOM     17  C   UNL d   1     -39.738  15.089  21.533  0.00  0.00     0.087 A 
ATOM     18  C   UNL d   1     -39.864  14.371  21.930  0.00  0.00     0.045 A 
ATOM     19  C   UNL d   1     -39.220  13.992  22.289  0.00  0.00     0.121 A 
ATOM     20  O   UNL d   1     -39.168  13.287  22.716  0.00  0.00    -0.299 OA
ATOM     21  C   UNL d   1     -38.478  14.329  22.247  0.00  0.00     0.119 A 
ATOM     22  C   UNL d   1     -38.369  13.210  22.930  0.00  0.00     0.304 A 
ATOM     23  O   UNL d   1     -37.940  13.822  22.659  0.00  0.00    -0.300 OA
ATOM     24  C   UNL d   1     -38.359  15.051  21.846  0.00  0.00     0.028 A 
ATOM     25  C   UNL d   1     -39.000  15.423  21.491  0.00  0.00     0.021 A 
ENDBRANCH  15  17
ENDBRANCH  13  14
ENDBRANCH  12  13
ENDBRANCH   2  12
BRANCH   1  26
ATOM     26  C   UNL d   1     -39.990  15.419  17.293  0.00  0.00     0.085 C 
BRANCH  26  27
ATOM     27  C   UNL d   1     -40.756  15.322  16.994  0.00  0.00     0.019 C 
ATOM     28  C   UNL d   1     -41.084  15.890  16.520  0.00  0.00     0.002 C 
ENDBRANCH  26  27
ENDBRANCH   1  26
TORSDOF 6
ENDMDL
MODEL 2
REMARK VINA RESULT:      -4.8      6.831      8.214
REMARK  6 active torsions:
REMARK  status: ('A' for Active; 'I' for Inactive)
REMARK    1  A    between atoms: C_18  and  N_1 
REMARK    2  A    between atoms: S_7  and  C_2 
REMARK    3  A    between atoms: C_20  and  S_7 
REMARK    4  A    between atoms: C_10  and  C_20 
REMARK       I    between atoms: N_13  and  C_10 
REMARK    5  A    between atoms: C_16  and  N_13 
REMARK    6  A    between atoms: C_21  and  C_18 
ROOT
ATOM      1  N   UNL d   1     -44.097  12.549  22.068  0.00  0.00    -0.253 N 
ATOM      2  C   UNL d   1     -44.906  12.640  22.391  0.00  0.00     0.182 A 
ATOM      3  C   UNL d   1     -43.670  11.895  22.249  0.00  0.00     0.268 A 
ATOM      4  N   UNL d   1     -45.195  12.068  22.855  0.00  0.00    -0.222 NA
ATOM      5  C   UNL d   1     -43.982  11.319  22.726  0.00  0.00     0.074 A 
ATOM      6  C   UNL d   1     -44.759  11.401  23.038  0.00  0.00     0.088 A 
ATOM      7  O   UNL d   1     -42.879  11.838  21.916  0.00  0.00    -0.267 OA
ATOM      8  C   UNL d   1     -43.537  10.650  22.907  0.00  0.00     0.006 A 
ATOM      9  C   UNL d   1     -45.062  10.812  23.519  0.00  0.00     0.019 A 
ATOM     10  C   UNL d   1     -43.846  10.074  23.383  0.00  0.00     0.000 A 
ATOM     11  C   UNL d   1     -44.613  10.143  23.698  0.00  0.00     0.002 A 
ENDROOT
BRANCH   2  12
ATOM     12  S   UNL d   1     -45.365  13.317  22.211  0.00  0.00    -0.044 SA
BRANCH  12  13
ATOM     13  C   UNL d   1     -46.202  13.356  22.412  0.00  0.00     0.101 C 
BRANCH  13  14
ATOM     14  C   UNL d   1     -46.551  14.096  22.544  0.00  0.00     0.286 C 
ATOM     15  N   UNL d   1     -47.357  14.178  22.586  0.00  0.00    -0.207 NA
ATOM     16  O   UNL d   1     -46.068  14.760  22.635  0.00  0.00    -0.265 OA
BRANCH  15  17
ATOM     17  C   UNL d   1     -47.854  13.508  22.495  0.00  0.00     0.087 A 
ATOM     18  C   UNL d   1     -48.168  13.166  23.182  0.00  0.00     0.045 A 
ATOM     19  C   UNL d   1     -48.661  12.503  23.112  0.00  0.00     0.121 A 
ATOM     20  O   UNL d   1     -49.051  12.048  23.679  0.00  0.00    -0.299 OA
ATOM     21  C   UNL d   1     -48.829  12.201  22.373  0.00  0.00     0.119 A 
ATOM     22  C   UNL d   1     -49.459  11.460  23.258  0.00  0.00     0.304 A 
ATOM     23  O   UNL d   1     -49.340  11.534  22.475  0.00  0.00    -0.300 OA
ATOM     24  C   UNL d   1     -48.509  12.551  21.686  0.00  0.00     0.028 A 
ATOM     25  C   UNL d   1     -48.021  13.208  21.761  0.00  0.00     0.021 A 
ENDBRANCH  15  17
ENDBRANCH  13  14
ENDBRANCH  12  13
ENDBRANCH   2  12
BRANCH   1  26
ATOM     26  C   UNL d   1     -43.741  13.133  21.566  0.00  0.00     0.085 C 
BRANCH  26  27
ATOM     27  C   UNL d   1     -42.918  13.193  21.504  0.00  0.00     0.019 C 
ATOM     28  C   UNL d   1     -42.583  13.722  20.993  0.00  0.00     0.002 C 
ENDBRANCH  26  27
ENDBRANCH   1  26
TORSDOF 6
ENDMDL
MODEL 3
REMARK VINA RESULT:      -4.5      8.787     10.346
REMARK  6 active torsions:
REMARK  status: ('A' for Active; 'I' for Inactive)
REMARK    1  A    between atoms: C_18  and  N_1 
REMARK    2  A    between atoms: S_7  and  C_2 
REMARK    3  A    between atoms: C_20  and  S_7 
REMARK    4  A    between atoms: C_10  and  C_20 
REMARK       I    between atoms: N_13  and  C_10 
REMARK    5  A    between atoms: C_16  and  N_13 
REMARK    6  A    between atoms: C_21  and  C_18 
ROOT
ATOM      1  N   UNL d   1     -50.097  13.170  22.417  0.00  0.00    -0.253 N 
ATOM      2  C   UNL d   1     -49.489  13.134  23.047  0.00  0.00     0.182 A 
ATOM      3  C   UNL d   1     -50.462  13.866  22.258  0.00  0.00     0.268 A 
ATOM      4  N   UNL d   1     -49.317  13.795  23.445  0.00  0.00    -0.222 NA
ATOM      5  C   UNL d   1     -50.273  14.534  22.677  0.00  0.00     0.074 A 
ATOM      6  C   UNL d   1     -49.690  14.505  23.283  0.00  0.00     0.088 A 
ATOM      7  O   UNL d   1     -51.054  13.866  21.634  0.00  0.00    -0.267 OA
ATOM      8  C   UNL d   1     -50.653  15.244  22.509  0.00  0.00     0.006 A 
ATOM      9  C   UNL d   1     -49.509  15.187  23.698  0.00  0.00     0.019 A 
ATOM     10  C   UNL d   1     -50.467  15.913  22.924  0.00  0.00     0.000 A 
ATOM     11  C   UNL d   1     -49.892  15.897  23.526  0.00  0.00     0.002 A 
ENDROOT
BRANCH   2  12
ATOM     12  S   UNL d   1     -49.098  12.415  23.223  0.00  0.00    -0.044 SA
BRANCH  12  13
ATOM     13  C   UNL d   1     -48.244  12.386  23.332  0.00  0.00     0.101 C 
BRANCH  13  14
ATOM     14  C   UNL d   1     -47.881  11.656  23.485  0.00  0.00     0.286 C 
ATOM     15  N   UNL d   1     -47.077  11.567  23.429  0.00  0.00    -0.207 NA
ATOM     16  O   UNL d   1     -48.349  11.010  23.698  0.00  0.00    -0.265 OA
BRANCH  15  17
ATOM     17  C   UNL d   1     -46.595  12.220  23.213  0.00  0.00     0.087 A 
ATOM     18  C   UNL d   1     -46.099  12.130  22.553  0.00  0.00     0.045 A 
ATOM     19  C   UNL d   1     -45.616  12.764  22.325  0.00  0.00     0.121 A 
ATOM     20  O   UNL d   1     -45.075  12.845  21.707  0.00  0.00    -0.299 OA
ATOM     21  C   UNL d   1     -45.636  13.460  22.750  0.00  0.00     0.119 A 
ATOM     22  C   UNL d   1     -44.768  13.615  21.773  0.00  0.00     0.304 A 
ATOM     23  O   UNL d   1     -45.091  13.999  22.391  0.00  0.00    -0.300 OA
ATOM     24  C   UNL d   1     -46.136  13.543  23.412  0.00  0.00     0.028 A 
ATOM     25  C   UNL d   1     -46.614  12.911  23.635  0.00  0.00     0.021 A 
ENDBRANCH  15  17
ENDBRANCH  13  14
ENDBRANCH  12  13
ENDBRANCH   2  12
BRANCH   1  26
ATOM     26  C   UNL d   1     -50.318  12.490  21.960  0.00  0.00     0.085 C 
BRANCH  26  27
ATOM     27  C   UNL d   1     -50.207  12.476  21.141  0.00  0.00     0.019 C 
ATOM     28  C   UNL d   1     -50.376  11.808  20.716  0.00  0.00     0.002 C 
ENDBRANCH  26  27
ENDBRANCH   1  26
TORSDOF 6
ENDMDL
MODEL 4
REMARK VINA RESULT:      -4.2      1.349      1.878
REMARK  6 active torsions:
REMARK  status: ('A' for Active; 'I' for Inactive)
REMARK    1  A    between atoms: C_18  and  N_1 
REMARK    2  A    between atoms: S_7  and  C_2 
REMARK    3  A    between atoms: C_20  and  S_7 
REMARK    4  A    between atoms: C_10  and  C_20 
REMARK       I    between atoms: N_13  and  C_10 
REMARK    5  A    between atoms: C_16  and  N_13 
REMARK    6  A    between atoms: C_21  and  C_18 
ROOT
ATOM      1  N   UNL d   1     -39.126  14.614  17.626  0.00  0.00    -0.253 N 
ATOM      2  C   UNL d   1     -38.867  14.550  18.460  0.00  0.00     0.182 A 
ATOM      3  C   UNL d   1     -39.011  13.996  17.127  0.00  0.00     0.268 A 
ATOM      4  N   UNL d   1     -38.524  13.879  18.700  0.00  0.00    -0.222 NA
ATOM      5  C   UNL d   1     -38.658  13.315  17.391  0.00  0.00     0.074 A 
ATOM      6  C   UNL d   1     -38.407  13.249  18.192  0.00  0.00     0.088 A 
ATOM      7  O   UNL d   1     -39.277  14.091  16.315  0.00  0.00    -0.267 OA
ATOM      8  C   UNL d   1     -38.544  12.685  16.874  0.00  0.00     0.006 A 
ATOM      9  C   UNL d   1     -38.052  12.557  18.445  0.00  0.00     0.019 A 
ATOM     10  C   UNL d   1     -38.192  12.005  17.134  0.00  0.00     0.000 A 
ATOM     11  C   UNL d   1     -37.940  11.927  17.923  0.00  0.00     0.002 A 
ENDROOT
BRANCH   2  12
ATOM     12  S   UNL d   1     -38.980  15.186  18.992  0.00  0.00    -0.044 SA
BRANCH  12  13
ATOM     13  C   UNL d   1     -39.427  15.084  19.722  0.00  0.00     0.101 C 
BRANCH  13  14
ATOM     14  C   UNL d   1     -39.217  15.530  20.389  0.00  0.00     0.286 C 
ATOM     15  N   UNL d   1     -39.713  15.587  21.028  0.00  0.00    -0.207 NA
ATOM     16  O   UNL d   1     -38.490  15.921  20.401  0.00  0.00    -0.265 OA
BRANCH  15  17
ATOM     17  C   UNL d   1     -40.453  15.192  21.024  0.00  0.00     0.087 A 
ATOM     18  C   UNL d   1     -40.481  14.422  21.333  0.00  0.00     0.045 A 
ATOM     19  C   UNL d   1     -41.204  14.017  21.336  0.00  0.00     0.121 A 
ATOM     20  O   UNL d   1     -41.407  13.262  21.600  0.00  0.00    -0.299 OA
ATOM     21  C   UNL d   1     -41.872  14.379  21.038  0.00  0.00     0.119 A 
ATOM     22  C   UNL d   1     -42.220  13.179  21.451  0.00  0.00     0.304 A 
ATOM     23  O   UNL d   1     -42.517  13.836  21.115  0.00  0.00    -0.300 OA
ATOM     24  C   UNL d   1     -41.836  15.153  20.729  0.00  0.00     0.028 A 
ATOM     25  C   UNL d   1     -41.117  15.551  20.728  0.00  0.00     0.021 A 
ENDBRANCH  15  17
ENDBRANCH  13  14
ENDBRANCH  12  13
ENDBRANCH   2  12
BRANCH   1  26
ATOM     26  C   UNL d   1     -39.498  15.311  17.318  0.00  0.00     0.085 C 
BRANCH  26  27
ATOM     27  C   UNL d   1     -40.188  15.257  16.865  0.00  0.00     0.019 C 
ATOM     28  C   UNL d   1     -40.613  15.922  16.685  0.00  0.00     0.002 C 
ENDBRANCH  26  27
ENDBRANCH   1  26
TORSDOF 6
ENDMDL
MODEL 5
REMARK VINA RESULT:      -4.2      7.326      8.956
REMARK  6 active torsions:
REMARK  status: ('A' for Active; 'I' for Inactive)
REMARK    1  A    between atoms: C_18  and  N_1 
REMARK    2  A    between atoms: S_7  and  C_2 
REMARK    3  A    between atoms: C_20  and  S_7 
REMARK    4  A    between atoms: C_10  and  C_20 
REMARK       I    between atoms: N_13  and  C_10 
REMARK    5  A    between atoms: C_16  and  N_13 
REMARK    6  A    between atoms: C_21  and  C_18 
ROOT
ATOM      1  N   UNL d   1     -44.947  11.371  23.144  0.00  0.00    -0.253 N 
ATOM      2  C   UNL d   1     -45.683  11.836  23.053  0.00  0.00     0.182 A 
ATOM      3  C   UNL d   1     -44.276  11.615  22.777  0.00  0.00     0.268 A 
ATOM      4  N   UNL d   1     -45.666  12.489  22.607  0.00  0.00    -0.222 NA
ATOM      5  C   UNL d   1     -44.277  12.287  22.324  0.00  0.00     0.074 A 
ATOM      6  C   UNL d   1     -44.983  12.737  22.233  0.00  0.00     0.088 A 
ATOM      7  O   UNL d   1     -43.571  11.135  22.887  0.00  0.00    -0.267 OA
ATOM      8  C   UNL d   1     -43.585  12.531  21.950  0.00  0.00     0.006 A 
ATOM      9  C   UNL d   1     -44.969  13.414  21.773  0.00  0.00     0.019 A 
ATOM     10  C   UNL d   1     -43.583  13.201  21.498  0.00  0.00     0.000 A 
ATOM     11  C   UNL d   1     -44.273  13.655  21.400  0.00  0.00     0.002 A 
ENDROOT
BRANCH   2  12
ATOM     12  S   UNL d   1     -46.390  11.595  23.429  0.00  0.00    -0.044 SA
BRANCH  12  13
ATOM     13  C   UNL d   1     -47.162  11.824  23.121  0.00  0.00     0.101 C 
BRANCH  13  14
ATOM     14  C   UNL d   1     -47.830  11.381  23.333  0.00  0.00     0.286 C 
ATOM     15  N   UNL d   1     -48.579  11.656  23.188  0.00  0.00    -0.207 NA
ATOM     16  O   UNL d   1     -47.727  10.647  23.698  0.00  0.00    -0.265 OA
BRANCH  15  17
ATOM     17  C   UNL d   1     -48.691  12.400  22.818  0.00  0.00     0.087 A 
ATOM     18  C   UNL d   1     -48.671  13.076  23.299  0.00  0.00     0.045 A 
ATOM     19  C   UNL d   1     -48.780  13.820  22.950  0.00  0.00     0.121 A 
ATOM     20  O   UNL d   1     -48.790  14.580  23.273  0.00  0.00    -0.299 OA
ATOM     21  C   UNL d   1     -48.902  13.876  22.146  0.00  0.00     0.119 A 
ATOM     22  C   UNL d   1     -48.923  15.096  22.636  0.00  0.00     0.304 A 
ATOM     23  O   UNL d   1     -48.993  14.695  21.953  0.00  0.00    -0.300 OA
ATOM     24  C   UNL d   1     -48.921  13.192  21.669  0.00  0.00     0.028 A 
ATOM     25  C   UNL d   1     -48.813  12.456  22.019  0.00  0.00     0.021 A 
ENDBRANCH  15  17
ENDBRANCH  13  14
ENDBRANCH  12  13
ENDBRANCH   2  12
BRANCH   1  26
ATOM     26  C   UNL d   1     -44.912  10.663  23.610  0.00  0.00     0.085 C 
BRANCH  26  27
ATOM     27  C   UNL d   1     -44.387  10.053  23.416  0.00  0.00     0.019 C 
ATOM     28  C   UNL d   1     -44.508   9.305  23.696  0.00  0.00     0.002 C 
ENDBRANCH  26  27
ENDBRANCH   1  26
TORSDOF 6
ENDMDL
