MODEL 1
REMARK VINA RESULT:       0.3      0.000      0.000
REMARK  3 active torsions:
REMARK  status: ('A' for Active; 'I' for Inactive)
REMARK    1  A    between atoms: N_2  and  S_1 
REMARK    2  A    between atoms: C_3  and  S_1 
REMARK    3  A    between atoms: C_10  and  C_9 
ROOT
ATOM      1  C   UNL d   1     -41.770-122.420 -50.413  0.00  0.00     0.104 A 
ATOM      2  C   UNL d   1     -41.622-122.618 -52.049  0.00  0.00     0.000 A 
ATOM      3  C   UNL d   1     -42.014-121.824 -50.924  0.00  0.00     0.013 A 
ATOM      4  C   UNL d   1     -41.449-123.120 -50.717  0.00  0.00     0.013 A 
ATOM      5  C   UNL d   1     -41.375-123.219 -51.536  0.00  0.00     0.001 A 
ATOM      6  C   UNL d   1     -41.940-121.923 -51.744  0.00  0.00     0.001 A 
ENDROOT
BRANCH   1   7
ATOM      7  S   UNL d   1     -41.846-122.314 -49.599  0.00  0.00     0.271 S 
ATOM      8  O   UNL d   1     -41.124-121.937 -49.572  0.00  0.00    -0.200 OA
ATOM      9  O   UNL d   1     -41.930-122.213 -48.789  0.00  0.00    -0.200 OA
BRANCH   7  10
ATOM     10  N   UNL d   1     -42.578-122.695 -49.618  0.00  0.00    -0.226 N 
ATOM     11  C   UNL d   1     -43.222-122.318 -49.983  0.00  0.00     0.111 A 
ATOM     12  C   UNL d   1     -43.954-122.698 -50.002  0.00  0.00     0.100 A 
ATOM     13  N   UNL d   1     -44.036-123.440 -49.661  0.00  0.00    -0.299 N 
ATOM     14  C   UNL d   1     -43.403-123.814 -49.301  0.00  0.00     0.100 A 
ATOM     15  C   UNL d   1     -44.778-123.817 -49.685  0.00  0.00     0.100 C 
ATOM     16  C   UNL d   1     -42.670-123.438 -49.280  0.00  0.00     0.111 A 
ENDBRANCH   7  10
ENDBRANCH   1   7
BRANCH   2  17
ATOM     17  C   UNL d   1     -41.551-122.709 -52.862  0.00  0.00     0.000 A 
ATOM     18  C   UNL d   1     -41.215-123.389 -53.180  0.00  0.00     0.001 A 
ATOM     19  C   UNL d   1     -41.148-123.473 -53.998  0.00  0.00     0.011 A 
ATOM     20  C   UNL d   1     -41.417-122.877 -54.498  0.00  0.00     0.058 A 
ATOM     21  C   UNL d   1     -41.758-122.188 -54.172  0.00  0.00     0.011 A 
ATOM     22 CL   UNL d   1     -41.351-122.960 -55.307  0.00  0.00    -0.082 Cl
ATOM     23  C   UNL d   1     -41.821-122.112 -53.361  0.00  0.00     0.001 A 
ENDBRANCH   2  17
TORSDOF 3
ENDMDL
MODEL 2
REMARK VINA RESULT:       1.0      0.815      1.253
REMARK  3 active torsions:
REMARK  status: ('A' for Active; 'I' for Inactive)
REMARK    1  A    between atoms: N_2  and  S_1 
REMARK    2  A    between atoms: C_3  and  S_1 
REMARK    3  A    between atoms: C_10  and  C_9 
ROOT
ATOM      1  C   UNL d   1     -41.589-121.652 -51.362  0.00  0.00     0.104 A 
ATOM      2  C   UNL d   1     -41.582-122.270 -52.897  0.00  0.00     0.000 A 
ATOM      3  C   UNL d   1     -42.042-121.299 -51.951  0.00  0.00     0.013 A 
ATOM      4  C   UNL d   1     -41.129-122.317 -51.537  0.00  0.00     0.013 A 
ATOM      5  C   UNL d   1     -41.125-122.626 -52.306  0.00  0.00     0.001 A 
ATOM      6  C   UNL d   1     -42.039-121.609 -52.720  0.00  0.00     0.001 A 
ENDROOT
BRANCH   1   7
ATOM      7  S   UNL d   1     -41.598-121.338 -50.600  0.00  0.00     0.271 S 
ATOM      8  O   UNL d   1     -41.123-120.720 -50.840  0.00  0.00    -0.200 OA
ATOM      9  O   UNL d   1     -41.611-121.032 -49.838  0.00  0.00    -0.200 OA
BRANCH   7  10
ATOM     10  N   UNL d   1     -42.078-121.961 -50.348  0.00  0.00    -0.226 N 
ATOM     11  C   UNL d   1     -42.901-121.898 -50.436  0.00  0.00     0.111 A 
ATOM     12  C   UNL d   1     -43.382-122.520 -50.185  0.00  0.00     0.100 A 
ATOM     13  N   UNL d   1     -43.042-123.189 -49.853  0.00  0.00    -0.299 N 
ATOM     14  C   UNL d   1     -42.230-123.253 -49.765  0.00  0.00     0.100 A 
ATOM     15  C   UNL d   1     -43.533-123.812 -49.601  0.00  0.00     0.100 C 
ATOM     16  C   UNL d   1     -41.746-122.634 -50.015  0.00  0.00     0.111 A 
ENDBRANCH   7  10
ENDBRANCH   1   7
BRANCH   2  17
ATOM     17  C   UNL d   1     -41.584-122.571 -53.661  0.00  0.00     0.000 A 
ATOM     18  C   UNL d   1     -41.897-122.133 -54.283  0.00  0.00     0.001 A 
ATOM     19  C   UNL d   1     -41.895-122.443 -55.048  0.00  0.00     0.011 A 
ATOM     20  C   UNL d   1     -41.580-123.189 -55.191  0.00  0.00     0.058 A 
ATOM     21  C   UNL d   1     -41.262-123.631 -54.557  0.00  0.00     0.011 A 
ATOM     22 CL   UNL d   1     -41.578-123.495 -55.947  0.00  0.00    -0.082 Cl
ATOM     23  C   UNL d   1     -41.267-123.318 -53.802  0.00  0.00     0.001 A 
ENDBRANCH   2  17
TORSDOF 3
ENDMDL
MODEL 3
REMARK VINA RESULT:       3.0      2.767      4.330
REMARK  3 active torsions:
REMARK  status: ('A' for Active; 'I' for Inactive)
REMARK    1  A    between atoms: N_2  and  S_1 
REMARK    2  A    between atoms: C_3  and  S_1 
REMARK    3  A    between atoms: C_10  and  C_9 
ROOT
ATOM      1  C   UNL d   1     -41.951-121.387 -52.963  0.00  0.00     0.104 A 
ATOM      2  C   UNL d   1     -41.827-122.191 -51.522  0.00  0.00     0.000 A 
ATOM      3  C   UNL d   1     -41.318-121.236 -52.459  0.00  0.00     0.013 A 
ATOM      4  C   UNL d   1     -42.527-121.941 -52.748  0.00  0.00     0.013 A 
ATOM      5  C   UNL d   1     -42.465-122.344 -52.026  0.00  0.00     0.001 A 
ATOM      6  C   UNL d   1     -41.255-121.639 -51.737  0.00  0.00     0.001 A 
ENDROOT
BRANCH   1   7
ATOM      7  S   UNL d   1     -42.006-120.982 -53.678  0.00  0.00     0.271 S 
ATOM      8  O   UNL d   1     -42.098-120.275 -53.281  0.00  0.00    -0.200 OA
ATOM      9  O   UNL d   1     -42.060-120.586 -54.395  0.00  0.00    -0.200 OA
BRANCH   7  10
ATOM     10  N   UNL d   1     -41.915-121.692 -54.088  0.00  0.00    -0.226 N 
ATOM     11  C   UNL d   1     -42.545-121.979 -54.547  0.00  0.00     0.111 A 
ATOM     12  C   UNL d   1     -42.454-122.689 -54.957  0.00  0.00     0.100 A 
ATOM     13  N   UNL d   1     -41.745-123.101 -54.906  0.00  0.00    -0.299 N 
ATOM     14  C   UNL d   1     -41.123-122.820 -54.454  0.00  0.00     0.100 A 
ATOM     15  C   UNL d   1     -41.661-123.817 -55.323  0.00  0.00     0.100 C 
ATOM     16  C   UNL d   1     -41.210-122.111 -54.043  0.00  0.00     0.111 A 
ENDBRANCH   7  10
ENDBRANCH   1   7
BRANCH   2  17
ATOM     17  C   UNL d   1     -41.758-122.587 -50.805  0.00  0.00     0.000 A 
ATOM     18  C   UNL d   1     -42.232-122.379 -50.166  0.00  0.00     0.001 A 
ATOM     19  C   UNL d   1     -42.157-122.781 -49.449  0.00  0.00     0.011 A 
ATOM     20  C   UNL d   1     -41.609-123.390 -49.372  0.00  0.00     0.058 A 
ATOM     21  C   UNL d   1     -41.130-123.598 -50.023  0.00  0.00     0.011 A 
ATOM     22 CL   UNL d   1     -41.535-123.788 -48.663  0.00  0.00    -0.082 Cl
ATOM     23  C   UNL d   1     -41.210-123.196 -50.730  0.00  0.00     0.001 A 
ENDBRANCH   2  17
TORSDOF 3
ENDMDL
