MODEL 1
REMARK VINA RESULT:      42.7      0.000      0.000
REMARK  5 active torsions:
REMARK  status: ('A' for Active; 'I' for Inactive)
REMARK    1  A    between atoms: S_5  and  C_2 
REMARK    2  A    between atoms: C_16  and  S_5 
REMARK    3  A    between atoms: N_13  and  C_10 
REMARK    4  A    between atoms: C_23  and  N_13 
REMARK    5  A    between atoms: C_18  and  C_23 
ROOT
ATOM      1  C   UNL d   1      46.240 -19.009  42.428  0.00  0.00     0.198 A 
ATOM      2  C   UNL d   1      46.167 -19.183  41.628  0.00  0.00     0.227 A 
ATOM      3  N   UNL d   1      46.364 -19.716  42.833  0.00  0.00    -0.192 N 
ATOM      4  N   UNL d   1      46.208 -18.296  42.843  0.00  0.00    -0.205 NA
ATOM      5  N   UNL d   1      46.245 -19.993  41.533  0.00  0.00    -0.115 NA
ATOM      6  N   UNL d   1      46.367 -20.329  42.277  0.00  0.00    -0.058 NA
ATOM      7  C   UNL d   1      46.457 -19.710  43.650  0.00  0.00     0.096 A 
ATOM      8  C   UNL d   1      46.426 -18.997  44.064  0.00  0.00     0.083 A 
ATOM      9  C   UNL d   1      46.302 -18.289  43.667  0.00  0.00     0.172 A 
ATOM     10  S   UNL d   1      46.537 -19.159  44.876  0.00  0.00    -0.082 SA
ATOM     11  C   UNL d   1      46.587 -20.326  44.198  0.00  0.00     0.027 A 
ATOM     12  C   UNL d   1      46.636 -19.982  44.955  0.00  0.00     0.037 A 
ENDROOT
BRANCH   2  13
ATOM     13  S   UNL d   1      46.036 -18.633  41.018  0.00  0.00     0.231 S 
ATOM     14  O   UNL d   1      45.425 -18.270  41.449  0.00  0.00    -0.215 OA
ATOM     15  O   UNL d   1      46.647 -18.998  40.594  0.00  0.00    -0.215 OA
BRANCH  13  16
ATOM     16  C   UNL d   1      45.936 -18.102  40.391  0.00  0.00     0.090 A 
ATOM     17  C   UNL d   1      46.541 -17.590  40.174  0.00  0.00     0.011 A 
ATOM     18  C   UNL d   1      46.441 -17.062  39.550  0.00  0.00     0.001 A 
ATOM     19  C   UNL d   1      45.724 -17.044  39.136  0.00  0.00     0.000 A 
ATOM     20  C   UNL d   1      45.105 -17.564  39.356  0.00  0.00     0.001 A 
ATOM     21  C   UNL d   1      45.217 -18.093  39.987  0.00  0.00     0.011 A 
ENDBRANCH  13  16
ENDBRANCH   2  13
BRANCH   9  22
ATOM     22  N   UNL d   1      46.271 -17.569  44.085  0.00  0.00    -0.223 NA
BRANCH  22  23
ATOM     23  C   UNL d   1      45.933 -16.903  43.736  0.00  0.00     0.125 C 
BRANCH  23  24
ATOM     24  C   UNL d   1      45.793 -16.226  44.187  0.00  0.00     0.119 A 
ATOM     25  O   UNL d   1      46.363 -15.744  44.532  0.00  0.00    -0.304 OA
ATOM     26  C   UNL d   1      45.975 -15.130  44.932  0.00  0.00     0.123 A 
ATOM     27  C   UNL d   1      45.162 -15.234  44.834  0.00  0.00     0.029 A 
ATOM     28  C   UNL d   1      45.050 -15.911  44.374  0.00  0.00     0.028 A 
ENDBRANCH  23  24
ENDBRANCH  22  23
ENDBRANCH   9  22
TORSDOF 5
ENDMDL
