MODEL 1
REMARK VINA RESULT:      62.6      0.000      0.000
REMARK  4 active torsions:
REMARK  status: ('A' for Active; 'I' for Inactive)
REMARK    1  A    between atoms: C_9  and  N_2 
REMARK    2  A    between atoms: C_6  and  C_3 
REMARK    3  A    between atoms: C_8  and  C_4 
REMARK    4  A    between atoms: O_18  and  C_15 
ROOT
ATOM      1  N   UNL d   1     -58.276 -99.021 -45.991  0.00  0.00    -0.165 NA
ATOM      2  N   UNL d   1     -58.148 -99.053 -45.150  0.00  0.00    -0.230 N 
ATOM      3  C   UNL d   1     -59.086 -98.989 -46.129  0.00  0.00     0.109 A 
ATOM      4  C   UNL d   1     -58.916 -99.039 -44.805  0.00  0.00     0.084 A 
ATOM      5  C   UNL d   1     -59.483 -99.000 -45.403  0.00  0.00     0.041 A 
ENDROOT
BRANCH   4   6
ATOM      6  C   UNL d   1     -59.086 -99.060 -44.001  0.00  0.00     0.018 A 
ATOM      7  C   UNL d   1     -58.511 -98.768 -43.486  0.00  0.00     0.004 A 
ATOM      8  C   UNL d   1     -58.655 -98.778 -42.684  0.00  0.00     0.024 A 
ATOM      9  C   UNL d   1     -59.361 -99.074 -42.392  0.00  0.00     0.094 A 
ATOM     10  C   UNL d   1     -59.936 -99.366 -42.906  0.00  0.00     0.024 A 
ATOM     11  C   UNL d   1     -59.791 -99.357 -43.716  0.00  0.00     0.004 A 
BRANCH   9  12
ATOM     12  O   UNL d   1     -59.538 -99.097 -41.556  0.00  0.00    -0.328 OA
ATOM     13  C   UNL d   1     -59.401 -99.825 -41.120  0.00  0.00     0.181 C 
ENDBRANCH   9  12
ENDBRANCH   4   6
BRANCH   2  14
ATOM     14  C   UNL d   1     -57.477 -99.091 -44.679  0.00  0.00     0.083 A 
ATOM     15  C   UNL d   1     -56.724 -99.283 -44.990  0.00  0.00     0.019 A 
ATOM     16  C   UNL d   1     -56.062 -99.314 -44.489  0.00  0.00     0.002 A 
ATOM     17  C   UNL d   1     -56.131 -99.162 -43.698  0.00  0.00     0.000 A 
ATOM     18  C   UNL d   1     -56.880 -98.971 -43.386  0.00  0.00     0.002 A 
ATOM     19  C   UNL d   1     -57.555 -98.936 -43.877  0.00  0.00     0.019 A 
ENDBRANCH   2  14
BRANCH   3  20
ATOM     20  C   UNL d   1     -59.097 -98.961 -46.959  0.00  0.00     0.049 A 
ATOM     21  S   UNL d   1     -58.645 -99.021 -47.641  0.00  0.00    -0.085 SA
ATOM     22  C   UNL d   1     -59.140 -98.911 -48.284  0.00  0.00     0.035 A 
ATOM     23  C   UNL d   1     -59.888 -98.785 -48.015  0.00  0.00     0.007 A 
ATOM     24  C   UNL d   1     -59.893 -98.810 -47.195  0.00  0.00     0.009 A 
ENDBRANCH   3  20
TORSDOF 4
ENDMDL
MODEL 2
REMARK VINA RESULT:      63.7      4.568      6.151
REMARK  4 active torsions:
REMARK  status: ('A' for Active; 'I' for Inactive)
REMARK    1  A    between atoms: C_9  and  N_2 
REMARK    2  A    between atoms: C_6  and  C_3 
REMARK    3  A    between atoms: C_8  and  C_4 
REMARK    4  A    between atoms: O_18  and  C_15 
ROOT
ATOM      1  N   UNL d   1     -54.920-101.231 -42.058  0.00  0.00    -0.165 NA
ATOM      2  N   UNL d   1     -54.963-101.094 -42.898  0.00  0.00    -0.230 N 
ATOM      3  C   UNL d   1     -54.960-102.041 -41.925  0.00  0.00     0.109 A 
ATOM      4  C   UNL d   1     -55.030-101.858 -43.247  0.00  0.00     0.084 A 
ATOM      5  C   UNL d   1     -55.027-102.430 -42.653  0.00  0.00     0.041 A 
ENDROOT
BRANCH   4   6
ATOM      6  C   UNL d   1     -55.088-102.019 -44.051  0.00  0.00     0.018 A 
ATOM      7  C   UNL d   1     -54.712-102.698 -44.328  0.00  0.00     0.004 A 
ATOM      8  C   UNL d   1     -54.755-102.880 -45.122  0.00  0.00     0.024 A 
ATOM      9  C   UNL d   1     -55.167-102.395 -45.637  0.00  0.00     0.094 A 
ATOM     10  C   UNL d   1     -55.544-101.715 -45.360  0.00  0.00     0.024 A 
ATOM     11  C   UNL d   1     -55.501-101.531 -44.560  0.00  0.00     0.004 A 
BRANCH   9  12
ATOM     12  O   UNL d   1     -55.229-102.561 -46.473  0.00  0.00    -0.328 OA
ATOM     13  C   UNL d   1     -56.006-102.688 -46.817  0.00  0.00     0.181 C 
ENDBRANCH   9  12
ENDBRANCH   4   6
BRANCH   2  14
ATOM     14  C   UNL d   1     -54.951-100.420 -43.365  0.00  0.00     0.083 A 
ATOM     15  C   UNL d   1     -54.725 -99.673 -43.063  0.00  0.00     0.019 A 
ATOM     16  C   UNL d   1     -54.722 -99.006 -43.559  0.00  0.00     0.002 A 
ATOM     17  C   UNL d   1     -54.937 -99.065 -44.336  0.00  0.00     0.000 A 
ATOM     18  C   UNL d   1     -55.162 -99.808 -44.640  0.00  0.00     0.002 A 
ATOM     19  C   UNL d   1     -55.169-100.487 -44.153  0.00  0.00     0.019 A 
ENDBRANCH   2  14
BRANCH   3  20
ATOM     20  C   UNL d   1     -54.910-102.060 -41.096  0.00  0.00     0.049 A 
ATOM     21  S   UNL d   1     -54.711-101.635 -40.424  0.00  0.00    -0.085 SA
ATOM     22  C   UNL d   1     -54.841-102.116 -39.773  0.00  0.00     0.035 A 
ATOM     23  C   UNL d   1     -55.115-102.828 -40.028  0.00  0.00     0.007 A 
ATOM     24  C   UNL d   1     -55.169-102.824 -40.847  0.00  0.00     0.009 A 
ENDBRANCH   3  20
TORSDOF 4
ENDMDL
