MODEL 1
REMARK VINA RESULT:      19.6      0.000      0.000
REMARK  2 active torsions:
REMARK  status: ('A' for Active; 'I' for Inactive)
REMARK    1  A    between atoms: N_6  and  C_4 
REMARK    2  A    between atoms: C_9  and  N_6 
ROOT
ATOM      1  S   UNL d   1      56.921  49.630  50.970  0.00  0.00     0.216 S 
ATOM      2  C   UNL d   1      57.741  49.689  51.058  0.00  0.00     0.121 A 
ATOM      3  C   UNL d   1      56.769  49.559  50.177  0.00  0.00     0.142 A 
ATOM      4  C   UNL d   1      58.097  49.654  50.315  0.00  0.00     0.132 A 
ATOM      5  C   UNL d   1      57.488  49.573  49.772  0.00  0.00     0.225 A 
ATOM      6  O   UNL d   1      57.092  49.705  51.784  0.00  0.00    -0.217 OA
ATOM      7  O   UNL d   1      56.114  49.589  51.100  0.00  0.00    -0.217 OA
ATOM      8  O   UNL d   1      57.561  49.512  48.936  0.00  0.00    -0.284 OA
ENDROOT
BRANCH   4   9
ATOM      9  N   UNL d   1      58.861  49.682  50.056  0.00  0.00    -0.242 NA
BRANCH   9  10
ATOM     10  C   UNL d   1      59.492  49.626  50.574  0.00  0.00     0.082 A 
ATOM     11  C   UNL d   1      59.352  49.578  51.366  0.00  0.00     0.020 A 
ATOM     12  C   UNL d   1      60.006  49.521  51.895  0.00  0.00     0.013 A 
ATOM     13  C   UNL d   1      60.767  49.514  51.601  0.00  0.00     0.058 A 
ATOM     14  C   UNL d   1      60.920  49.561  50.800  0.00  0.00     0.013 A 
ATOM     15 CL   UNL d   1      61.413  49.456  52.139  0.00  0.00    -0.082 Cl
ATOM     16  C   UNL d   1      60.272  49.618  50.283  0.00  0.00     0.020 A 
ENDBRANCH   9  10
ENDBRANCH   4   9
TORSDOF 2
ENDMDL
