MODEL 1
REMARK VINA RESULT:      65.0      0.000      0.000
REMARK  5 active torsions:
REMARK  status: ('A' for Active; 'I' for Inactive)
REMARK    1  A    between atoms: N_10  and  C_3 
REMARK    2  A    between atoms: C_11  and  C_5 
REMARK    3  A    between atoms: C_16  and  C_7 
REMARK    4  A    between atoms: C_15  and  N_10 
REMARK       I    between atoms: C_12  and  N_13 
REMARK    5  A    between atoms: N_13  and  C_17 
ROOT
ATOM      1  N   UNL d   1      14.103  14.005  -2.945  0.00  0.00    -0.184 N 
ATOM      2  C   UNL d   1      14.135  13.403  -2.382  0.00  0.00     0.168 A 
ATOM      3  C   UNL d   1      13.774  13.865  -3.660  0.00  0.00     0.217 A 
ATOM      4  N   UNL d   1      14.729  14.865  -2.060  0.00  0.00    -0.162 NA
ATOM      5  C   UNL d   1      14.460  13.541  -1.676  0.00  0.00     0.055 A 
ATOM      6  N   UNL d   1      13.836  12.685  -2.558  0.00  0.00    -0.227 NA
ATOM      7  C   UNL d   1      13.474  13.140  -3.835  0.00  0.00     0.066 A 
ATOM      8  C   UNL d   1      14.760  14.272  -1.506  0.00  0.00     0.104 A 
ATOM      9  C   UNL d   1      13.505  12.538  -3.273  0.00  0.00     0.087 A 
ATOM     10  C   UNL d   1      15.088  14.404  -0.788  0.00  0.00     0.023 C 
ATOM     11  C   UNL d   1      13.192  11.780  -3.452  0.00  0.00     0.021 C 
ENDROOT
BRANCH   3  12
ATOM     12  N   UNL d   1      13.746  14.475  -4.221  0.00  0.00    -0.383 NA
BRANCH  12  13
ATOM     13  C   UNL d   1      13.676  15.136  -4.713  0.00  0.00     0.134 A 
ATOM     14  C   UNL d   1      12.945  15.509  -4.801  0.00  0.00     0.034 A 
ATOM     15  C   UNL d   1      12.884  16.172  -5.297  0.00  0.00     0.022 A 
ATOM     16  C   UNL d   1      13.546  16.456  -5.699  0.00  0.00     0.085 A 
ATOM     17  C   UNL d   1      14.282  16.085  -5.614  0.00  0.00     0.022 A 
ATOM     18  C   UNL d   1      14.351  15.418  -5.117  0.00  0.00     0.034 A 
BRANCH  16  19
ATOM     19  N   UNL d   1      13.468  17.121  -6.193  0.00  0.00    -0.208 NA
ATOM     20  C   UNL d   1      13.724  17.863  -5.913  0.00  0.00     0.279 C 
ATOM     21  O   UNL d   1      13.651  18.523  -6.389  0.00  0.00    -0.265 OA
ATOM     22  C   UNL d   1      14.051  17.939  -5.158  0.00  0.00     0.068 C 
ENDBRANCH  16  19
ENDBRANCH  12  13
ENDBRANCH   3  12
BRANCH   7  23
ATOM     23  C   UNL d   1      13.129  12.979  -4.573  0.00  0.00     0.006 C 
ATOM     24  C   UNL d   1      13.088  12.195  -4.867  0.00  0.00     0.000 C 
ENDBRANCH   7  23
BRANCH   5  25
ATOM     25  C   UNL d   1      14.491  12.957  -1.130  0.00  0.00     0.004 A 
ATOM     26  C   UNL d   1      15.085  12.426  -1.137  0.00  0.00     0.000 A 
ATOM     27  C   UNL d   1      15.116  11.833  -0.583  0.00  0.00     0.000 A 
ATOM     28  C   UNL d   1      14.552  11.780  -0.030  0.00  0.00     0.000 A 
ATOM     29  C   UNL d   1      13.948  12.315  -0.019  0.00  0.00     0.000 A 
ATOM     30  C   UNL d   1      13.917  12.900  -0.564  0.00  0.00     0.000 A 
ENDBRANCH   5  25
TORSDOF 5
ENDMDL
