MODEL 1
REMARK VINA RESULT:      -3.4      0.000      0.000
REMARK  4 active torsions:
REMARK  status: ('A' for Active; 'I' for Inactive)
REMARK    1  A    between atoms: C_14  and  C_4 
REMARK       I    between atoms: C_6  and  N_8 
REMARK    2  A    between atoms: C_9  and  C_6 
REMARK    3  A    between atoms: N_8  and  C_14 
REMARK    4  A    between atoms: O_16  and  C_15 
ROOT
ATOM      1  C   UNL d   1      32.956  18.942 -22.709  0.00  0.00     0.279 C 
ATOM      2  N   UNL d   1      32.860  19.745 -22.554  0.00  0.00    -0.205 NA
ATOM      3  O   UNL d   1      33.241  18.442 -22.116  0.00  0.00    -0.265 OA
ENDROOT
BRANCH   1   4
ATOM      4  C   UNL d   1      32.769  18.643 -23.450  0.00  0.00     0.060 A 
ATOM      5  C   UNL d   1      32.143  18.112 -23.533  0.00  0.00     0.029 A 
ATOM      6  C   UNL d   1      31.961  17.815 -24.284  0.00  0.00     0.094 A 
ATOM      7  C   UNL d   1      32.400  18.047 -24.951  0.00  0.00     0.024 A 
ATOM      8  C   UNL d   1      33.021  18.576 -24.860  0.00  0.00     0.002 A 
ATOM      9  C   UNL d   1      33.214  18.881 -24.115  0.00  0.00     0.005 A 
BRANCH   6  10
ATOM     10  O   UNL d   1      31.339  17.287 -24.365  0.00  0.00    -0.328 OA
ATOM     11  C   UNL d   1      30.899  17.273 -25.072  0.00  0.00     0.181 C 
ENDBRANCH   6  10
ENDBRANCH   1   4
BRANCH   2  12
ATOM     12  C   UNL d   1      33.048  20.047 -21.812  0.00  0.00     0.123 C 
BRANCH  12  13
ATOM     13  C   UNL d   1      32.862  20.825 -21.621  0.00  0.00     0.120 A 
ATOM     14  N   UNL d   1      33.113  21.498 -22.026  0.00  0.00    -0.219 NA
ATOM     15  C   UNL d   1      32.798  22.160 -21.647  0.00  0.00     0.180 A 
ATOM     16  N   UNL d   1      32.346  21.894 -20.997  0.00  0.00    -0.282 N 
ATOM     17  S   UNL d   1      32.756  22.983 -21.660  0.00  0.00    -0.048 SA
ATOM     18  C   UNL d   1      32.389  21.067 -20.987  0.00  0.00     0.103 A 
ATOM     19  C   UNL d   1      32.035  22.554 -20.623  0.00  0.00     0.089 A 
ATOM     20  C   UNL d   1      32.283  23.224 -21.024  0.00  0.00     0.057 A 
ENDBRANCH  12  13
ENDBRANCH   2  12
TORSDOF 4
ENDMDL
MODEL 2
REMARK VINA RESULT:      -2.9      2.005      4.741
REMARK  4 active torsions:
REMARK  status: ('A' for Active; 'I' for Inactive)
REMARK    1  A    between atoms: C_14  and  C_4 
REMARK       I    between atoms: C_6  and  N_8 
REMARK    2  A    between atoms: C_9  and  C_6 
REMARK    3  A    between atoms: N_8  and  C_14 
REMARK    4  A    between atoms: O_16  and  C_15 
ROOT
ATOM      1  C   UNL d   1      32.951  20.715 -21.260  0.00  0.00     0.279 C 
ATOM      2  N   UNL d   1      32.902  20.323 -21.982  0.00  0.00    -0.205 NA
ATOM      3  O   UNL d   1      33.241  20.318 -20.596  0.00  0.00    -0.265 OA
ENDROOT
BRANCH   1   4
ATOM      4  C   UNL d   1      32.712  21.498 -21.204  0.00  0.00     0.060 A 
ATOM      5  C   UNL d   1      33.094  22.078 -21.650  0.00  0.00     0.029 A 
ATOM      6  C   UNL d   1      32.846  22.865 -21.586  0.00  0.00     0.094 A 
ATOM      7  C   UNL d   1      32.220  23.075 -21.081  0.00  0.00     0.024 A 
ATOM      8  C   UNL d   1      31.845  22.493 -20.641  0.00  0.00     0.002 A 
ATOM      9  C   UNL d   1      32.083  21.701 -20.694  0.00  0.00     0.005 A 
BRANCH   6  10
ATOM     10  O   UNL d   1      33.226  23.441 -22.030  0.00  0.00    -0.328 OA
ATOM     11  C   UNL d   1      32.924  23.653 -22.777  0.00  0.00     0.181 C 
ENDBRANCH   6  10
ENDBRANCH   1   4
BRANCH   2  12
ATOM     12  C   UNL d   1      33.142  19.537 -22.041  0.00  0.00     0.123 C 
BRANCH  12  13
ATOM     13  C   UNL d   1      32.998  19.110 -22.729  0.00  0.00     0.120 A 
ATOM     14  N   UNL d   1      32.683  18.350 -22.773  0.00  0.00    -0.219 NA
ATOM     15  C   UNL d   1      32.633  18.136 -23.569  0.00  0.00     0.180 A 
ATOM     16  N   UNL d   1      32.922  18.773 -24.025  0.00  0.00    -0.282 N 
ATOM     17  S   UNL d   1      32.409  17.537 -24.089  0.00  0.00    -0.048 SA
ATOM     18  C   UNL d   1      33.146  19.373 -23.500  0.00  0.00     0.103 A 
ATOM     19  C   UNL d   1      32.871  18.557 -24.814  0.00  0.00     0.089 A 
ATOM     20  C   UNL d   1      32.558  17.801 -24.860  0.00  0.00     0.057 A 
ENDBRANCH  12  13
ENDBRANCH   2  12
TORSDOF 4
ENDMDL
MODEL 3
REMARK VINA RESULT:      -2.8      1.935      3.262
REMARK  4 active torsions:
REMARK  status: ('A' for Active; 'I' for Inactive)
REMARK    1  A    between atoms: C_14  and  C_4 
REMARK       I    between atoms: C_6  and  N_8 
REMARK    2  A    between atoms: C_9  and  C_6 
REMARK    3  A    between atoms: N_8  and  C_14 
REMARK    4  A    between atoms: O_16  and  C_15 
ROOT
ATOM      1  C   UNL d   1      31.873  16.382 -23.816  0.00  0.00     0.279 C 
ATOM      2  N   UNL d   1      32.030  17.188 -23.769  0.00  0.00    -0.205 NA
ATOM      3  O   UNL d   1      32.474  15.837 -23.659  0.00  0.00    -0.265 OA
ENDROOT
BRANCH   1   4
ATOM      4  C   UNL d   1      31.121  16.123 -24.018  0.00  0.00     0.060 A 
ATOM      5  C   UNL d   1      30.554  16.006 -23.430  0.00  0.00     0.029 A 
ATOM      6  C   UNL d   1      29.798  15.745 -23.644  0.00  0.00     0.094 A 
ATOM      7  C   UNL d   1      29.607  15.600 -24.440  0.00  0.00     0.024 A 
ATOM      8  C   UNL d   1      30.176  15.718 -25.019  0.00  0.00     0.002 A 
ATOM      9  C   UNL d   1      30.936  15.979 -24.820  0.00  0.00     0.005 A 
BRANCH   6  10
ATOM     10  O   UNL d   1      29.235  15.629 -23.058  0.00  0.00    -0.328 OA
ATOM     11  C   UNL d   1      28.442  15.836 -23.202  0.00  0.00     0.181 C 
ENDBRANCH   6  10
ENDBRANCH   1   4
BRANCH   2  12
ATOM     12  C   UNL d   1      32.783  17.450 -23.566  0.00  0.00     0.123 C 
BRANCH  12  13
ATOM     13  C   UNL d   1      32.895  18.216 -23.286  0.00  0.00     0.120 A 
ATOM     14  N   UNL d   1      32.913  18.447 -22.496  0.00  0.00    -0.219 NA
ATOM     15  C   UNL d   1      33.038  19.263 -22.468  0.00  0.00     0.180 A 
ATOM     16  N   UNL d   1      33.099  19.541 -23.253  0.00  0.00    -0.282 N 
ATOM     17  S   UNL d   1      33.127  19.911 -21.966  0.00  0.00    -0.048 SA
ATOM     18  C   UNL d   1      33.010  18.889 -23.755  0.00  0.00     0.103 A 
ATOM     19  C   UNL d   1      33.223  20.351 -23.222  0.00  0.00     0.089 A 
ATOM     20  C   UNL d   1      33.241  20.584 -22.436  0.00  0.00     0.057 A 
ENDBRANCH  12  13
ENDBRANCH   2  12
TORSDOF 4
ENDMDL
MODEL 4
REMARK VINA RESULT:      -2.7      2.302      4.929
REMARK  4 active torsions:
REMARK  status: ('A' for Active; 'I' for Inactive)
REMARK    1  A    between atoms: C_14  and  C_4 
REMARK       I    between atoms: C_6  and  N_8 
REMARK    2  A    between atoms: C_9  and  C_6 
REMARK    3  A    between atoms: N_8  and  C_14 
REMARK    4  A    between atoms: O_16  and  C_15 
ROOT
ATOM      1  C   UNL d   1      33.026  20.121 -22.515  0.00  0.00     0.279 C 
ATOM      2  N   UNL d   1      32.892  19.310 -22.552  0.00  0.00    -0.205 NA
ATOM      3  O   UNL d   1      33.240  20.533 -23.199  0.00  0.00    -0.265 OA
ENDROOT
BRANCH   1   4
ATOM      4  C   UNL d   1      32.947  20.517 -21.800  0.00  0.00     0.060 A 
ATOM      5  C   UNL d   1      32.580  21.255 -21.776  0.00  0.00     0.029 A 
ATOM      6  C   UNL d   1      32.505  21.646 -21.050  0.00  0.00     0.094 A 
ATOM      7  C   UNL d   1      32.794  21.304 -20.351  0.00  0.00     0.024 A 
ATOM      8  C   UNL d   1      33.159  20.569 -20.382  0.00  0.00     0.002 A 
ATOM      9  C   UNL d   1      33.241  20.167 -21.101  0.00  0.00     0.005 A 
BRANCH   6  10
ATOM     10  O   UNL d   1      32.139  22.380 -21.028  0.00  0.00    -0.328 OA
ATOM     11  C   UNL d   1      32.087  22.793 -20.308  0.00  0.00     0.181 C 
ENDBRANCH   6  10
ENDBRANCH   1   4
BRANCH   2  12
ATOM     12  C   UNL d   1      32.971  18.912 -23.268  0.00  0.00     0.123 C 
BRANCH  12  13
ATOM     13  C   UNL d   1      32.754  18.120 -23.328  0.00  0.00     0.120 A 
ATOM     14  N   UNL d   1      32.058  17.831 -23.659  0.00  0.00    -0.219 NA
ATOM     15  C   UNL d   1      32.068  17.007 -23.604  0.00  0.00     0.180 A 
ATOM     16  N   UNL d   1      32.782  16.783 -23.234  0.00  0.00    -0.282 N 
ATOM     17  S   UNL d   1      31.648  16.319 -23.773  0.00  0.00    -0.048 SA
ATOM     18  C   UNL d   1      33.203  17.476 -23.065  0.00  0.00     0.103 A 
ATOM     19  C   UNL d   1      32.789  15.965 -23.180  0.00  0.00     0.089 A 
ATOM     20  C   UNL d   1      32.097  15.674 -23.509  0.00  0.00     0.057 A 
ENDBRANCH  12  13
ENDBRANCH   2  12
TORSDOF 4
ENDMDL
MODEL 5
REMARK VINA RESULT:      -2.6      1.930      4.820
REMARK  4 active torsions:
REMARK  status: ('A' for Active; 'I' for Inactive)
REMARK    1  A    between atoms: C_14  and  C_4 
REMARK       I    between atoms: C_6  and  N_8 
REMARK    2  A    between atoms: C_9  and  C_6 
REMARK    3  A    between atoms: N_8  and  C_14 
REMARK    4  A    between atoms: O_16  and  C_15 
ROOT
ATOM      1  C   UNL d   1      32.972  20.740 -21.371  0.00  0.00     0.279 C 
ATOM      2  N   UNL d   1      32.879  20.332 -22.080  0.00  0.00    -0.205 NA
ATOM      3  O   UNL d   1      33.240  20.339 -20.699  0.00  0.00    -0.265 OA
ENDROOT
BRANCH   1   4
ATOM      4  C   UNL d   1      32.797  21.541 -21.334  0.00  0.00     0.060 A 
ATOM      5  C   UNL d   1      32.501  21.866 -20.636  0.00  0.00     0.029 A 
ATOM      6  C   UNL d   1      32.328  22.675 -20.608  0.00  0.00     0.094 A 
ATOM      7  C   UNL d   1      32.449  23.159 -21.272  0.00  0.00     0.024 A 
ATOM      8  C   UNL d   1      32.744  22.829 -21.963  0.00  0.00     0.002 A 
ATOM      9  C   UNL d   1      32.921  22.021 -22.006  0.00  0.00     0.005 A 
BRANCH   6  10
ATOM     10  O   UNL d   1      32.033  22.997 -19.913  0.00  0.00    -0.328 OA
ATOM     11  C   UNL d   1      32.524  23.473 -19.439  0.00  0.00     0.181 C 
ENDBRANCH   6  10
ENDBRANCH   1   4
BRANCH   2  12
ATOM     12  C   UNL d   1      33.054  19.529 -22.118  0.00  0.00     0.123 C 
BRANCH  12  13
ATOM     13  C   UNL d   1      32.943  19.114 -22.820  0.00  0.00     0.120 A 
ATOM     14  N   UNL d   1      33.202  19.345 -23.568  0.00  0.00    -0.219 NA
ATOM     15  C   UNL d   1      32.972  18.766 -24.111  0.00  0.00     0.180 A 
ATOM     16  N   UNL d   1      32.566  18.168 -23.693  0.00  0.00    -0.282 N 
ATOM     17  S   UNL d   1      32.989  18.549 -24.906  0.00  0.00    -0.048 SA
ATOM     18  C   UNL d   1      32.551  18.389 -22.895  0.00  0.00     0.103 A 
ATOM     19  C   UNL d   1      32.339  17.596 -24.235  0.00  0.00     0.089 A 
ATOM     20  C   UNL d   1      32.596  17.824 -24.980  0.00  0.00     0.057 A 
ENDBRANCH  12  13
ENDBRANCH   2  12
TORSDOF 4
ENDMDL
MODEL 6
REMARK VINA RESULT:      -2.1      2.501      5.024
REMARK  4 active torsions:
REMARK  status: ('A' for Active; 'I' for Inactive)
REMARK    1  A    between atoms: C_14  and  C_4 
REMARK       I    between atoms: C_6  and  N_8 
REMARK    2  A    between atoms: C_9  and  C_6 
REMARK    3  A    between atoms: N_8  and  C_14 
REMARK    4  A    between atoms: O_16  and  C_15 
ROOT
ATOM      1  C   UNL d   1      32.835  19.304 -23.401  0.00  0.00     0.279 C 
ATOM      2  N   UNL d   1      32.510  18.549 -23.435  0.00  0.00    -0.205 NA
ATOM      3  O   UNL d   1      33.040  19.693 -24.101  0.00  0.00    -0.265 OA
ENDROOT
BRANCH   1   4
ATOM      4  C   UNL d   1      32.954  19.666 -22.674  0.00  0.00     0.060 A 
ATOM      5  C   UNL d   1      32.907  20.488 -22.611  0.00  0.00     0.029 A 
ATOM      6  C   UNL d   1      33.028  20.844 -21.874  0.00  0.00     0.094 A 
ATOM      7  C   UNL d   1      33.195  20.385 -21.202  0.00  0.00     0.024 A 
ATOM      8  C   UNL d   1      33.240  19.568 -21.272  0.00  0.00     0.002 A 
ATOM      9  C   UNL d   1      33.121  19.198 -22.003  0.00  0.00     0.005 A 
BRANCH   6  10
ATOM     10  O   UNL d   1      32.982  21.661 -21.813  0.00  0.00    -0.328 OA
ATOM     11  C   UNL d   1      32.513  22.003 -21.216  0.00  0.00     0.181 C 
ENDBRANCH   6  10
ENDBRANCH   1   4
BRANCH   2  12
ATOM     12  C   UNL d   1      32.390  18.184 -24.163  0.00  0.00     0.123 C 
BRANCH  12  13
ATOM     13  C   UNL d   1      31.915  17.514 -24.218  0.00  0.00     0.120 A 
ATOM     14  N   UNL d   1      32.154  16.736 -24.090  0.00  0.00    -0.219 NA
ATOM     15  C   UNL d   1      31.502  16.242 -24.204  0.00  0.00     0.180 A 
ATOM     16  N   UNL d   1      30.849  16.722 -24.405  0.00  0.00    -0.282 N 
ATOM     17  S   UNL d   1      31.244  15.460 -24.196  0.00  0.00    -0.048 SA
ATOM     18  C   UNL d   1      31.110  17.508 -24.412  0.00  0.00     0.103 A 
ATOM     19  C   UNL d   1      30.203  16.230 -24.517  0.00  0.00     0.089 A 
ATOM     20  C   UNL d   1      30.439  15.455 -24.391  0.00  0.00     0.057 A 
ENDBRANCH  12  13
ENDBRANCH   2  12
TORSDOF 4
ENDMDL
MODEL 7
REMARK VINA RESULT:      -1.2      2.753      4.170
REMARK  4 active torsions:
REMARK  status: ('A' for Active; 'I' for Inactive)
REMARK    1  A    between atoms: C_14  and  C_4 
REMARK       I    between atoms: C_6  and  N_8 
REMARK    2  A    between atoms: C_9  and  C_6 
REMARK    3  A    between atoms: N_8  and  C_14 
REMARK    4  A    between atoms: O_16  and  C_15 
ROOT
ATOM      1  C   UNL d   1      30.613  16.237 -23.731  0.00  0.00     0.279 C 
ATOM      2  N   UNL d   1      31.050  16.859 -24.046  0.00  0.00    -0.205 NA
ATOM      3  O   UNL d   1      30.933  15.777 -23.124  0.00  0.00    -0.265 OA
ENDROOT
BRANCH   1   4
ATOM      4  C   UNL d   1      29.862  16.076 -24.021  0.00  0.00     0.060 A 
ATOM      5  C   UNL d   1      29.197  16.342 -23.611  0.00  0.00     0.029 A 
ATOM      6  C   UNL d   1      28.444  16.176 -23.912  0.00  0.00     0.094 A 
ATOM      7  C   UNL d   1      28.352  15.746 -24.617  0.00  0.00     0.024 A 
ATOM      8  C   UNL d   1      29.018  15.485 -25.019  0.00  0.00     0.002 A 
ATOM      9  C   UNL d   1      29.778  15.644 -24.731  0.00  0.00     0.005 A 
BRANCH   6  10
ATOM     10  O   UNL d   1      27.784  16.441 -23.503  0.00  0.00    -0.328 OA
ATOM     11  C   UNL d   1      27.866  16.724 -22.725  0.00  0.00     0.181 C 
ENDBRANCH   6  10
ENDBRANCH   1   4
BRANCH   2  12
ATOM     12  C   UNL d   1      31.803  17.021 -23.757  0.00  0.00     0.123 C 
BRANCH  12  13
ATOM     13  C   UNL d   1      32.149  17.756 -23.889  0.00  0.00     0.120 A 
ATOM     14  N   UNL d   1      32.447  18.264 -23.312  0.00  0.00    -0.219 NA
ATOM     15  C   UNL d   1      32.741  18.938 -23.688  0.00  0.00     0.180 A 
ATOM     16  N   UNL d   1      32.624  18.845 -24.510  0.00  0.00    -0.282 N 
ATOM     17  S   UNL d   1      33.106  19.667 -23.568  0.00  0.00    -0.048 SA
ATOM     18  C   UNL d   1      32.257  18.112 -24.628  0.00  0.00     0.103 A 
ATOM     19  C   UNL d   1      32.917  19.515 -24.880  0.00  0.00     0.089 A 
ATOM     20  C   UNL d   1      33.214  20.022 -24.309  0.00  0.00     0.057 A 
ENDBRANCH  12  13
ENDBRANCH   2  12
TORSDOF 4
ENDMDL
