MODEL 1
REMARK VINA RESULT:      -3.7      0.000      0.000
REMARK  6 active torsions:
REMARK  status: ('A' for Active; 'I' for Inactive)
REMARK    1  A    between atoms: C_2  and  S_1 
REMARK    2  A    between atoms: N_5  and  S_1 
REMARK    3  A    between atoms: C_14  and  N_5 
REMARK    4  A    between atoms: C_7  and  C_6 
REMARK    5  A    between atoms: C_19  and  C_14 
REMARK    6  A    between atoms: O_18  and  C_19 
ROOT
ATOM      1  C   UNL d   1      57.984  -0.075  29.983  0.00  0.00     0.105 A 
ATOM      2  C   UNL d   1      57.090  -0.049  31.384  0.00  0.00     0.000 A 
ATOM      3  C   UNL d   1      57.628   0.626  30.233  0.00  0.00     0.013 A 
ATOM      4  C   UNL d   1      57.896  -0.763  30.430  0.00  0.00     0.013 A 
ATOM      5  C   UNL d   1      57.446  -0.750  31.134  0.00  0.00     0.001 A 
ATOM      6  C   UNL d   1      57.178   0.639  30.937  0.00  0.00     0.001 A 
ENDROOT
BRANCH   1   7
ATOM      7  S   UNL d   1      58.430  -0.092  29.288  0.00  0.00     0.285 S 
ATOM      8  O   UNL d   1      58.867  -0.109  28.596  0.00  0.00    -0.198 OA
ATOM      9  O   UNL d   1      57.740  -0.150  28.843  0.00  0.00    -0.198 OA
BRANCH   7  10
ATOM     10  N   UNL d   1      59.118  -0.034  29.726  0.00  0.00    -0.155 NA
BRANCH  10  11
ATOM     11  C   UNL d   1      59.844   0.111  29.347  0.00  0.00     0.138 C 
BRANCH  11  12
ATOM     12  C   UNL d   1      60.544  -0.114  29.710  0.00  0.00     0.138 C 
BRANCH  12  13
ATOM     13  O   UNL d   1      61.089   0.461  29.960  0.00  0.00    -0.325 OA
ATOM     14  C   UNL d   1      61.133   0.681  30.750  0.00  0.00     0.182 C 
ENDBRANCH  12  13
ENDBRANCH  11  12
ENDBRANCH  10  11
ENDBRANCH   7  10
ENDBRANCH   1   7
BRANCH   2  15
ATOM     15  C   UNL d   1      56.650  -0.040  32.074  0.00  0.00     0.000 A 
ATOM     16  C   UNL d   1      56.168  -0.683  32.261  0.00  0.00     0.000 A 
ATOM     17  C   UNL d   1      55.721  -0.681  32.956  0.00  0.00     0.000 A 
ATOM     18  C   UNL d   1      55.761  -0.021  33.468  0.00  0.00     0.000 A 
ATOM     19  C   UNL d   1      56.244   0.622  33.281  0.00  0.00     0.000 A 
ATOM     20  C   UNL d   1      55.316  -0.016  34.164  0.00  0.00     0.000 C 
ATOM     21  C   UNL d   1      56.689   0.616  32.585  0.00  0.00     0.000 A 
ENDBRANCH   2  15
TORSDOF 6
ENDMDL
MODEL 2
REMARK VINA RESULT:      -2.9      9.587     10.475
REMARK  6 active torsions:
REMARK  status: ('A' for Active; 'I' for Inactive)
REMARK    1  A    between atoms: C_2  and  S_1 
REMARK    2  A    between atoms: N_5  and  S_1 
REMARK    3  A    between atoms: C_14  and  N_5 
REMARK    4  A    between atoms: C_7  and  C_6 
REMARK    5  A    between atoms: C_19  and  C_14 
REMARK    6  A    between atoms: O_18  and  C_19 
ROOT
ATOM      1  C   UNL d   1      59.873  -9.191  34.719  0.00  0.00     0.105 A 
ATOM      2  C   UNL d   1      60.127  -9.402  33.090  0.00  0.00     0.000 A 
ATOM      3  C   UNL d   1      60.602  -9.462  34.447  0.00  0.00     0.013 A 
ATOM      4  C   UNL d   1      59.269  -9.024  34.182  0.00  0.00     0.013 A 
ATOM      5  C   UNL d   1      59.397  -9.131  33.363  0.00  0.00     0.001 A 
ATOM      6  C   UNL d   1      60.730  -9.568  33.627  0.00  0.00     0.001 A 
ENDROOT
BRANCH   1   7
ATOM      7  S   UNL d   1      59.743  -9.084  35.528  0.00  0.00     0.285 S 
ATOM      8  O   UNL d   1      59.611  -8.983  36.330  0.00  0.00    -0.198 OA
ATOM      9  O   UNL d   1      59.291  -9.772  35.550  0.00  0.00    -0.198 OA
BRANCH   7  10
ATOM     10  N   UNL d   1      60.190  -8.400  35.511  0.00  0.00    -0.155 NA
BRANCH  10  11
ATOM     11  C   UNL d   1      60.065  -7.805  36.079  0.00  0.00     0.138 C 
BRANCH  11  12
ATOM     12  C   UNL d   1      60.535  -7.134  36.073  0.00  0.00     0.138 C 
BRANCH  12  13
ATOM     13  O   UNL d   1      60.198  -6.385  36.208  0.00  0.00    -0.325 OA
ATOM     14  C   UNL d   1      60.605  -5.701  36.007  0.00  0.00     0.182 C 
ENDBRANCH  12  13
ENDBRANCH  11  12
ENDBRANCH  10  11
ENDBRANCH   7  10
ENDBRANCH   1   7
BRANCH   2  15
ATOM     15  C   UNL d   1      60.248  -9.505  32.288  0.00  0.00     0.000 A 
ATOM     16  C   UNL d   1      61.003  -9.401  31.970  0.00  0.00     0.000 A 
ATOM     17  C   UNL d   1      61.133  -9.503  31.161  0.00  0.00     0.000 A 
ATOM     18  C   UNL d   1      60.493  -9.712  30.665  0.00  0.00     0.000 A 
ATOM     19  C   UNL d   1      59.738  -9.816  30.983  0.00  0.00     0.000 A 
ATOM     20  C   UNL d   1      60.619  -9.815  29.856  0.00  0.00     0.000 C 
ATOM     21  C   UNL d   1      59.612  -9.713  31.793  0.00  0.00     0.000 A 
ENDBRANCH   2  15
TORSDOF 6
ENDMDL
MODEL 3
REMARK VINA RESULT:      -2.3      3.143      5.185
REMARK  6 active torsions:
REMARK  status: ('A' for Active; 'I' for Inactive)
REMARK    1  A    between atoms: C_2  and  S_1 
REMARK    2  A    between atoms: N_5  and  S_1 
REMARK    3  A    between atoms: C_14  and  N_5 
REMARK    4  A    between atoms: C_7  and  C_6 
REMARK    5  A    between atoms: C_19  and  C_14 
REMARK    6  A    between atoms: O_18  and  C_19 
ROOT
ATOM      1  C   UNL d   1      56.424   0.176  33.533  0.00  0.00     0.105 A 
ATOM      2  C   UNL d   1      57.085  -0.131  32.039  0.00  0.00     0.000 A 
ATOM      3  C   UNL d   1      56.179  -0.482  33.100  0.00  0.00     0.013 A 
ATOM      4  C   UNL d   1      56.997   0.682  33.223  0.00  0.00     0.013 A 
ATOM      5  C   UNL d   1      57.330   0.527  32.472  0.00  0.00     0.001 A 
ATOM      6  C   UNL d   1      56.511  -0.636  32.349  0.00  0.00     0.001 A 
ENDROOT
BRANCH   1   7
ATOM      7  S   UNL d   1      56.097   0.332  34.275  0.00  0.00     0.285 S 
ATOM      8  O   UNL d   1      55.778   0.486  35.014  0.00  0.00    -0.198 OA
ATOM      9  O   UNL d   1      56.815   0.151  34.633  0.00  0.00    -0.198 OA
BRANCH   7  10
ATOM     10  N   UNL d   1      55.381   0.514  33.924  0.00  0.00    -0.155 NA
BRANCH  10  11
ATOM     11  C   UNL d   1      54.713   0.672  34.394  0.00  0.00     0.138 C 
BRANCH  11  12
ATOM     12  C   UNL d   1      53.969   0.682  34.050  0.00  0.00     0.138 C 
BRANCH  12  13
ATOM     13  O   UNL d   1      53.291   0.562  34.516  0.00  0.00    -0.325 OA
ATOM     14  C   UNL d   1      52.541   0.680  34.202  0.00  0.00     0.182 C 
ENDBRANCH  12  13
ENDBRANCH  11  12
ENDBRANCH  10  11
ENDBRANCH   7  10
ENDBRANCH   1   7
BRANCH   2  15
ATOM     15  C   UNL d   1      57.413  -0.279  31.304  0.00  0.00     0.000 A 
ATOM     16  C   UNL d   1      57.632  -1.048  31.100  0.00  0.00     0.000 A 
ATOM     17  C   UNL d   1      57.964  -1.205  30.360  0.00  0.00     0.000 A 
ATOM     18  C   UNL d   1      58.075  -0.577  29.819  0.00  0.00     0.000 A 
ATOM     19  C   UNL d   1      57.855   0.192  30.023  0.00  0.00     0.000 A 
ATOM     20  C   UNL d   1      58.407  -0.731  29.078  0.00  0.00     0.000 C 
ATOM     21  C   UNL d   1      57.524   0.345  30.764  0.00  0.00     0.000 A 
ENDBRANCH   2  15
TORSDOF 6
ENDMDL
MODEL 4
REMARK VINA RESULT:      -2.2      1.157      1.330
REMARK  6 active torsions:
REMARK  status: ('A' for Active; 'I' for Inactive)
REMARK    1  A    between atoms: C_2  and  S_1 
REMARK    2  A    between atoms: N_5  and  S_1 
REMARK    3  A    between atoms: C_14  and  N_5 
REMARK    4  A    between atoms: C_7  and  C_6 
REMARK    5  A    between atoms: C_19  and  C_14 
REMARK    6  A    between atoms: O_18  and  C_19 
ROOT
ATOM      1  C   UNL d   1      58.061  -0.049  29.973  0.00  0.00     0.105 A 
ATOM      2  C   UNL d   1      57.246   0.070  31.417  0.00  0.00     0.000 A 
ATOM      3  C   UNL d   1      57.471   0.520  30.069  0.00  0.00     0.013 A 
ATOM      4  C   UNL d   1      58.246  -0.558  30.595  0.00  0.00     0.013 A 
ATOM      5  C   UNL d   1      57.836  -0.498  31.321  0.00  0.00     0.001 A 
ATOM      6  C   UNL d   1      57.061   0.580  30.795  0.00  0.00     0.001 A 
ENDROOT
BRANCH   1   7
ATOM      7  S   UNL d   1      58.468  -0.111  29.257  0.00  0.00     0.285 S 
ATOM      8  O   UNL d   1      58.870  -0.169  28.546  0.00  0.00    -0.198 OA
ATOM      9  O   UNL d   1      58.153   0.608  29.011  0.00  0.00    -0.198 OA
BRANCH   7  10
ATOM     10  N   UNL d   1      58.784  -0.827  29.497  0.00  0.00    -0.155 NA
BRANCH  10  11
ATOM     11  C   UNL d   1      59.208  -1.298  28.959  0.00  0.00     0.138 C 
BRANCH  11  12
ATOM     12  C   UNL d   1      59.674  -1.913  29.237  0.00  0.00     0.138 C 
BRANCH  12  13
ATOM     13  O   UNL d   1      60.360  -2.138  28.825  0.00  0.00    -0.325 OA
ATOM     14  C   UNL d   1      60.622  -2.916  28.841  0.00  0.00     0.182 C 
ENDBRANCH  12  13
ENDBRANCH  11  12
ENDBRANCH  10  11
ENDBRANCH   7  10
ENDBRANCH   1   7
BRANCH   2  15
ATOM     15  C   UNL d   1      56.847   0.126  32.129  0.00  0.00     0.000 A 
ATOM     16  C   UNL d   1      56.024   0.066  32.144  0.00  0.00     0.000 A 
ATOM     17  C   UNL d   1      55.615   0.121  32.859  0.00  0.00     0.000 A 
ATOM     18  C   UNL d   1      56.042   0.239  33.569  0.00  0.00     0.000 A 
ATOM     19  C   UNL d   1      56.865   0.299  33.553  0.00  0.00     0.000 A 
ATOM     20  C   UNL d   1      55.635   0.295  34.286  0.00  0.00     0.000 C 
ATOM     21  C   UNL d   1      57.271   0.243  32.836  0.00  0.00     0.000 A 
ENDBRANCH   2  15
TORSDOF 6
ENDMDL
MODEL 5
REMARK VINA RESULT:      -0.7      9.595     10.013
REMARK  6 active torsions:
REMARK  status: ('A' for Active; 'I' for Inactive)
REMARK    1  A    between atoms: C_2  and  S_1 
REMARK    2  A    between atoms: N_5  and  S_1 
REMARK    3  A    between atoms: C_14  and  N_5 
REMARK    4  A    between atoms: C_7  and  C_6 
REMARK    5  A    between atoms: C_19  and  C_14 
REMARK    6  A    between atoms: O_18  and  C_19 
ROOT
ATOM      1  C   UNL d   1      58.233  -9.580  32.078  0.00  0.00     0.105 A 
ATOM      2  C   UNL d   1      59.200  -9.342  33.409  0.00  0.00     0.000 A 
ATOM      3  C   UNL d   1      57.897  -9.357  32.798  0.00  0.00     0.013 A 
ATOM      4  C   UNL d   1      59.049  -9.684  32.020  0.00  0.00     0.013 A 
ATOM      5  C   UNL d   1      59.535  -9.565  32.689  0.00  0.00     0.001 A 
ATOM      6  C   UNL d   1      58.384  -9.238  33.468  0.00  0.00     0.001 A 
ENDROOT
BRANCH   1   7
ATOM      7  S   UNL d   1      57.755  -9.699  31.415  0.00  0.00     0.285 S 
ATOM      8  O   UNL d   1      57.277  -9.816  30.760  0.00  0.00    -0.198 OA
ATOM      9  O   UNL d   1      57.082  -9.581  31.874  0.00  0.00    -0.198 OA
BRANCH   7  10
ATOM     10  N   UNL d   1      58.421  -9.816  30.955  0.00  0.00    -0.155 NA
BRANCH  10  11
ATOM     11  C   UNL d   1      58.383  -9.712  30.131  0.00  0.00     0.138 C 
BRANCH  11  12
ATOM     12  C   UNL d   1      59.069  -9.757  29.684  0.00  0.00     0.138 C 
BRANCH  12  13
ATOM     13  O   UNL d   1      59.076  -9.486  28.898  0.00  0.00    -0.325 OA
ATOM     14  C   UNL d   1      59.786  -9.327  28.516  0.00  0.00     0.182 C 
ENDBRANCH  12  13
ENDBRANCH  11  12
ENDBRANCH  10  11
ENDBRANCH   7  10
ENDBRANCH   1   7
BRANCH   2  15
ATOM     15  C   UNL d   1      59.679  -9.226  34.061  0.00  0.00     0.000 A 
ATOM     16  C   UNL d   1      59.452  -8.692  34.648  0.00  0.00     0.000 A 
ATOM     17  C   UNL d   1      59.931  -8.570  35.310  0.00  0.00     0.000 A 
ATOM     18  C   UNL d   1      60.649  -8.993  35.381  0.00  0.00     0.000 A 
ATOM     19  C   UNL d   1      60.877  -9.527  34.794  0.00  0.00     0.000 A 
ATOM     20  C   UNL d   1      61.131  -8.873  36.041  0.00  0.00     0.000 C 
ATOM     21  C   UNL d   1      60.395  -9.646  34.133  0.00  0.00     0.000 A 
ENDBRANCH   2  15
TORSDOF 6
ENDMDL
