MODEL 1
REMARK VINA RESULT:      46.2      0.000      0.000
REMARK  6 active torsions:
REMARK  status: ('A' for Active; 'I' for Inactive)
REMARK    1  A    between atoms: C_18  and  N_1 
REMARK    2  A    between atoms: S_7  and  C_2 
REMARK    3  A    between atoms: C_20  and  S_7 
REMARK    4  A    between atoms: C_10  and  C_20 
REMARK       I    between atoms: N_13  and  C_10 
REMARK    5  A    between atoms: C_16  and  N_13 
REMARK    6  A    between atoms: C_21  and  C_18 
ROOT
ATOM      1  N   UNL d   1     -58.217 -98.909 -44.319  0.00  0.00    -0.253 N 
ATOM      2  C   UNL d   1     -57.513 -98.909 -44.839  0.00  0.00     0.182 A 
ATOM      3  C   UNL d   1     -58.950 -98.878 -44.644  0.00  0.00     0.268 A 
ATOM      4  N   UNL d   1     -57.620 -98.878 -45.622  0.00  0.00    -0.222 NA
ATOM      5  C   UNL d   1     -59.041 -98.847 -45.449  0.00  0.00     0.074 A 
ATOM      6  C   UNL d   1     -58.367 -98.847 -45.953  0.00  0.00     0.088 A 
ATOM      7  O   UNL d   1     -59.619 -98.879 -44.104  0.00  0.00    -0.267 OA
ATOM      8  C   UNL d   1     -59.796 -98.816 -45.775  0.00  0.00     0.006 A 
ATOM      9  C   UNL d   1     -58.474 -98.816 -46.764  0.00  0.00     0.019 A 
ATOM     10  C   UNL d   1     -59.891 -98.785 -46.577  0.00  0.00     0.000 A 
ATOM     11  C   UNL d   1     -59.233 -98.784 -47.087  0.00  0.00     0.002 A 
ENDROOT
BRANCH   2  12
ATOM     12  S   UNL d   1     -56.742 -98.940 -44.515  0.00  0.00    -0.044 SA
BRANCH  12  13
ATOM     13  C   UNL d   1     -56.195 -99.573 -44.724  0.00  0.00     0.101 C 
BRANCH  13  14
ATOM     14  C   UNL d   1     -55.497 -99.385 -45.131  0.00  0.00     0.286 C 
ATOM     15  N   UNL d   1     -54.809 -99.793 -44.994  0.00  0.00    -0.207 NA
ATOM     16  O   UNL d   1     -55.505 -98.772 -45.684  0.00  0.00    -0.265 OA
BRANCH  15  17
ATOM     17  C   UNL d   1     -54.794-100.417 -44.433  0.00  0.00     0.087 A 
ATOM     18  C   UNL d   1     -54.834-100.214 -43.630  0.00  0.00     0.045 A 
ATOM     19  C   UNL d   1     -54.820-100.817 -43.062  0.00  0.00     0.121 A 
ATOM     20  O   UNL d   1     -54.851-100.793 -42.237  0.00  0.00    -0.299 OA
ATOM     21  C   UNL d   1     -54.767-101.595 -43.300  0.00  0.00     0.119 A 
ATOM     22  C   UNL d   1     -54.815-101.584 -41.985  0.00  0.00     0.304 A 
ATOM     23  O   UNL d   1     -54.764-102.080 -42.606  0.00  0.00    -0.300 OA
ATOM     24  C   UNL d   1     -54.727-101.792 -44.110  0.00  0.00     0.028 A 
ATOM     25  C   UNL d   1     -54.741-101.191 -44.670  0.00  0.00     0.021 A 
ENDBRANCH  15  17
ENDBRANCH  13  14
ENDBRANCH  12  13
ENDBRANCH   2  12
BRANCH   1  26
ATOM     26  C   UNL d   1     -58.156 -98.940 -43.473  0.00  0.00     0.085 C 
BRANCH  26  27
ATOM     27  C   UNL d   1     -58.808 -98.761 -42.995  0.00  0.00     0.019 C 
ATOM     28  C   UNL d   1     -59.255 -99.353 -42.674  0.00  0.00     0.002 C 
ENDBRANCH  26  27
ENDBRANCH   1  26
TORSDOF 6
ENDMDL
