MODEL 1
REMARK VINA RESULT:      -0.4      0.000      0.000
REMARK  5 active torsions:
REMARK  status: ('A' for Active; 'I' for Inactive)
REMARK    1  A    between atoms: N_6  and  S_1 
REMARK    2  A    between atoms: C_11  and  S_1 
REMARK    3  A    between atoms: C_2  and  N_5 
REMARK    4  A    between atoms: C_9  and  C_4 
REMARK       I    between atoms: N_5  and  C_7 
REMARK    5  A    between atoms: C_7  and  C_15 
ROOT
ATOM      1  C   UNL d   1     -41.865-122.325 -53.600  0.00  0.00     0.104 A 
ATOM      2  C   UNL d   1     -41.651-122.847 -52.047  0.00  0.00     0.058 A 
ATOM      3  C   UNL d   1     -41.592-121.803 -53.020  0.00  0.00     0.013 A 
ATOM      4  C   UNL d   1     -42.035-123.132 -53.394  0.00  0.00     0.013 A 
ATOM      5  C   UNL d   1     -41.481-122.038 -52.257  0.00  0.00     0.005 A 
ATOM      6  C   UNL d   1     -41.923-123.370 -52.621  0.00  0.00     0.005 A 
ENDROOT
BRANCH   2   7
ATOM      7  C   UNL d   1     -41.541-123.118 -51.249  0.00  0.00     0.281 C 
ATOM      8  N   UNL d   1     -41.853-122.682 -50.620  0.00  0.00    -0.183 NA
ATOM      9  O   UNL d   1     -41.124-123.816 -51.085  0.00  0.00    -0.265 OA
BRANCH   8  10
ATOM     10  C   UNL d   1     -41.742-122.953 -49.845  0.00  0.00     0.197 A 
ATOM     11  N   UNL d   1     -42.341-122.829 -49.255  0.00  0.00    -0.220 NA
ATOM     12  C   UNL d   1     -42.075-123.153 -48.558  0.00  0.00     0.096 A 
ATOM     13  C   UNL d   1     -41.336-123.473 -48.690  0.00  0.00     0.058 A 
ATOM     14  S   UNL d   1     -41.123-123.354 -49.482  0.00  0.00    -0.046 SA
BRANCH  12  15
ATOM     15  C   UNL d   1     -42.438-123.178 -47.841  0.00  0.00     0.048 A 
ATOM     16  S   UNL d   1     -42.809-123.786 -47.421  0.00  0.00    -0.085 SA
ATOM     17  C   UNL d   1     -43.076-123.472 -46.715  0.00  0.00     0.035 A 
ATOM     18  C   UNL d   1     -42.887-122.699 -46.678  0.00  0.00     0.007 A 
ATOM     19  C   UNL d   1     -42.485-122.502 -47.381  0.00  0.00     0.009 A 
ENDBRANCH  12  15
ENDBRANCH   8  10
ENDBRANCH   2   7
BRANCH   1  20
ATOM     20  S   UNL d   1     -41.982-122.086 -54.394  0.00  0.00     0.271 S 
ATOM     21  O   UNL d   1     -41.445-122.705 -54.655  0.00  0.00    -0.200 OA
ATOM     22  O   UNL d   1     -42.502-121.483 -54.153  0.00  0.00    -0.200 OA
BRANCH  20  23
ATOM     23  N   UNL d   1     -42.088-121.857 -55.206  0.00  0.00    -0.229 N 
ATOM     24  C   UNL d   1     -42.798-122.029 -55.596  0.00  0.00     0.092 A 
ATOM     25  C   UNL d   1     -42.898-121.805 -56.389  0.00  0.00     0.020 A 
ATOM     26  C   UNL d   1     -42.284-121.410 -56.775  0.00  0.00     0.003 A 
ATOM     27  C   UNL d   1     -41.584-121.241 -56.384  0.00  0.00     0.020 A 
ATOM     28  C   UNL d   1     -41.477-121.454 -55.619  0.00  0.00     0.092 A 
ENDBRANCH  20  23
ENDBRANCH   1  20
TORSDOF 5
ENDMDL
