MODEL 1
REMARK VINA RESULT:      -2.9      0.000      0.000
REMARK  1 active torsions:
REMARK  status: ('A' for Active; 'I' for Inactive)
REMARK    1  A    between atoms: C_12  and  N_2 
ROOT
ATOM      1  C   UNL d   1      58.731  -1.650  29.306  0.00  0.00     0.267 A 
ATOM      2  N   UNL d   1      58.918  -0.904  29.525  0.00  0.00    -0.271 N 
ATOM      3  C   UNL d   1      59.163  -2.130  29.064  0.00  0.00     0.081 A 
ATOM      4  C   UNL d   1      59.972  -2.150  28.910  0.00  0.00     0.105 A 
ATOM      5  O   UNL d   1      60.495  -1.677  28.975  0.00  0.00    -0.305 OA
ATOM      6  C   UNL d   1      59.683  -0.568  29.499  0.00  0.00     0.090 A 
ATOM      7  C   UNL d   1      60.412  -0.921  29.246  0.00  0.00     0.116 A 
ATOM      8  C   UNL d   1      58.694  -2.794  28.924  0.00  0.00     0.028 A 
ATOM      9  O   UNL d   1      57.939  -1.867  29.376  0.00  0.00    -0.267 OA
ATOM     10  C   UNL d   1      60.317  -2.834  28.614  0.00  0.00     0.026 A 
ATOM     11  C   UNL d   1      59.039  -3.481  28.628  0.00  0.00     0.103 A 
ATOM     12  N   UNL d   1      58.577  -4.144  28.487  0.00  0.00    -0.148 N 
ATOM     13  C   UNL d   1      59.855  -3.501  28.472  0.00  0.00     0.023 A 
ATOM     14  C   UNL d   1      59.679   0.238  29.773  0.00  0.00     0.020 A 
ATOM     15  C   UNL d   1      61.133  -0.477  29.265  0.00  0.00     0.026 A 
ATOM     16  C   UNL d   1      60.404   0.682  29.792  0.00  0.00     0.002 A 
ATOM     17  C   UNL d   1      61.133   0.320  29.536  0.00  0.00     0.002 A 
ENDROOT
BRANCH   2  18
ATOM     18  C   UNL d   1      58.308  -0.428  29.797  0.00  0.00     0.083 C 
ATOM     19  C   UNL d   1      57.971  -0.574  30.525  0.00  0.00     0.021 C 
ENDBRANCH   2  18
TORSDOF 1
ENDMDL
MODEL 2
REMARK VINA RESULT:      -2.9      1.356      3.418
REMARK  1 active torsions:
REMARK  status: ('A' for Active; 'I' for Inactive)
REMARK    1  A    between atoms: C_12  and  N_2 
ROOT
ATOM      1  C   UNL d   1      58.530  -0.107  30.272  0.00  0.00     0.267 A 
ATOM      2  N   UNL d   1      58.964  -0.468  29.704  0.00  0.00    -0.271 N 
ATOM      3  C   UNL d   1      58.022  -0.389  30.644  0.00  0.00     0.081 A 
ATOM      4  C   UNL d   1      57.674  -1.134  30.670  0.00  0.00     0.105 A 
ATOM      5  O   UNL d   1      57.781  -1.738  30.316  0.00  0.00    -0.305 OA
ATOM      6  C   UNL d   1      58.877  -1.262  29.458  0.00  0.00     0.090 A 
ATOM      7  C   UNL d   1      58.333  -1.850  29.738  0.00  0.00     0.116 A 
ATOM      8  C   UNL d   1      57.762   0.213  31.145  0.00  0.00     0.028 A 
ATOM      9  O   UNL d   1      58.709   0.682  30.427  0.00  0.00    -0.267 OA
ATOM     10  C   UNL d   1      57.062  -1.284  31.197  0.00  0.00     0.026 A 
ATOM     11  C   UNL d   1      57.148   0.065  31.674  0.00  0.00     0.103 A 
ATOM     12  N   UNL d   1      56.885   0.659  32.174  0.00  0.00    -0.148 N 
ATOM     13  C   UNL d   1      56.796  -0.688  31.700  0.00  0.00     0.023 A 
ATOM     14  C   UNL d   1      59.431  -1.460  28.843  0.00  0.00     0.020 A 
ATOM     15  C   UNL d   1      58.338  -2.631  29.409  0.00  0.00     0.026 A 
ATOM     16  C   UNL d   1      59.435  -2.244  28.513  0.00  0.00     0.002 A 
ATOM     17  C   UNL d   1      58.884  -2.830  28.800  0.00  0.00     0.002 A 
ENDROOT
BRANCH   2  18
ATOM     18  C   UNL d   1      59.542  -0.021  29.333  0.00  0.00     0.083 C 
ATOM     19  C   UNL d   1      60.193   0.235  29.753  0.00  0.00     0.021 C 
ENDBRANCH   2  18
TORSDOF 1
ENDMDL
MODEL 3
REMARK VINA RESULT:      -2.9      8.639      9.238
REMARK  1 active torsions:
REMARK  status: ('A' for Active; 'I' for Inactive)
REMARK    1  A    between atoms: C_12  and  N_2 
ROOT
ATOM      1  C   UNL d   1      59.039  -9.492  33.664  0.00  0.00     0.267 A 
ATOM      2  N   UNL d   1      59.045  -9.637  32.878  0.00  0.00    -0.271 N 
ATOM      3  C   UNL d   1      59.583  -9.332  34.058  0.00  0.00     0.081 A 
ATOM      4  C   UNL d   1      60.387  -9.230  33.915  0.00  0.00     0.105 A 
ATOM      5  O   UNL d   1      60.790  -9.273  33.335  0.00  0.00    -0.305 OA
ATOM      6  C   UNL d   1      59.721  -9.621  32.386  0.00  0.00     0.090 A 
ATOM      7  C   UNL d   1      60.527  -9.454  32.593  0.00  0.00     0.116 A 
ATOM      8  C   UNL d   1      59.278  -9.239  34.820  0.00  0.00     0.028 A 
ATOM      9  O   UNL d   1      58.309  -9.538  34.042  0.00  0.00    -0.267 OA
ATOM     10  C   UNL d   1      60.893  -9.034  34.531  0.00  0.00     0.026 A 
ATOM     11  C   UNL d   1      59.785  -9.043  35.439  0.00  0.00     0.103 A 
ATOM     12  N   UNL d   1      59.488  -8.949  36.198  0.00  0.00    -0.148 N 
ATOM     13  C   UNL d   1      60.596  -8.940  35.294  0.00  0.00     0.023 A 
ATOM     14  C   UNL d   1      59.523  -9.803  31.579  0.00  0.00     0.020 A 
ATOM     15  C   UNL d   1      61.133  -9.467  32.002  0.00  0.00     0.026 A 
ATOM     16  C   UNL d   1      60.133  -9.815  30.986  0.00  0.00     0.002 A 
ATOM     17  C   UNL d   1      60.942  -9.646  31.202  0.00  0.00     0.002 A 
ENDROOT
BRANCH   2  18
ATOM     18  C   UNL d   1      58.328  -9.818  32.524  0.00  0.00     0.083 C 
ATOM     19  C   UNL d   1      57.761  -9.239  32.431  0.00  0.00     0.021 C 
ENDBRANCH   2  18
TORSDOF 1
ENDMDL
MODEL 4
REMARK VINA RESULT:      -2.8      8.272      9.061
REMARK  1 active torsions:
REMARK  status: ('A' for Active; 'I' for Inactive)
REMARK    1  A    between atoms: C_12  and  N_2 
ROOT
ATOM      1  C   UNL d   1      59.507  -9.792  31.381  0.00  0.00     0.267 A 
ATOM      2  N   UNL d   1      60.090  -9.787  31.929  0.00  0.00    -0.271 N 
ATOM      3  C   UNL d   1      58.827  -9.799  31.502  0.00  0.00     0.081 A 
ATOM      4  C   UNL d   1      58.365  -9.806  32.183  0.00  0.00     0.105 A 
ATOM      5  O   UNL d   1      58.512  -9.805  32.876  0.00  0.00    -0.305 OA
ATOM      6  C   UNL d   1      59.978  -9.789  32.757  0.00  0.00     0.090 A 
ATOM      7  C   UNL d   1      59.252  -9.798  33.197  0.00  0.00     0.116 A 
ATOM      8  C   UNL d   1      58.475  -9.802  30.756  0.00  0.00     0.028 A 
ATOM      9  O   UNL d   1      59.742  -9.788  30.592  0.00  0.00    -0.267 OA
ATOM     10  C   UNL d   1      57.546  -9.814  32.124  0.00  0.00     0.026 A 
ATOM     11  C   UNL d   1      57.653  -9.811  30.695  0.00  0.00     0.103 A 
ATOM     12  N   UNL d   1      57.297  -9.813  29.956  0.00  0.00    -0.148 N 
ATOM     13  C   UNL d   1      57.186  -9.817  31.382  0.00  0.00     0.023 A 
ATOM     14  C   UNL d   1      60.721  -9.782  33.172  0.00  0.00     0.020 A 
ATOM     15  C   UNL d   1      59.264  -9.799  34.044  0.00  0.00     0.026 A 
ATOM     16  C   UNL d   1      60.731  -9.783  34.022  0.00  0.00     0.002 A 
ATOM     17  C   UNL d   1      59.997  -9.792  34.458  0.00  0.00     0.002 A 
ENDROOT
BRANCH   2  18
ATOM     18  C   UNL d   1      60.862  -9.778  31.655  0.00  0.00     0.083 C 
ATOM     19  C   UNL d   1      61.131  -9.147  31.212  0.00  0.00     0.021 C 
ENDBRANCH   2  18
TORSDOF 1
ENDMDL
MODEL 5
REMARK VINA RESULT:      -2.8      3.994      5.872
REMARK  1 active torsions:
REMARK  status: ('A' for Active; 'I' for Inactive)
REMARK    1  A    between atoms: C_12  and  N_2 
ROOT
ATOM      1  C   UNL d   1      57.417   0.676  33.338  0.00  0.00     0.267 A 
ATOM      2  N   UNL d   1      56.919   0.675  33.963  0.00  0.00    -0.271 N 
ATOM      3  C   UNL d   1      57.242   0.674  32.670  0.00  0.00     0.081 A 
ATOM      4  C   UNL d   1      56.526   0.669  32.264  0.00  0.00     0.105 A 
ATOM      5  O   UNL d   1      55.848   0.666  32.467  0.00  0.00    -0.305 OA
ATOM      6  C   UNL d   1      56.084   0.671  33.918  0.00  0.00     0.090 A 
ATOM      7  C   UNL d   1      55.587   0.666  33.230  0.00  0.00     0.116 A 
ATOM      8  C   UNL d   1      57.957   0.676  32.259  0.00  0.00     0.028 A 
ATOM      9  O   UNL d   1      58.223   0.681  33.509  0.00  0.00    -0.267 OA
ATOM     10  C   UNL d   1      56.519   0.667  31.443  0.00  0.00     0.026 A 
ATOM     11  C   UNL d   1      57.952   0.674  31.435  0.00  0.00     0.103 A 
ATOM     12  N   UNL d   1      58.660   0.677  31.020  0.00  0.00    -0.148 N 
ATOM     13  C   UNL d   1      57.229   0.670  31.025  0.00  0.00     0.023 A 
ATOM     14  C   UNL d   1      55.731   0.671  34.693  0.00  0.00     0.020 A 
ATOM     15  C   UNL d   1      54.743   0.662  33.311  0.00  0.00     0.026 A 
ATOM     16  C   UNL d   1      54.884   0.666  34.771  0.00  0.00     0.002 A 
ATOM     17  C   UNL d   1      54.390   0.662  34.075  0.00  0.00     0.002 A 
ENDROOT
BRANCH   2  18
ATOM     18  C   UNL d   1      57.254   0.678  34.711  0.00  0.00     0.083 C 
ATOM     19  C   UNL d   1      58.066   0.677  34.795  0.00  0.00     0.021 C 
ENDBRANCH   2  18
TORSDOF 1
ENDMDL
MODEL 6
REMARK VINA RESULT:      -2.8      0.803      2.053
REMARK  1 active torsions:
REMARK  status: ('A' for Active; 'I' for Inactive)
REMARK    1  A    between atoms: C_12  and  N_2 
ROOT
ATOM      1  C   UNL d   1      60.271  -1.382  29.058  0.00  0.00     0.267 A 
ATOM      2  N   UNL d   1      60.025  -0.652  29.275  0.00  0.00    -0.271 N 
ATOM      3  C   UNL d   1      59.896  -1.961  29.060  0.00  0.00     0.081 A 
ATOM      4  C   UNL d   1      59.119  -2.142  29.260  0.00  0.00     0.105 A 
ATOM      5  O   UNL d   1      58.573  -1.760  29.500  0.00  0.00    -0.305 OA
ATOM      6  C   UNL d   1      59.258  -0.459  29.545  0.00  0.00     0.090 A 
ATOM      7  C   UNL d   1      58.586  -0.967  29.650  0.00  0.00     0.116 A 
ATOM      8  C   UNL d   1      60.407  -2.551  28.790  0.00  0.00     0.028 A 
ATOM      9  O   UNL d   1      61.053  -1.448  28.809  0.00  0.00    -0.267 OA
ATOM     10  C   UNL d   1      58.846  -2.914  29.193  0.00  0.00     0.026 A 
ATOM     11  C   UNL d   1      60.135  -3.325  28.722  0.00  0.00     0.103 A 
ATOM     12  N   UNL d   1      60.638  -3.915  28.455  0.00  0.00    -0.148 N 
ATOM     13  C   UNL d   1      59.350  -3.508  28.925  0.00  0.00     0.023 A 
ATOM     14  C   UNL d   1      59.191   0.370  29.726  0.00  0.00     0.020 A 
ATOM     15  C   UNL d   1      57.851  -0.654  29.933  0.00  0.00     0.026 A 
ATOM     16  C   UNL d   1      58.453   0.682  30.011  0.00  0.00     0.002 A 
ATOM     17  C   UNL d   1      57.781   0.165  30.114  0.00  0.00     0.002 A 
ENDROOT
BRANCH   2  18
ATOM     18  C   UNL d   1      60.571  -0.042  29.228  0.00  0.00     0.083 C 
ATOM     19  C   UNL d   1      60.832   0.217  28.500  0.00  0.00     0.021 C 
ENDBRANCH   2  18
TORSDOF 1
ENDMDL
MODEL 7
REMARK VINA RESULT:      -2.7      2.301      3.455
REMARK  1 active torsions:
REMARK  status: ('A' for Active; 'I' for Inactive)
REMARK    1  A    between atoms: C_12  and  N_2 
ROOT
ATOM      1  C   UNL d   1      58.019   0.496  30.130  0.00  0.00     0.267 A 
ATOM      2  N   UNL d   1      58.653   0.471  29.644  0.00  0.00    -0.271 N 
ATOM      3  C   UNL d   1      58.028   0.555  30.818  0.00  0.00     0.081 A 
ATOM      4  C   UNL d   1      58.625   0.619  31.381  0.00  0.00     0.105 A 
ATOM      5  O   UNL d   1      59.332   0.634  31.346  0.00  0.00    -0.305 OA
ATOM      6  C   UNL d   1      59.452   0.512  29.885  0.00  0.00     0.090 A 
ATOM      7  C   UNL d   1      59.769   0.588  30.669  0.00  0.00     0.116 A 
ATOM      8  C   UNL d   1      57.235   0.554  31.046  0.00  0.00     0.028 A 
ATOM      9  O   UNL d   1      57.278   0.447  29.773  0.00  0.00    -0.267 OA
ATOM     10  C   UNL d   1      58.433   0.682  32.177  0.00  0.00     0.026 A 
ATOM     11  C   UNL d   1      57.042   0.618  31.844  0.00  0.00     0.103 A 
ATOM     12  N   UNL d   1      56.255   0.617  32.077  0.00  0.00    -0.148 N 
ATOM     13  C   UNL d   1      57.644   0.682  32.413  0.00  0.00     0.023 A 
ATOM     14  C   UNL d   1      59.981   0.469  29.220  0.00  0.00     0.020 A 
ATOM     15  C   UNL d   1      60.606   0.620  30.792  0.00  0.00     0.026 A 
ATOM     16  C   UNL d   1      60.822   0.502  29.346  0.00  0.00     0.002 A 
ATOM     17  C   UNL d   1      61.133   0.577  30.137  0.00  0.00     0.002 A 
ENDROOT
BRANCH   2  18
ATOM     18  C   UNL d   1      58.508   0.399  28.840  0.00  0.00     0.083 C 
ATOM     19  C   UNL d   1      58.463  -0.341  28.498  0.00  0.00     0.021 C 
ENDBRANCH   2  18
TORSDOF 1
ENDMDL
MODEL 8
REMARK VINA RESULT:      -2.6      2.536      4.408
REMARK  1 active torsions:
REMARK  status: ('A' for Active; 'I' for Inactive)
REMARK    1  A    between atoms: C_12  and  N_2 
ROOT
ATOM      1  C   UNL d   1      57.791   0.100  31.917  0.00  0.00     0.267 A 
ATOM      2  N   UNL d   1      57.324   0.103  32.567  0.00  0.00    -0.271 N 
ATOM      3  C   UNL d   1      57.757  -0.341  31.387  0.00  0.00     0.081 A 
ATOM      4  C   UNL d   1      57.278  -0.985  31.204  0.00  0.00     0.105 A 
ATOM      5  O   UNL d   1      56.738  -1.303  31.533  0.00  0.00    -0.305 OA
ATOM      6  C   UNL d   1      56.702  -0.435  32.720  0.00  0.00     0.090 A 
ATOM      7  C   UNL d   1      56.429  -1.084  32.246  0.00  0.00     0.116 A 
ATOM      8  C   UNL d   1      58.356  -0.104  30.871  0.00  0.00     0.028 A 
ATOM      9  O   UNL d   1      58.372   0.682  31.879  0.00  0.00    -0.267 OA
ATOM     10  C   UNL d   1      57.394  -1.397  30.503  0.00  0.00     0.026 A 
ATOM     11  C   UNL d   1      58.473  -0.517  30.168  0.00  0.00     0.103 A 
ATOM     12  N   UNL d   1      59.067  -0.286  29.651  0.00  0.00    -0.148 N 
ATOM     13  C   UNL d   1      57.990  -1.167  29.983  0.00  0.00     0.023 A 
ATOM     14  C   UNL d   1      56.322  -0.268  33.463  0.00  0.00     0.020 A 
ATOM     15  C   UNL d   1      55.783  -1.565  32.508  0.00  0.00     0.026 A 
ATOM     16  C   UNL d   1      55.673  -0.752  33.724  0.00  0.00     0.002 A 
ATOM     17  C   UNL d   1      55.404  -1.403  33.242  0.00  0.00     0.002 A 
ENDROOT
BRANCH   2  18
ATOM     18  C   UNL d   1      57.466   0.682  33.129  0.00  0.00     0.083 C 
ATOM     19  C   UNL d   1      58.140   0.650  33.587  0.00  0.00     0.021 C 
ENDBRANCH   2  18
TORSDOF 1
ENDMDL
MODEL 9
REMARK VINA RESULT:      -2.4      3.173      4.988
REMARK  1 active torsions:
REMARK  status: ('A' for Active; 'I' for Inactive)
REMARK    1  A    between atoms: C_12  and  N_2 
ROOT
ATOM      1  C   UNL d   1      56.602  -0.638  32.007  0.00  0.00     0.267 A 
ATOM      2  N   UNL d   1      56.171  -0.684  32.679  0.00  0.00    -0.271 N 
ATOM      3  C   UNL d   1      57.157  -0.242  31.899  0.00  0.00     0.081 A 
ATOM      4  C   UNL d   1      57.577   0.296  32.358  0.00  0.00     0.105 A 
ATOM      5  O   UNL d   1      57.508   0.533  33.021  0.00  0.00    -0.305 OA
ATOM      6  C   UNL d   1      56.320  -0.256  33.381  0.00  0.00     0.090 A 
ATOM      7  C   UNL d   1      56.935   0.306  33.543  0.00  0.00     0.116 A 
ATOM      8  C   UNL d   1      57.387  -0.401  31.122  0.00  0.00     0.028 A 
ATOM      9  O   UNL d   1      56.356  -1.111  31.379  0.00  0.00    -0.267 OA
ATOM     10  C   UNL d   1      58.232   0.680  32.045  0.00  0.00     0.026 A 
ATOM     11  C   UNL d   1      58.044  -0.016  30.807  0.00  0.00     0.103 A 
ATOM     12  N   UNL d   1      58.278  -0.169  30.036  0.00  0.00    -0.148 N 
ATOM     13  C   UNL d   1      58.468   0.528  31.270  0.00  0.00     0.023 A 
ATOM     14  C   UNL d   1      55.751  -0.443  33.987  0.00  0.00     0.020 A 
ATOM     15  C   UNL d   1      56.986   0.681  34.301  0.00  0.00     0.026 A 
ATOM     16  C   UNL d   1      55.804  -0.065  34.747  0.00  0.00     0.002 A 
ATOM     17  C   UNL d   1      56.425   0.499  34.902  0.00  0.00     0.002 A 
ENDROOT
BRANCH   2  18
ATOM     18  C   UNL d   1      55.530  -1.196  32.681  0.00  0.00     0.083 C 
ATOM     19  C   UNL d   1      55.626  -1.970  32.918  0.00  0.00     0.021 C 
ENDBRANCH   2  18
TORSDOF 1
ENDMDL
