MODEL 1
REMARK VINA RESULT:      39.3      0.000      0.000
REMARK  6 active torsions:
REMARK  status: ('A' for Active; 'I' for Inactive)
REMARK    1  A    between atoms: C_2  and  S_1 
REMARK    2  A    between atoms: N_7  and  S_1 
REMARK    3  A    between atoms: C_15  and  N_7 
REMARK    4  A    between atoms: C_14  and  O_21 
REMARK    5  A    between atoms: C_24  and  C_15 
REMARK    6  A    between atoms: O_21  and  C_24 
ROOT
ATOM      1  S   UNL d   1     -54.764-101.750 -39.564  0.00  0.00     0.285 S 
ATOM      2  O   UNL d   1     -54.762-100.954 -39.323  0.00  0.00    -0.198 OA
ATOM      3  O   UNL d   1     -54.766-102.540 -39.805  0.00  0.00    -0.198 OA
ENDROOT
BRANCH   1   4
ATOM      4  C   UNL d   1     -54.775-101.500 -40.363  0.00  0.00     0.107 A 
ATOM      5  C   UNL d   1     -54.845-102.047 -40.966  0.00  0.00     0.040 A 
ATOM      6  C   UNL d   1     -54.855-101.792 -41.742  0.00  0.00     0.123 A 
ATOM      7  O   UNL d   1     -54.925-102.341 -42.354  0.00  0.00    -0.301 OA
ATOM      8  C   UNL d   1     -54.795-100.986 -41.916  0.00  0.00     0.123 A 
ATOM      9  C   UNL d   1     -54.935-102.087 -43.139  0.00  0.00     0.149 A 
ATOM     10  C   UNL d   1     -54.875-101.282 -43.313  0.00  0.00     0.149 A 
ATOM     11  O   UNL d   1     -54.805-100.733 -42.701  0.00  0.00    -0.301 OA
ATOM     12  C   UNL d   1     -54.725-100.439 -41.313  0.00  0.00     0.028 A 
ATOM     13  C   UNL d   1     -54.716-100.694 -40.537  0.00  0.00     0.015 A 
ENDBRANCH   1   4
BRANCH   1  14
ATOM     14  N   UNL d   1     -54.753-101.988 -38.771  0.00  0.00    -0.155 NA
BRANCH  14  15
ATOM     15  C   UNL d   1     -55.459-102.142 -38.377  0.00  0.00     0.139 C 
BRANCH  15  16
ATOM     16  C   UNL d   1     -55.550-102.829 -37.933  0.00  0.00     0.144 C 
BRANCH  16  17
ATOM     17  O   UNL d   1     -55.244-102.877 -37.170  0.00  0.00    -0.303 OA
BRANCH  17  18
ATOM     18  C   UNL d   1     -55.121-102.195 -36.724  0.00  0.00     0.100 A 
ATOM     19  C   UNL d   1     -54.905-101.494 -37.102  0.00  0.00     0.027 A 
ATOM     20  C   UNL d   1     -54.780-100.808 -36.659  0.00  0.00     0.032 A 
ATOM     21  C   UNL d   1     -54.871-100.825 -35.838  0.00  0.00     0.140 A 
ATOM     22  C   UNL d   1     -55.087-101.526 -35.461  0.00  0.00     0.032 A 
ATOM     23  F   UNL d   1     -54.746-100.133 -35.383  0.00  0.00    -0.204 F 
ATOM     24  C   UNL d   1     -55.211-102.208 -35.906  0.00  0.00     0.027 A 
ENDBRANCH  17  18
ENDBRANCH  16  17
ENDBRANCH  15  16
ENDBRANCH  14  15
ENDBRANCH   1  14
TORSDOF 6
ENDMDL
MODEL 2
REMARK VINA RESULT:      40.7      2.844      5.881
REMARK  6 active torsions:
REMARK  status: ('A' for Active; 'I' for Inactive)
REMARK    1  A    between atoms: C_2  and  S_1 
REMARK    2  A    between atoms: N_7  and  S_1 
REMARK    3  A    between atoms: C_15  and  N_7 
REMARK    4  A    between atoms: C_14  and  O_21 
REMARK    5  A    between atoms: C_24  and  C_15 
REMARK    6  A    between atoms: O_21  and  C_24 
ROOT
ATOM      1  S   UNL d   1     -55.291-102.139 -41.264  0.00  0.00     0.285 S 
ATOM      2  O   UNL d   1     -55.873-102.705 -41.448  0.00  0.00    -0.198 OA
ATOM      3  O   UNL d   1     -54.714-101.579 -41.080  0.00  0.00    -0.198 OA
ENDROOT
BRANCH   1   4
ATOM      4  C   UNL d   1     -55.410-102.295 -40.450  0.00  0.00     0.107 A 
ATOM      5  C   UNL d   1     -56.164-102.422 -40.161  0.00  0.00     0.040 A 
ATOM      6  C   UNL d   1     -56.269-102.572 -39.364  0.00  0.00     0.123 A 
ATOM      7  O   UNL d   1     -57.028-102.701 -39.068  0.00  0.00    -0.301 OA
ATOM      8  C   UNL d   1     -55.619-102.596 -38.855  0.00  0.00     0.123 A 
ATOM      9  C   UNL d   1     -57.139-102.854 -38.265  0.00  0.00     0.149 A 
ATOM     10  C   UNL d   1     -56.489-102.877 -37.756  0.00  0.00     0.149 A 
ATOM     11  O   UNL d   1     -55.729-102.748 -38.052  0.00  0.00    -0.301 OA
ATOM     12  C   UNL d   1     -54.865-102.468 -39.144  0.00  0.00     0.028 A 
ATOM     13  C   UNL d   1     -54.760-102.318 -39.941  0.00  0.00     0.015 A 
ENDBRANCH   1   4
BRANCH   1  14
ATOM     14  N   UNL d   1     -55.181-101.994 -42.071  0.00  0.00    -0.155 NA
BRANCH  14  15
ATOM     15  C   UNL d   1     -54.741-101.342 -42.316  0.00  0.00     0.139 C 
BRANCH  15  16
ATOM     16  C   UNL d   1     -54.831-101.038 -43.076  0.00  0.00     0.144 C 
BRANCH  16  17
ATOM     17  O   UNL d   1     -55.099-100.268 -43.190  0.00  0.00    -0.303 OA
BRANCH  17  18
ATOM     18  C   UNL d   1     -55.378-100.027 -43.927  0.00  0.00     0.100 A 
ATOM     19  C   UNL d   1     -55.985 -99.470 -43.971  0.00  0.00     0.027 A 
ATOM     20  C   UNL d   1     -56.267 -99.225 -44.708  0.00  0.00     0.032 A 
ATOM     21  C   UNL d   1     -55.941 -99.537 -45.399  0.00  0.00     0.140 A 
ATOM     22  C   UNL d   1     -55.333-100.094 -45.354  0.00  0.00     0.032 A 
ATOM     23  F   UNL d   1     -56.223 -99.293 -46.149  0.00  0.00    -0.204 F 
ATOM     24  C   UNL d   1     -55.055-100.335 -44.618  0.00  0.00     0.027 A 
ENDBRANCH  17  18
ENDBRANCH  16  17
ENDBRANCH  15  16
ENDBRANCH  14  15
ENDBRANCH   1  14
TORSDOF 6
ENDMDL
MODEL 3
REMARK VINA RESULT:      41.3      5.372      6.854
REMARK  6 active torsions:
REMARK  status: ('A' for Active; 'I' for Inactive)
REMARK    1  A    between atoms: C_2  and  S_1 
REMARK    2  A    between atoms: N_7  and  S_1 
REMARK    3  A    between atoms: C_15  and  N_7 
REMARK    4  A    between atoms: C_14  and  O_21 
REMARK    5  A    between atoms: C_24  and  C_15 
REMARK    6  A    between atoms: O_21  and  C_24 
ROOT
ATOM      1  S   UNL d   1     -56.013 -99.186 -43.818  0.00  0.00     0.285 S 
ATOM      2  O   UNL d   1     -56.353 -99.620 -43.195  0.00  0.00    -0.198 OA
ATOM      3  O   UNL d   1     -55.677 -98.756 -44.437  0.00  0.00    -0.198 OA
ENDROOT
BRANCH   1   4
ATOM      4  C   UNL d   1     -56.775 -99.078 -44.147  0.00  0.00     0.107 A 
ATOM      5  C   UNL d   1     -57.436 -99.089 -43.667  0.00  0.00     0.040 A 
ATOM      6  C   UNL d   1     -58.176 -98.982 -43.998  0.00  0.00     0.123 A 
ATOM      7  O   UNL d   1     -58.846 -98.992 -43.516  0.00  0.00    -0.301 OA
ATOM      8  C   UNL d   1     -58.254 -98.864 -44.812  0.00  0.00     0.123 A 
ATOM      9  C   UNL d   1     -59.594 -98.884 -43.847  0.00  0.00     0.149 A 
ATOM     10  C   UNL d   1     -59.673 -98.766 -44.661  0.00  0.00     0.149 A 
ATOM     11  O   UNL d   1     -59.003 -98.756 -45.142  0.00  0.00    -0.301 OA
ATOM     12  C   UNL d   1     -57.593 -98.853 -45.292  0.00  0.00     0.028 A 
ATOM     13  C   UNL d   1     -56.854 -98.960 -44.961  0.00  0.00     0.015 A 
ENDBRANCH   1   4
BRANCH   1  14
ATOM     14  N   UNL d   1     -55.264 -99.299 -43.485  0.00  0.00    -0.155 NA
BRANCH  14  15
ATOM     15  C   UNL d   1     -55.031-100.050 -43.239  0.00  0.00     0.139 C 
BRANCH  15  16
ATOM     16  C   UNL d   1     -54.716-100.588 -43.776  0.00  0.00     0.144 C 
BRANCH  16  17
ATOM     17  O   UNL d   1     -54.977-101.368 -43.790  0.00  0.00    -0.303 OA
BRANCH  17  18
ATOM     18  C   UNL d   1     -55.140-101.743 -44.505  0.00  0.00     0.100 A 
ATOM     19  C   UNL d   1     -55.735-102.313 -44.541  0.00  0.00     0.027 A 
ATOM     20  C   UNL d   1     -55.902-102.692 -45.256  0.00  0.00     0.032 A 
ATOM     21  C   UNL d   1     -55.472-102.499 -45.934  0.00  0.00     0.140 A 
ATOM     22  C   UNL d   1     -54.878-101.928 -45.898  0.00  0.00     0.032 A 
ATOM     23  F   UNL d   1     -55.636-102.879 -46.663  0.00  0.00    -0.204 F 
ATOM     24  C   UNL d   1     -54.715-101.553 -45.183  0.00  0.00     0.027 A 
ENDBRANCH  17  18
ENDBRANCH  16  17
ENDBRANCH  15  16
ENDBRANCH  14  15
ENDBRANCH   1  14
TORSDOF 6
ENDMDL
