MODEL 1
REMARK VINA RESULT:      74.5      0.000      0.000
REMARK  5 active torsions:
REMARK  status: ('A' for Active; 'I' for Inactive)
REMARK    1  A    between atoms: S_2  and  C_1 
REMARK    2  A    between atoms: N_3  and  C_1 
REMARK    3  A    between atoms: C_4  and  C_1 
REMARK    4  A    between atoms: C_6  and  S_2 
REMARK       I    between atoms: C_5  and  N_3 
REMARK    5  A    between atoms: C_9  and  C_5 
ROOT
ATOM      1  C   UNL d   1     -55.715-100.777 -43.362  0.00  0.00     0.193 C 
ENDROOT
BRANCH   1   2
ATOM      2  S   UNL d   1     -55.515-101.216 -42.721  0.00  0.00     0.228 S 
ATOM      3  O   UNL d   1     -55.838-101.898 -43.063  0.00  0.00    -0.216 OA
ATOM      4  O   UNL d   1     -55.230-100.614 -42.420  0.00  0.00    -0.216 OA
BRANCH   2   5
ATOM      5  C   UNL d   1     -55.327-101.569 -42.150  0.00  0.00     0.090 A 
ATOM      6  C   UNL d   1     -54.961-101.186 -41.483  0.00  0.00     0.012 A 
ATOM      7  C   UNL d   1     -54.739-101.638 -40.792  0.00  0.00     0.012 A 
ATOM      8  C   UNL d   1     -54.884-102.469 -40.773  0.00  0.00     0.058 A 
ATOM      9  C   UNL d   1     -55.242-102.850 -41.422  0.00  0.00     0.012 A 
ATOM     10 CL   UNL d   1     -54.712-102.777 -40.256  0.00  0.00    -0.082 Cl
ATOM     11  C   UNL d   1     -55.464-102.398 -42.113  0.00  0.00     0.012 A 
ENDBRANCH   2   5
ENDBRANCH   1   2
BRANCH   1  12
ATOM     12  N   UNL d   1     -56.418-100.297 -43.344  0.00  0.00    -0.195 NA
ATOM     13  C   UNL d   1     -56.875-100.107 -44.042  0.00  0.00     0.280 C 
ATOM     14  O   UNL d   1     -56.605-100.423 -44.814  0.00  0.00    -0.265 OA
BRANCH  13  15
ATOM     15  C   UNL d   1     -57.475 -99.717 -44.138  0.00  0.00     0.058 A 
ATOM     16  C   UNL d   1     -57.843 -99.946 -44.838  0.00  0.00     0.005 A 
ATOM     17  C   UNL d   1     -58.542 -99.587 -45.080  0.00  0.00     0.000 A 
ATOM     18  C   UNL d   1     -58.869 -98.993 -44.611  0.00  0.00     0.000 A 
ATOM     19  C   UNL d   1     -58.501 -98.763 -43.911  0.00  0.00     0.000 A 
ATOM     20  C   UNL d   1     -59.390 -98.759 -44.839  0.00  0.00     0.000 C 
ATOM     21  C   UNL d   1     -57.805 -99.128 -43.679  0.00  0.00     0.005 A 
ENDBRANCH  13  15
ENDBRANCH   1  12
BRANCH   1  22
ATOM     22  C   UNL d   1     -55.220-100.810 -44.026  0.00  0.00     0.144 C 
ATOM     23 CL   UNL d   1     -54.715-100.128 -44.215  0.00  0.00    -0.068 Cl
ATOM     24 CL   UNL d   1     -55.189-101.491 -44.532  0.00  0.00    -0.068 Cl
ENDBRANCH   1  22
TORSDOF 5
ENDMDL
