MODEL 1
REMARK VINA RESULT:      -6.7      0.000      0.000
REMARK  5 active torsions:
REMARK  status: ('A' for Active; 'I' for Inactive)
REMARK    1  A    between atoms: C_8  and  N_1 
REMARK    2  A    between atoms: C_5  and  C_21 
REMARK    3  A    between atoms: C_9  and  C_12 
REMARK       I    between atoms: N_20  and  C_9 
REMARK    4  A    between atoms: C_22  and  N_20 
REMARK    5  A    between atoms: C_21  and  C_22 
ROOT
ATOM      1  C   UNL d   1     -43.235  12.687  21.383  0.00  0.00     0.026 C 
ENDROOT
BRANCH   1   2
ATOM      2  C   UNL d   1     -43.914  12.608  21.837  0.00  0.00     0.059 A 
ATOM      3  C   UNL d   1     -43.984  11.964  22.365  0.00  0.00     0.279 A 
ATOM      4  N   UNL d   1     -44.669  11.881  22.826  0.00  0.00    -0.208 NA
ATOM      5  O   UNL d   1     -43.374  11.413  22.427  0.00  0.00    -0.265 OA
ATOM      6  C   UNL d   1     -45.285  12.441  22.761  0.00  0.00     0.085 A 
ATOM      7  C   UNL d   1     -45.209  13.076  22.236  0.00  0.00     0.018 A 
ATOM      8  C   UNL d   1     -45.966  12.350  23.225  0.00  0.00     0.019 A 
ATOM      9  C   UNL d   1     -44.529  13.161  21.776  0.00  0.00     0.006 A 
ATOM     10  C   UNL d   1     -45.826  13.630  22.176  0.00  0.00     0.002 A 
ATOM     11  C   UNL d   1     -46.506  13.544  22.635  0.00  0.00     0.000 A 
ATOM     12  C   UNL d   1     -46.576  12.901  23.163  0.00  0.00     0.002 A 
ATOM     13  C   UNL d   1     -47.117  14.089  22.578  0.00  0.00     0.000 C 
ATOM     14  C   UNL d   1     -47.256  12.816  23.622  0.00  0.00     0.000 C 
ENDBRANCH   1   2
BRANCH   1  15
ATOM     15  C   UNL d   1     -42.831  13.401  21.350  0.00  0.00     0.102 C 
BRANCH  15  16
ATOM     16  N   UNL d   1     -42.132  13.477  20.913  0.00  0.00    -0.206 NA
ATOM     17  C   UNL d   1     -41.749  14.209  20.862  0.00  0.00     0.279 C 
ATOM     18  O   UNL d   1     -42.059  14.868  21.243  0.00  0.00    -0.265 OA
BRANCH  17  19
ATOM     19  C   UNL d   1     -41.049  14.276  20.423  0.00  0.00     0.059 A 
ATOM     20  C   UNL d   1     -41.073  14.322  19.615  0.00  0.00     0.028 A 
ATOM     21  C   UNL d   1     -40.399  14.388  19.165  0.00  0.00     0.127 A 
ATOM     22  C   UNL d   1     -39.671  14.409  19.543  0.00  0.00     0.024 A 
ATOM     23  C   UNL d   1     -39.612  14.365  20.355  0.00  0.00     0.002 A 
ATOM     24  C   UNL d   1     -40.321  14.297  20.797  0.00  0.00     0.005 A 
BRANCH  21  25
ATOM     25  N   UNL d   1     -40.418  14.435  18.340  0.00  0.00    -0.114 N 
ATOM     26  O   UNL d   1     -40.509  13.718  17.890  0.00  0.00    -0.532 OA
ATOM     27  O   UNL d   1     -40.354  15.149  17.920  0.00  0.00    -0.532 OA
ENDBRANCH  21  25
ENDBRANCH  17  19
ENDBRANCH  15  16
ENDBRANCH   1  15
TORSDOF 5
ENDMDL
MODEL 2
REMARK VINA RESULT:      -5.5      2.003      3.587
REMARK  5 active torsions:
REMARK  status: ('A' for Active; 'I' for Inactive)
REMARK    1  A    between atoms: C_8  and  N_1 
REMARK    2  A    between atoms: C_5  and  C_21 
REMARK    3  A    between atoms: C_9  and  C_12 
REMARK       I    between atoms: N_20  and  C_9 
REMARK    4  A    between atoms: C_22  and  N_20 
REMARK    5  A    between atoms: C_21  and  C_22 
ROOT
ATOM      1  C   UNL d   1     -46.237  13.813  22.781  0.00  0.00     0.026 C 
ENDROOT
BRANCH   1   2
ATOM      2  C   UNL d   1     -47.049  13.760  22.886  0.00  0.00     0.059 A 
ATOM      3  C   UNL d   1     -47.523  14.441  22.788  0.00  0.00     0.279 A 
ATOM      4  N   UNL d   1     -48.344  14.392  22.893  0.00  0.00    -0.208 NA
ATOM      5  O   UNL d   1     -47.174  15.161  22.587  0.00  0.00    -0.265 OA
ATOM      6  C   UNL d   1     -48.695  13.661  23.096  0.00  0.00     0.085 A 
ATOM      7  C   UNL d   1     -48.219  12.991  23.192  0.00  0.00     0.018 A 
ATOM      8  C   UNL d   1     -49.516  13.621  23.199  0.00  0.00     0.019 A 
ATOM      9  C   UNL d   1     -47.402  13.038  23.088  0.00  0.00     0.006 A 
ATOM     10  C   UNL d   1     -48.575  12.267  23.394  0.00  0.00     0.002 A 
ATOM     11  C   UNL d   1     -49.392  12.221  23.498  0.00  0.00     0.000 A 
ATOM     12  C   UNL d   1     -49.865  12.901  23.400  0.00  0.00     0.002 A 
ATOM     13  C   UNL d   1     -49.745  11.507  23.698  0.00  0.00     0.000 C 
ATOM     14  C   UNL d   1     -50.682  12.855  23.504  0.00  0.00     0.000 C 
ENDBRANCH   1   2
BRANCH   1  15
ATOM     15  C   UNL d   1     -45.854  13.352  22.221  0.00  0.00     0.102 C 
BRANCH  15  16
ATOM     16  N   UNL d   1     -45.030  13.264  22.229  0.00  0.00    -0.206 NA
ATOM     17  C   UNL d   1     -44.642  12.901  21.595  0.00  0.00     0.279 C 
ATOM     18  O   UNL d   1     -45.070  12.623  20.951  0.00  0.00    -0.265 OA
BRANCH  17  19
ATOM     19  C   UNL d   1     -43.818  12.818  21.612  0.00  0.00     0.059 A 
ATOM     20  C   UNL d   1     -43.344  13.332  21.204  0.00  0.00     0.028 A 
ATOM     21  C   UNL d   1     -42.533  13.268  21.207  0.00  0.00     0.127 A 
ATOM     22  C   UNL d   1     -42.184  12.663  21.638  0.00  0.00     0.024 A 
ATOM     23  C   UNL d   1     -42.634  12.129  22.060  0.00  0.00     0.002 A 
ATOM     24  C   UNL d   1     -43.467  12.215  22.041  0.00  0.00     0.005 A 
BRANCH  21  25
ATOM     25  N   UNL d   1     -42.045  13.790  20.792  0.00  0.00    -0.114 N 
ATOM     26  O   UNL d   1     -41.795  13.581  20.006  0.00  0.00    -0.532 OA
ATOM     27  O   UNL d   1     -41.782  14.516  21.102  0.00  0.00    -0.532 OA
ENDBRANCH  21  25
ENDBRANCH  17  19
ENDBRANCH  15  16
ENDBRANCH   1  15
TORSDOF 5
ENDMDL
MODEL 3
REMARK VINA RESULT:      -5.4      3.418      6.680
REMARK  5 active torsions:
REMARK  status: ('A' for Active; 'I' for Inactive)
REMARK    1  A    between atoms: C_8  and  N_1 
REMARK    2  A    between atoms: C_5  and  C_21 
REMARK    3  A    between atoms: C_9  and  C_12 
REMARK       I    between atoms: N_20  and  C_9 
REMARK    4  A    between atoms: C_22  and  N_20 
REMARK    5  A    between atoms: C_21  and  C_22 
ROOT
ATOM      1  C   UNL d   1     -46.828  12.762  22.818  0.00  0.00     0.026 C 
ENDROOT
BRANCH   1   2
ATOM      2  C   UNL d   1     -46.040  12.553  22.718  0.00  0.00     0.059 A 
ATOM      3  C   UNL d   1     -45.730  11.903  23.142  0.00  0.00     0.279 A 
ATOM      4  N   UNL d   1     -44.935  11.688  23.044  0.00  0.00    -0.208 NA
ATOM      5  O   UNL d   1     -46.213  11.476  23.656  0.00  0.00    -0.265 OA
ATOM      6  C   UNL d   1     -44.447  12.123  22.523  0.00  0.00     0.085 A 
ATOM      7  C   UNL d   1     -44.762  12.765  22.107  0.00  0.00     0.018 A 
ATOM      8  C   UNL d   1     -43.654  11.901  22.432  0.00  0.00     0.019 A 
ATOM      9  C   UNL d   1     -45.552  12.980  22.202  0.00  0.00     0.006 A 
ATOM     10  C   UNL d   1     -44.271  13.193  21.589  0.00  0.00     0.002 A 
ATOM     11  C   UNL d   1     -43.481  12.977  21.494  0.00  0.00     0.000 A 
ATOM     12  C   UNL d   1     -43.170  12.328  21.917  0.00  0.00     0.002 A 
ATOM     13  C   UNL d   1     -42.994  13.398  20.984  0.00  0.00     0.000 C 
ATOM     14  C   UNL d   1     -42.380  12.112  21.822  0.00  0.00     0.000 C 
ENDBRANCH   1   2
BRANCH   1  15
ATOM     15  C   UNL d   1     -47.077  13.535  22.697  0.00  0.00     0.102 C 
BRANCH  15  16
ATOM     16  N   UNL d   1     -47.879  13.736  22.727  0.00  0.00    -0.206 NA
ATOM     17  C   UNL d   1     -48.114  14.527  22.670  0.00  0.00     0.279 C 
ATOM     18  O   UNL d   1     -47.554  15.122  22.582  0.00  0.00    -0.265 OA
BRANCH  17  19
ATOM     19  C   UNL d   1     -48.920  14.718  22.700  0.00  0.00     0.059 A 
ATOM     20  C   UNL d   1     -49.445  14.373  22.190  0.00  0.00     0.028 A 
ATOM     21  C   UNL d   1     -50.240  14.546  22.203  0.00  0.00     0.127 A 
ATOM     22  C   UNL d   1     -50.518  15.090  22.752  0.00  0.00     0.024 A 
ATOM     23  C   UNL d   1     -50.015  15.455  23.280  0.00  0.00     0.002 A 
ATOM     24  C   UNL d   1     -49.200  15.260  23.247  0.00  0.00     0.005 A 
BRANCH  21  25
ATOM     25  N   UNL d   1     -50.779  14.196  21.684  0.00  0.00    -0.114 N 
ATOM     26  O   UNL d   1     -51.064  14.648  21.022  0.00  0.00    -0.532 OA
ATOM     27  O   UNL d   1     -51.062  13.420  21.773  0.00  0.00    -0.532 OA
ENDBRANCH  21  25
ENDBRANCH  17  19
ENDBRANCH  15  16
ENDBRANCH   1  15
TORSDOF 5
ENDMDL
MODEL 4
REMARK VINA RESULT:      -5.3      2.124      5.945
REMARK  5 active torsions:
REMARK  status: ('A' for Active; 'I' for Inactive)
REMARK    1  A    between atoms: C_8  and  N_1 
REMARK    2  A    between atoms: C_5  and  C_21 
REMARK    3  A    between atoms: C_9  and  C_12 
REMARK       I    between atoms: N_20  and  C_9 
REMARK    4  A    between atoms: C_22  and  N_20 
REMARK    5  A    between atoms: C_21  and  C_22 
ROOT
ATOM      1  C   UNL d   1     -44.113  12.882  21.455  0.00  0.00     0.026 C 
ENDROOT
BRANCH   1   2
ATOM      2  C   UNL d   1     -43.315  13.073  21.435  0.00  0.00     0.059 A 
ATOM      3  C   UNL d   1     -42.753  12.524  21.720  0.00  0.00     0.279 A 
ATOM      4  N   UNL d   1     -41.946  12.713  21.703  0.00  0.00    -0.208 NA
ATOM      5  O   UNL d   1     -43.001  11.796  22.018  0.00  0.00    -0.265 OA
ATOM      6  C   UNL d   1     -41.697  13.451  21.400  0.00  0.00     0.085 A 
ATOM      7  C   UNL d   1     -42.259  13.989  21.120  0.00  0.00     0.018 A 
ATOM      8  C   UNL d   1     -40.888  13.631  21.386  0.00  0.00     0.019 A 
ATOM      9  C   UNL d   1     -43.063  13.804  21.136  0.00  0.00     0.006 A 
ATOM     10  C   UNL d   1     -42.005  14.722  20.820  0.00  0.00     0.002 A 
ATOM     11  C   UNL d   1     -41.202  14.908  20.804  0.00  0.00     0.000 A 
ATOM     12  C   UNL d   1     -40.640  14.359  21.088  0.00  0.00     0.002 A 
ATOM     13  C   UNL d   1     -40.948  15.631  20.509  0.00  0.00     0.000 C 
ATOM     14  C   UNL d   1     -39.837  14.545  21.072  0.00  0.00     0.000 C 
ENDBRANCH   1   2
BRANCH   1  15
ATOM     15  C   UNL d   1     -44.632  13.292  21.940  0.00  0.00     0.102 C 
BRANCH  15  16
ATOM     16  N   UNL d   1     -45.405  13.022  22.066  0.00  0.00    -0.206 NA
ATOM     17  C   UNL d   1     -45.926  13.453  22.542  0.00  0.00     0.279 C 
ATOM     18  O   UNL d   1     -45.683  14.154  22.895  0.00  0.00    -0.265 OA
BRANCH  17  19
ATOM     19  C   UNL d   1     -46.698  13.175  22.661  0.00  0.00     0.059 A 
ATOM     20  C   UNL d   1     -47.291  13.371  22.146  0.00  0.00     0.028 A 
ATOM     21  C   UNL d   1     -48.055  13.110  22.244  0.00  0.00     0.127 A 
ATOM     22  C   UNL d   1     -48.229  12.631  22.888  0.00  0.00     0.024 A 
ATOM     23  C   UNL d   1     -47.655  12.415  23.425  0.00  0.00     0.002 A 
ATOM     24  C   UNL d   1     -46.876  12.697  23.302  0.00  0.00     0.005 A 
BRANCH  21  25
ATOM     25  N   UNL d   1     -48.663  13.307  21.721  0.00  0.00    -0.114 N 
ATOM     26  O   UNL d   1     -48.805  12.805  21.049  0.00  0.00    -0.532 OA
ATOM     27  O   UNL d   1     -49.148  13.976  21.814  0.00  0.00    -0.532 OA
ENDBRANCH  21  25
ENDBRANCH  17  19
ENDBRANCH  15  16
ENDBRANCH   1  15
TORSDOF 5
ENDMDL
MODEL 5
REMARK VINA RESULT:      -5.2      1.456      2.229
REMARK  5 active torsions:
REMARK  status: ('A' for Active; 'I' for Inactive)
REMARK    1  A    between atoms: C_8  and  N_1 
REMARK    2  A    between atoms: C_5  and  C_21 
REMARK    3  A    between atoms: C_9  and  C_12 
REMARK       I    between atoms: N_20  and  C_9 
REMARK    4  A    between atoms: C_22  and  N_20 
REMARK    5  A    between atoms: C_21  and  C_22 
ROOT
ATOM      1  C   UNL d   1     -44.883  12.752  22.565  0.00  0.00     0.026 C 
ENDROOT
BRANCH   1   2
ATOM      2  C   UNL d   1     -45.676  12.876  22.734  0.00  0.00     0.059 A 
ATOM      3  C   UNL d   1     -46.109  12.286  23.137  0.00  0.00     0.279 A 
ATOM      4  N   UNL d   1     -46.911  12.408  23.310  0.00  0.00    -0.208 NA
ATOM      5  O   UNL d   1     -45.739  11.584  23.362  0.00  0.00    -0.265 OA
ATOM      6  C   UNL d   1     -47.283  13.120  23.081  0.00  0.00     0.085 A 
ATOM      7  C   UNL d   1     -46.848  13.700  22.682  0.00  0.00     0.018 A 
ATOM      8  C   UNL d   1     -48.085  13.233  23.258  0.00  0.00     0.019 A 
ATOM      9  C   UNL d   1     -46.050  13.581  22.509  0.00  0.00     0.006 A 
ATOM     10  C   UNL d   1     -47.224  14.406  22.456  0.00  0.00     0.002 A 
ATOM     11  C   UNL d   1     -48.022  14.525  22.630  0.00  0.00     0.000 A 
ATOM     12  C   UNL d   1     -48.454  13.935  23.032  0.00  0.00     0.002 A 
ATOM     13  C   UNL d   1     -48.396  15.221  22.408  0.00  0.00     0.000 C 
ATOM     14  C   UNL d   1     -49.252  14.054  23.206  0.00  0.00     0.000 C 
ENDBRANCH   1   2
BRANCH   1  15
ATOM     15  C   UNL d   1     -44.553  13.028  21.866  0.00  0.00     0.102 C 
BRANCH  15  16
ATOM     16  N   UNL d   1     -43.781  13.328  21.845  0.00  0.00    -0.206 NA
ATOM     17  C   UNL d   1     -43.269  13.123  21.229  0.00  0.00     0.279 C 
ATOM     18  O   UNL d   1     -43.521  12.619  20.630  0.00  0.00    -0.265 OA
BRANCH  17  19
ATOM     19  C   UNL d   1     -42.499  13.427  21.217  0.00  0.00     0.059 A 
ATOM     20  C   UNL d   1     -42.364  14.199  21.012  0.00  0.00     0.028 A 
ATOM     21  C   UNL d   1     -41.616  14.518  20.993  0.00  0.00     0.127 A 
ATOM     22  C   UNL d   1     -40.977  14.042  21.189  0.00  0.00     0.024 A 
ATOM     23  C   UNL d   1     -41.079  13.261  21.400  0.00  0.00     0.002 A 
ATOM     24  C   UNL d   1     -41.859  12.954  21.411  0.00  0.00     0.005 A 
BRANCH  21  25
ATOM     25  N   UNL d   1     -41.475  15.305  20.785  0.00  0.00    -0.114 N 
ATOM     26  O   UNL d   1     -40.733  15.505  20.418  0.00  0.00    -0.532 OA
ATOM     27  O   UNL d   1     -42.021  15.919  20.914  0.00  0.00    -0.532 OA
ENDBRANCH  21  25
ENDBRANCH  17  19
ENDBRANCH  15  16
ENDBRANCH   1  15
TORSDOF 5
ENDMDL
MODEL 6
REMARK VINA RESULT:      -4.2      3.548      6.683
REMARK  5 active torsions:
REMARK  status: ('A' for Active; 'I' for Inactive)
REMARK    1  A    between atoms: C_8  and  N_1 
REMARK    2  A    between atoms: C_5  and  C_21 
REMARK    3  A    between atoms: C_9  and  C_12 
REMARK       I    between atoms: N_20  and  C_9 
REMARK    4  A    between atoms: C_22  and  N_20 
REMARK    5  A    between atoms: C_21  and  C_22 
ROOT
ATOM      1  C   UNL d   1     -46.466  13.637  22.174  0.00  0.00     0.026 C 
ENDROOT
BRANCH   1   2
ATOM      2  C   UNL d   1     -45.866  13.107  22.353  0.00  0.00     0.059 A 
ATOM      3  C   UNL d   1     -45.072  13.316  22.200  0.00  0.00     0.279 A 
ATOM      4  N   UNL d   1     -44.462  12.783  22.380  0.00  0.00    -0.208 NA
ATOM      5  O   UNL d   1     -44.894  14.051  21.872  0.00  0.00    -0.265 OA
ATOM      6  C   UNL d   1     -44.645  12.038  22.713  0.00  0.00     0.085 A 
ATOM      7  C   UNL d   1     -45.434  11.838  22.861  0.00  0.00     0.018 A 
ATOM      8  C   UNL d   1     -44.030  11.512  22.889  0.00  0.00     0.019 A 
ATOM      9  C   UNL d   1     -46.042  12.367  22.683  0.00  0.00     0.006 A 
ATOM     10  C   UNL d   1     -45.609  11.096  23.193  0.00  0.00     0.002 A 
ATOM     11  C   UNL d   1     -45.001  10.567  23.370  0.00  0.00     0.000 A 
ATOM     12  C   UNL d   1     -44.207  10.777  23.218  0.00  0.00     0.002 A 
ATOM     13  C   UNL d   1     -45.171   9.834  23.698  0.00  0.00     0.000 C 
ATOM     14  C   UNL d   1     -43.599  10.248  23.396  0.00  0.00     0.000 C 
ENDBRANCH   1   2
BRANCH   1  15
ATOM     15  C   UNL d   1     -46.830  14.077  22.764  0.00  0.00     0.102 C 
BRANCH  15  16
ATOM     16  N   UNL d   1     -47.649  14.043  22.879  0.00  0.00    -0.206 NA
ATOM     17  C   UNL d   1     -48.128  14.684  22.667  0.00  0.00     0.279 C 
ATOM     18  O   UNL d   1     -47.795  15.360  22.340  0.00  0.00    -0.265 OA
BRANCH  17  19
ATOM     19  C   UNL d   1     -48.947  14.641  22.787  0.00  0.00     0.059 A 
ATOM     20  C   UNL d   1     -49.443  14.459  22.173  0.00  0.00     0.028 A 
ATOM     21  C   UNL d   1     -50.250  14.412  22.269  0.00  0.00     0.127 A 
ATOM     22  C   UNL d   1     -50.570  14.553  23.011  0.00  0.00     0.024 A 
ATOM     23  C   UNL d   1     -50.097  14.739  23.649  0.00  0.00     0.002 A 
ATOM     24  C   UNL d   1     -49.269  14.781  23.527  0.00  0.00     0.005 A 
BRANCH  21  25
ATOM     25  N   UNL d   1     -50.760  14.227  21.646  0.00  0.00    -0.114 N 
ATOM     26  O   UNL d   1     -51.064  14.858  21.164  0.00  0.00    -0.532 OA
ATOM     27  O   UNL d   1     -50.995  13.451  21.462  0.00  0.00    -0.532 OA
ENDBRANCH  21  25
ENDBRANCH  17  19
ENDBRANCH  15  16
ENDBRANCH   1  15
TORSDOF 5
ENDMDL
MODEL 7
REMARK VINA RESULT:      -3.8      4.273      5.515
REMARK  5 active torsions:
REMARK  status: ('A' for Active; 'I' for Inactive)
REMARK    1  A    between atoms: C_8  and  N_1 
REMARK    2  A    between atoms: C_5  and  C_21 
REMARK    3  A    between atoms: C_9  and  C_12 
REMARK       I    between atoms: N_20  and  C_9 
REMARK    4  A    between atoms: C_22  and  N_20 
REMARK    5  A    between atoms: C_21  and  C_22 
ROOT
ATOM      1  C   UNL d   1     -40.395  14.501  19.224  0.00  0.00     0.026 C 
ENDROOT
BRANCH   1   2
ATOM      2  C   UNL d   1     -40.199  14.564  20.018  0.00  0.00     0.059 A 
ATOM      3  C   UNL d   1     -40.636  15.078  20.511  0.00  0.00     0.279 A 
ATOM      4  N   UNL d   1     -40.441  15.144  21.314  0.00  0.00    -0.208 NA
ATOM      5  O   UNL d   1     -41.260  15.517  20.199  0.00  0.00    -0.265 OA
ATOM      6  C   UNL d   1     -39.809  14.698  21.628  0.00  0.00     0.085 A 
ATOM      7  C   UNL d   1     -39.380  14.191  21.134  0.00  0.00     0.018 A 
ATOM      8  C   UNL d   1     -39.621  14.771  22.432  0.00  0.00     0.019 A 
ATOM      9  C   UNL d   1     -39.572  14.123  20.334  0.00  0.00     0.006 A 
ATOM     10  C   UNL d   1     -38.751  13.749  21.452  0.00  0.00     0.002 A 
ATOM     11  C   UNL d   1     -38.560  13.818  22.251  0.00  0.00     0.000 A 
ATOM     12  C   UNL d   1     -38.997  14.331  22.744  0.00  0.00     0.002 A 
ATOM     13  C   UNL d   1     -37.940  13.383  22.568  0.00  0.00     0.000 C 
ATOM     14  C   UNL d   1     -38.805  14.399  23.543  0.00  0.00     0.000 C 
ENDBRANCH   1   2
BRANCH   1  15
ATOM     15  C   UNL d   1     -40.178  15.085  18.689  0.00  0.00     0.102 C 
BRANCH  15  16
ATOM     16  N   UNL d   1     -39.619  14.937  18.097  0.00  0.00    -0.206 NA
ATOM     17  C   UNL d   1     -39.645  15.355  17.383  0.00  0.00     0.279 C 
ATOM     18  O   UNL d   1     -40.227  15.921  17.254  0.00  0.00    -0.265 OA
BRANCH  17  19
ATOM     19  C   UNL d   1     -39.081  15.200  16.796  0.00  0.00     0.059 A 
ATOM     20  C   UNL d   1     -38.860  14.439  16.628  0.00  0.00     0.028 A 
ATOM     21  C   UNL d   1     -38.309  14.265  16.056  0.00  0.00     0.127 A 
ATOM     22  C   UNL d   1     -37.965  14.881  15.636  0.00  0.00     0.024 A 
ATOM     23  C   UNL d   1     -38.165  15.658  15.782  0.00  0.00     0.002 A 
ATOM     24  C   UNL d   1     -38.736  15.812  16.376  0.00  0.00     0.005 A 
BRANCH  21  25
ATOM     25  N   UNL d   1     -38.081  13.490  15.881  0.00  0.00    -0.114 N 
ATOM     26  O   UNL d   1     -37.976  12.939  16.520  0.00  0.00    -0.532 OA
ATOM     27  O   UNL d   1     -37.946  13.217  15.107  0.00  0.00    -0.532 OA
ENDBRANCH  21  25
ENDBRANCH  17  19
ENDBRANCH  15  16
ENDBRANCH   1  15
TORSDOF 5
ENDMDL
