MODEL 1
REMARK VINA RESULT:       4.6      0.000      0.000
REMARK  1 active torsions:
REMARK  status: ('A' for Active; 'I' for Inactive)
REMARK    1  A    between atoms: C_6  and  C_3 
ROOT
ATOM      1  O   UNL d   1      14.115  11.819  -2.961  0.00  0.00    -0.260 OA
ATOM      2  N   UNL d   1      12.878  11.786  -2.406  0.00  0.00    -0.120 NA
ATOM      3  C   UNL d   1      13.716  11.799  -2.260  0.00  0.00     0.205 A 
ATOM      4  N   UNL d   1      12.778  11.798  -3.190  0.00  0.00    -0.109 NA
ATOM      5  C   UNL d   1      13.485  11.818  -3.577  0.00  0.00     0.262 A 
ATOM      6  S   UNL d   1      13.547  11.834  -4.382  0.00  0.00    -0.029 SA
ENDROOT
BRANCH   3   7
ATOM      7  C   UNL d   1      14.074  11.792  -1.539  0.00  0.00     0.043 A 
ATOM      8  C   UNL d   1      13.600  11.786  -0.848  0.00  0.00     0.004 A 
ATOM      9  C   UNL d   1      13.957  11.779  -0.106  0.00  0.00     0.000 A 
ATOM     10  C   UNL d   1      14.794  11.779  -0.049  0.00  0.00     0.000 A 
ATOM     11  C   UNL d   1      15.241  11.786  -0.743  0.00  0.00     0.000 A 
ATOM     12  C   UNL d   1      14.905  11.792  -1.489  0.00  0.00     0.004 A 
ENDBRANCH   3   7
TORSDOF 1
ENDMDL
MODEL 2
REMARK VINA RESULT:       5.9      1.857      3.035
REMARK  1 active torsions:
REMARK  status: ('A' for Active; 'I' for Inactive)
REMARK    1  A    between atoms: C_6  and  C_3 
ROOT
ATOM      1  O   UNL d   1      13.774  12.243  -1.385  0.00  0.00    -0.260 OA
ATOM      2  N   UNL d   1      14.949  12.029  -2.030  0.00  0.00    -0.120 NA
ATOM      3  C   UNL d   1      14.126  12.230  -2.111  0.00  0.00     0.205 A 
ATOM      4  N   UNL d   1      15.087  11.923  -1.258  0.00  0.00    -0.109 NA
ATOM      5  C   UNL d   1      14.419  12.038  -0.821  0.00  0.00     0.262 A 
ATOM      6  S   UNL d   1      14.401  11.965  -0.017  0.00  0.00    -0.029 SA
ENDROOT
BRANCH   3   7
ATOM      7  C   UNL d   1      13.740  12.386  -2.801  0.00  0.00     0.043 A 
ATOM      8  C   UNL d   1      13.291  11.780  -3.164  0.00  0.00     0.004 A 
ATOM      9  C   UNL d   1      12.893  11.931  -3.869  0.00  0.00     0.000 A 
ATOM     10  C   UNL d   1      12.942  12.693  -4.218  0.00  0.00     0.000 A 
ATOM     11  C   UNL d   1      13.391  13.275  -3.843  0.00  0.00     0.000 A 
ATOM     12  C   UNL d   1      13.793  13.144  -3.142  0.00  0.00     0.004 A 
ENDBRANCH   3   7
TORSDOF 1
ENDMDL
