MODEL 1
REMARK VINA RESULT:      80.1      0.000      0.000
REMARK  3 active torsions:
REMARK  status: ('A' for Active; 'I' for Inactive)
REMARK    1  A    between atoms: C_11  and  N_2 
REMARK    2  A    between atoms: C_16  and  C_6 
REMARK    3  A    between atoms: C_12  and  C_11 
ROOT
ATOM      1  C   UNL d   1      58.523  49.624  53.247  0.00  0.00     0.137 A 
ATOM      2  N   UNL d   1      58.560  49.583  51.819  0.00  0.00    -0.256 N 
ATOM      3  C   UNL d   1      57.695  49.583  53.230  0.00  0.00     0.192 A 
ATOM      4  C   UNL d   1      58.956  49.625  52.541  0.00  0.00     0.272 A 
ATOM      5  N   UNL d   1      57.300  49.541  52.511  0.00  0.00    -0.204 NA
ATOM      6  C   UNL d   1      57.732  49.541  51.798  0.00  0.00     0.152 A 
ATOM      7  C   UNL d   1      58.918  49.666  53.974  0.00  0.00     0.205 A 
ATOM      8  O   UNL d   1      57.271  49.583  53.935  0.00  0.00    -0.289 OA
ATOM      9  C   UNL d   1      58.495  49.666  54.671  0.00  0.00     0.062 A 
ATOM     10  C   UNL d   1      57.671  49.625  54.658  0.00  0.00     0.105 A 
ATOM     11  O   UNL d   1      59.779  49.666  52.563  0.00  0.00    -0.266 OA
ATOM     12  O   UNL d   1      59.742  49.708  53.987  0.00  0.00    -0.286 OA
ATOM     13  C   UNL d   1      58.894  49.708  55.398  0.00  0.00     0.005 A 
ATOM     14  C   UNL d   1      57.238  49.625  55.372  0.00  0.00     0.025 A 
ATOM     15  C   UNL d   1      58.462  49.708  56.103  0.00  0.00     0.000 A 
ATOM     16  C   UNL d   1      57.637  49.666  56.090  0.00  0.00     0.002 A 
ENDROOT
BRANCH   2  17
ATOM     17  C   UNL d   1      58.992  49.584  51.126  0.00  0.00     0.109 C 
BRANCH  17  18
ATOM     18  C   UNL d   1      59.763  49.290  51.118  0.00  0.00     0.118 A 
ATOM     19  O   UNL d   1      60.023  48.617  51.513  0.00  0.00    -0.304 OA
ATOM     20  C   UNL d   1      60.821  48.529  51.356  0.00  0.00     0.123 A 
ATOM     21  C   UNL d   1      61.055  49.148  50.863  0.00  0.00     0.029 A 
ATOM     22  C   UNL d   1      60.401  49.614  50.719  0.00  0.00     0.028 A 
ENDBRANCH  17  18
ENDBRANCH   2  17
BRANCH   6  23
ATOM     23  C   UNL d   1      57.333  49.499  51.075  0.00  0.00     0.035 A 
ATOM     24  C   UNL d   1      57.726  49.253  50.393  0.00  0.00     0.003 A 
ATOM     25  C   UNL d   1      57.329  49.212  49.676  0.00  0.00     0.000 A 
ATOM     26  C   UNL d   1      56.529  49.419  49.638  0.00  0.00     0.000 A 
ATOM     27  C   UNL d   1      56.135  49.665  50.320  0.00  0.00     0.000 A 
ATOM     28  C   UNL d   1      56.530  49.708  51.041  0.00  0.00     0.003 A 
ENDBRANCH   6  23
TORSDOF 3
ENDMDL
