MODEL 1
REMARK VINA RESULT:      51.2      0.000      0.000
REMARK  3 active torsions:
REMARK  status: ('A' for Active; 'I' for Inactive)
REMARK    1  A    between atoms: N_2  and  S_1 
REMARK    2  A    between atoms: C_3  and  S_1 
REMARK    3  A    between atoms: O_16  and  C_9 
ROOT
ATOM      1  S   UNL d   1     -57.774 -98.952 -44.061  0.00  0.00     0.274 S 
ATOM      2  O   UNL d   1     -57.472 -98.757 -43.318  0.00  0.00    -0.199 OA
ATOM      3  O   UNL d   1     -58.085 -99.147 -44.804  0.00  0.00    -0.199 OA
ENDROOT
BRANCH   1   4
ATOM      4  N   UNL d   1     -58.547 -98.883 -43.765  0.00  0.00    -0.214 N 
ATOM      5  C   UNL d   1     -59.234 -98.813 -44.216  0.00  0.00     0.157 A 
ATOM      6  N   UNL d   1     -59.872 -98.760 -43.697  0.00  0.00    -0.226 NA
ATOM      7  C   UNL d   1     -59.281 -98.799 -45.039  0.00  0.00     0.041 C 
ATOM      8  C   UNL d   1     -59.579 -98.797 -42.925  0.00  0.00     0.100 A 
ATOM      9  C   UNL d   1     -58.766 -98.873 -42.968  0.00  0.00     0.094 A 
ATOM     10  C   UNL d   1     -59.958 -98.771 -42.192  0.00  0.00     0.021 A 
ATOM     11  C   UNL d   1     -58.318 -98.924 -42.274  0.00  0.00     0.020 A 
ATOM     12  C   UNL d   1     -58.686 -98.898 -41.539  0.00  0.00     0.002 A 
ATOM     13  C   UNL d   1     -59.510 -98.822 -41.498  0.00  0.00     0.002 A 
ENDBRANCH   1   4
BRANCH   1  14
ATOM     14  C   UNL d   1     -57.005 -99.020 -44.356  0.00  0.00     0.126 A 
ATOM     15  C   UNL d   1     -56.366 -99.065 -43.838  0.00  0.00     0.015 A 
ATOM     16  C   UNL d   1     -55.597 -99.133 -44.133  0.00  0.00     0.001 A 
ATOM     17  C   UNL d   1     -54.970 -99.177 -43.618  0.00  0.00     0.000 C 
ATOM     18  C   UNL d   1     -55.472 -99.156 -44.951  0.00  0.00     0.002 A 
ATOM     19  C   UNL d   1     -56.111 -99.112 -45.469  0.00  0.00     0.025 A 
ATOM     20  C   UNL d   1     -54.713 -99.224 -45.240  0.00  0.00     0.000 C 
ATOM     21  C   UNL d   1     -56.877 -99.043 -45.171  0.00  0.00     0.106 A 
BRANCH  21  22
ATOM     22  O   UNL d   1     -57.515 -98.999 -45.685  0.00  0.00    -0.327 OA
ATOM     23  C   UNL d   1     -57.399 -98.758 -46.455  0.00  0.00     0.181 C 
ENDBRANCH  21  22
ENDBRANCH   1  14
TORSDOF 3
ENDMDL
