MODEL 1
REMARK VINA RESULT:      72.8      0.000      0.000
REMARK  2 active torsions:
REMARK  status: ('A' for Active; 'I' for Inactive)
REMARK    1  A    between atoms: C_9  and  N_2 
REMARK    2  A    between atoms: C_7  and  C_4 
ROOT
ATOM      1  C   UNL d   1      58.351  49.079  50.374  0.00  0.00     0.136 A 
ATOM      2  N   UNL d   1      59.003  49.181  50.872  0.00  0.00    -0.282 N 
ATOM      3  C   UNL d   1      57.589  49.208  50.669  0.00  0.00     0.152 A 
ATOM      4  C   UNL d   1      58.888  49.413  51.664  0.00  0.00     0.158 A 
ATOM      5  N   UNL d   1      58.124  49.540  51.951  0.00  0.00    -0.189 NA
ATOM      6  C   UNL d   1      57.475  49.437  51.453  0.00  0.00     0.292 A 
ATOM      7  C   UNL d   1      56.940  49.105  50.171  0.00  0.00     0.108 C 
ATOM      8  N   UNL d   1      56.285  49.003  49.673  0.00  0.00    -0.191 NA
ATOM      9  S   UNL d   1      58.456  48.850  49.588  0.00  0.00    -0.058 SA
ATOM     10  O   UNL d   1      56.706  49.564  51.739  0.00  0.00    -0.264 OA
ENDROOT
BRANCH   2  11
ATOM     11  C   UNL d   1      59.761  49.055  50.584  0.00  0.00     0.066 A 
ATOM     12  C   UNL d   1      60.140  49.651  50.160  0.00  0.00     0.018 A 
ATOM     13  C   UNL d   1      60.901  49.522  49.872  0.00  0.00     0.002 A 
ATOM     14  C   UNL d   1      61.282  48.800  50.006  0.00  0.00     0.000 A 
ATOM     15  C   UNL d   1      60.898  48.202  50.433  0.00  0.00     0.002 A 
ATOM     16  C   UNL d   1      62.043  48.671  49.718  0.00  0.00     0.000 C 
ATOM     17  C   UNL d   1      60.137  48.332  50.722  0.00  0.00     0.018 A 
ENDBRANCH   2  11
BRANCH   4  18
ATOM     18  C   UNL d   1      59.537  49.516  52.162  0.00  0.00     0.064 A 
ATOM     19  S   UNL d   1      59.507  49.628  52.975  0.00  0.00    -0.083 SA
ATOM     20  C   UNL d   1      60.278  49.705  53.244  0.00  0.00     0.035 A 
ATOM     21  C   UNL d   1      60.784  49.640  52.599  0.00  0.00     0.008 A 
ATOM     22  C   UNL d   1      60.337  49.524  51.930  0.00  0.00     0.010 A 
ENDBRANCH   4  18
TORSDOF 2
ENDMDL
