MODEL 1
REMARK VINA RESULT:       6.3      0.000      0.000
REMARK  1 active torsions:
REMARK  status: ('A' for Active; 'I' for Inactive)
REMARK    1  A    between atoms: C_5  and  C_1 
ROOT
ATOM      1  C   UNL d   1     -50.986  25.959  33.364  0.00  0.00     0.164 A 
ATOM      2  O   UNL d   1     -50.555  25.180  33.341  0.00  0.00    -0.301 OA
ATOM      3  C   UNL d   1     -51.777  25.788  33.366  0.00  0.00     0.033 A 
ATOM      4  C   UNL d   1     -51.896  24.986  33.348  0.00  0.00     0.025 A 
ATOM      5  C   UNL d   1     -51.145  24.612  33.333  0.00  0.00     0.100 A 
ATOM      6  C   UNL d   1     -52.591  24.534  33.343  0.00  0.00     0.009 A 
ATOM      7  C   UNL d   1     -51.103  23.792  33.313  0.00  0.00     0.025 A 
ATOM      8  C   UNL d   1     -52.533  23.708  33.323  0.00  0.00     0.035 A 
ATOM      9  C   UNL d   1     -51.782  23.334  33.308  0.00  0.00     0.009 A 
ATOM     10 BR   UNL d   1     -53.229  23.254  33.318  0.00  0.00    -0.049 Br
ENDROOT
BRANCH   1  11
ATOM     11  C   UNL d   1     -50.689  26.729  33.379  0.00  0.00     0.235 C 
ATOM     12  O   UNL d   1     -51.193  27.383  33.307  0.00  0.00    -0.642 OA
ATOM     13  O   UNL d   1     -49.877  26.887  33.469  0.00  0.00    -0.642 OA
ENDBRANCH   1  11
TORSDOF 1
ENDMDL
MODEL 2
REMARK VINA RESULT:       8.6      2.043      2.926
REMARK  1 active torsions:
REMARK  status: ('A' for Active; 'I' for Inactive)
REMARK    1  A    between atoms: C_5  and  C_1 
ROOT
ATOM      1  C   UNL d   1     -52.630  24.353  33.408  0.00  0.00     0.164 A 
ATOM      2  O   UNL d   1     -51.825  23.973  33.376  0.00  0.00    -0.301 OA
ATOM      3  C   UNL d   1     -52.510  25.154  33.403  0.00  0.00     0.033 A 
ATOM      4  C   UNL d   1     -51.718  25.324  33.372  0.00  0.00     0.025 A 
ATOM      5  C   UNL d   1     -51.296  24.598  33.355  0.00  0.00     0.100 A 
ATOM      6  C   UNL d   1     -51.310  26.046  33.355  0.00  0.00     0.009 A 
ATOM      7  C   UNL d   1     -50.476  24.608  33.322  0.00  0.00     0.025 A 
ATOM      8  C   UNL d   1     -50.484  26.041  33.323  0.00  0.00     0.035 A 
ATOM      9  C   UNL d   1     -50.063  25.315  33.306  0.00  0.00     0.009 A 
ATOM     10 BR   UNL d   1     -50.075  26.764  33.306  0.00  0.00    -0.049 Br
ENDROOT
BRANCH   1  11
ATOM     11  C   UNL d   1     -53.378  24.008  33.438  0.00  0.00     0.235 C 
ATOM     12  O   UNL d   1     -54.064  24.464  33.340  0.00  0.00    -0.642 OA
ATOM     13  O   UNL d   1     -53.483  23.192  33.566  0.00  0.00    -0.642 OA
ENDBRANCH   1  11
TORSDOF 1
ENDMDL
