MODEL 1
REMARK VINA RESULT:      -9.4      0.000      0.000
REMARK  2 active torsions:
REMARK  status: ('A' for Active; 'I' for Inactive)
REMARK    1  A    between atoms: C_9  and  C_1 
REMARK    2  A    between atoms: O_13  and  C_11 
ROOT
ATOM      1  C   UNL d   1      51.961  34.220  53.273  0.00  0.00     0.064 A 
ATOM      2  C   UNL d   1      52.298  33.493  53.445  0.00  0.00     0.199 A 
ATOM      3  C   UNL d   1      52.962  33.422  53.938  0.00  0.00     0.062 A 
ATOM      4  C   UNL d   1      52.299  34.922  53.607  0.00  0.00     0.126 A 
ATOM      5  C   UNL d   1      53.291  34.106  54.264  0.00  0.00     0.105 A 
ATOM      6  O   UNL d   1      52.959  34.867  54.099  0.00  0.00    -0.305 OA
ATOM      7  C   UNL d   1      53.280  32.710  54.097  0.00  0.00     0.007 A 
ATOM      8  C   UNL d   1      53.941  34.084  54.751  0.00  0.00     0.049 A 
ATOM      9  O   UNL d   1      51.971  32.813  53.121  0.00  0.00    -0.286 OA
ATOM     10  C   UNL d   1      54.273  33.348  54.919  0.00  0.00     0.096 A 
ATOM     11  C   UNL d   1      53.935  32.646  54.585  0.00  0.00     0.024 A 
ENDROOT
BRANCH   1  12
ATOM     12  C   UNL d   1      51.316  34.251  52.790  0.00  0.00     0.005 A 
ATOM     13  C   UNL d   1      50.544  34.324  53.121  0.00  0.00     0.000 A 
ATOM     14  C   UNL d   1      49.898  34.355  52.637  0.00  0.00     0.000 A 
ATOM     15  C   UNL d   1      49.982  34.316  51.816  0.00  0.00     0.000 A 
ATOM     16  C   UNL d   1      50.745  34.244  51.476  0.00  0.00     0.000 A 
ATOM     17  C   UNL d   1      51.399  34.213  51.968  0.00  0.00     0.000 A 
ENDBRANCH   1  12
BRANCH  10  18
ATOM     18  O   UNL d   1      54.961  33.328  55.436  0.00  0.00    -0.328 OA
ATOM     19  C   UNL d   1      55.615  33.781  55.235  0.00  0.00     0.181 C 
ENDBRANCH  10  18
TORSDOF 2
ENDMDL
MODEL 2
REMARK VINA RESULT:      -9.3      1.771      3.232
REMARK  2 active torsions:
REMARK  status: ('A' for Active; 'I' for Inactive)
REMARK    1  A    between atoms: C_9  and  C_1 
REMARK    2  A    between atoms: O_13  and  C_11 
ROOT
ATOM      1  C   UNL d   1      53.053  32.045  53.407  0.00  0.00     0.064 A 
ATOM      2  C   UNL d   1      53.377  32.421  54.059  0.00  0.00     0.199 A 
ATOM      3  C   UNL d   1      53.363  33.247  54.141  0.00  0.00     0.062 A 
ATOM      4  C   UNL d   1      52.693  32.510  52.797  0.00  0.00     0.126 A 
ATOM      5  C   UNL d   1      53.011  33.700  53.547  0.00  0.00     0.105 A 
ATOM      6  O   UNL d   1      52.671  33.332  52.865  0.00  0.00    -0.305 OA
ATOM      7  C   UNL d   1      53.680  33.601  54.779  0.00  0.00     0.007 A 
ATOM      8  C   UNL d   1      52.975  34.511  53.585  0.00  0.00     0.049 A 
ATOM      9  O   UNL d   1      53.726  31.971  54.650  0.00  0.00    -0.286 OA
ATOM     10  C   UNL d   1      53.303  34.882  54.245  0.00  0.00     0.096 A 
ATOM     11  C   UNL d   1      53.664  34.416  54.855  0.00  0.00     0.024 A 
ENDROOT
BRANCH   1  12
ATOM     12  C   UNL d   1      53.085  31.240  53.361  0.00  0.00     0.005 A 
ATOM     13  C   UNL d   1      52.372  30.789  53.351  0.00  0.00     0.000 A 
ATOM     14  C   UNL d   1      52.404  29.984  53.305  0.00  0.00     0.000 A 
ATOM     15  C   UNL d   1      53.129  29.590  53.266  0.00  0.00     0.000 A 
ATOM     16  C   UNL d   1      53.845  30.028  53.274  0.00  0.00     0.000 A 
ATOM     17  C   UNL d   1      53.811  30.845  53.322  0.00  0.00     0.000 A 
ENDBRANCH   1  12
BRANCH  10  18
ATOM     18  O   UNL d   1      53.263  35.741  54.283  0.00  0.00    -0.328 OA
ATOM     19  C   UNL d   1      52.858  36.085  54.908  0.00  0.00     0.181 C 
ENDBRANCH  10  18
TORSDOF 2
ENDMDL
MODEL 3
REMARK VINA RESULT:      -9.0      1.934      3.071
REMARK  2 active torsions:
REMARK  status: ('A' for Active; 'I' for Inactive)
REMARK    1  A    between atoms: C_9  and  C_1 
REMARK    2  A    between atoms: O_13  and  C_11 
ROOT
ATOM      1  C   UNL d   1      53.417  33.314  54.026  0.00  0.00     0.064 A 
ATOM      2  C   UNL d   1      52.874  32.848  53.627  0.00  0.00     0.199 A 
ATOM      3  C   UNL d   1      52.985  32.032  53.526  0.00  0.00     0.062 A 
ATOM      4  C   UNL d   1      54.115  32.954  54.345  0.00  0.00     0.126 A 
ATOM      5  C   UNL d   1      53.665  31.681  53.837  0.00  0.00     0.105 A 
ATOM      6  O   UNL d   1      54.239  32.144  54.252  0.00  0.00    -0.305 OA
ATOM      7  C   UNL d   1      52.450  31.590  53.136  0.00  0.00     0.007 A 
ATOM      8  C   UNL d   1      53.816  30.886  53.762  0.00  0.00     0.049 A 
ATOM      9  O   UNL d   1      52.198  33.197  53.317  0.00  0.00    -0.286 OA
ATOM     10  C   UNL d   1      53.263  30.425  53.359  0.00  0.00     0.096 A 
ATOM     11  C   UNL d   1      52.565  30.785  53.039  0.00  0.00     0.024 A 
ENDROOT
BRANCH   1  12
ATOM     12  C   UNL d   1      53.276  34.105  54.105  0.00  0.00     0.005 A 
ATOM     13  C   UNL d   1      53.124  34.432  54.867  0.00  0.00     0.000 A 
ATOM     14  C   UNL d   1      52.983  35.222  54.947  0.00  0.00     0.000 A 
ATOM     15  C   UNL d   1      52.985  35.721  54.288  0.00  0.00     0.000 A 
ATOM     16  C   UNL d   1      53.135  35.407  53.525  0.00  0.00     0.000 A 
ATOM     17  C   UNL d   1      53.278  34.604  53.446  0.00  0.00     0.000 A 
ENDBRANCH   1  12
BRANCH  10  18
ATOM     18  O   UNL d   1      53.425  29.583  53.281  0.00  0.00    -0.328 OA
ATOM     19  C   UNL d   1      53.211  29.086  53.897  0.00  0.00     0.181 C 
ENDBRANCH  10  18
TORSDOF 2
ENDMDL
MODEL 4
REMARK VINA RESULT:      -8.9      0.914      4.101
REMARK  2 active torsions:
REMARK  status: ('A' for Active; 'I' for Inactive)
REMARK    1  A    between atoms: C_9  and  C_1 
REMARK    2  A    between atoms: O_13  and  C_11 
ROOT
ATOM      1  C   UNL d   1      53.169  33.361  53.883  0.00  0.00     0.064 A 
ATOM      2  C   UNL d   1      52.747  34.055  53.777  0.00  0.00     0.199 A 
ATOM      3  C   UNL d   1      52.019  34.071  53.379  0.00  0.00     0.062 A 
ATOM      4  C   UNL d   1      52.855  32.635  53.578  0.00  0.00     0.126 A 
ATOM      5  C   UNL d   1      51.713  33.363  53.082  0.00  0.00     0.105 A 
ATOM      6  O   UNL d   1      52.132  32.635  53.180  0.00  0.00    -0.305 OA
ATOM      7  C   UNL d   1      51.618  34.751  53.283  0.00  0.00     0.007 A 
ATOM      8  C   UNL d   1      51.004  33.331  52.685  0.00  0.00     0.049 A 
ATOM      9  O   UNL d   1      53.051  34.758  54.073  0.00  0.00    -0.286 OA
ATOM     10  C   UNL d   1      50.586  34.035  52.584  0.00  0.00     0.096 A 
ATOM     11  C   UNL d   1      50.900  34.761  52.889  0.00  0.00     0.024 A 
ENDROOT
BRANCH   1  12
ATOM     12  C   UNL d   1      53.874  33.384  54.275  0.00  0.00     0.005 A 
ATOM     13  C   UNL d   1      54.596  33.431  53.843  0.00  0.00     0.000 A 
ATOM     14  C   UNL d   1      55.301  33.454  54.235  0.00  0.00     0.000 A 
ATOM     15  C   UNL d   1      55.327  33.432  55.061  0.00  0.00     0.000 A 
ATOM     16  C   UNL d   1      54.615  33.385  55.501  0.00  0.00     0.000 A 
ATOM     17  C   UNL d   1      53.901  33.362  55.102  0.00  0.00     0.000 A 
ENDBRANCH   1  12
BRANCH  10  18
ATOM     18  O   UNL d   1      49.835  33.998  52.164  0.00  0.00    -0.328 OA
ATOM     19  C   UNL d   1      49.335  34.646  52.200  0.00  0.00     0.181 C 
ENDBRANCH  10  18
TORSDOF 2
ENDMDL
