MODEL 1
REMARK VINA RESULT:      86.7      0.000      0.000
REMARK  3 active torsions:
REMARK  status: ('A' for Active; 'I' for Inactive)
REMARK    1  A    between atoms: C_16  and  N_3 
REMARK    2  A    between atoms: C_10  and  C_5 
REMARK    3  A    between atoms: C_26  and  C_16 
ROOT
ATOM      1  C   UNL d   1      59.849  49.265  51.153  0.00  0.00     0.083 A 
ATOM      2  C   UNL d   1      59.494  49.381  51.886  0.00  0.00     0.161 A 
ATOM      3  N   UNL d   1      60.804  49.201  52.095  0.00  0.00    -0.268 N 
ATOM      4  C   UNL d   1      60.081  49.343  52.473  0.00  0.00     0.288 A 
ATOM      5  C   UNL d   1      60.660  49.153  51.277  0.00  0.00     0.072 A 
ATOM      6  C   UNL d   1      59.397  49.273  50.464  0.00  0.00     0.201 A 
ATOM      7  O   UNL d   1      58.674  49.509  51.931  0.00  0.00    -0.302 OA
ATOM      8  C   UNL d   1      58.583  49.401  50.512  0.00  0.00     0.063 A 
ATOM      9  C   UNL d   1      58.225  49.518  51.244  0.00  0.00     0.103 A 
ATOM     10  O   UNL d   1      59.968  49.430  53.279  0.00  0.00    -0.264 OA
ATOM     11  O   UNL d   1      59.751  49.157  49.730  0.00  0.00    -0.286 OA
ATOM     12  C   UNL d   1      58.127  49.410  49.821  0.00  0.00     0.017 A 
ATOM     13  C   UNL d   1      57.402  49.646  51.283  0.00  0.00     0.026 A 
ATOM     14  C   UNL d   1      57.316  49.536  49.863  0.00  0.00     0.058 A 
ATOM     15  C   UNL d   1      56.953  49.655  50.596  0.00  0.00     0.013 A 
ATOM     16 CL   UNL d   1      56.866  49.546  49.179  0.00  0.00    -0.082 Cl
ENDROOT
BRANCH   5  17
ATOM     17  C   UNL d   1      61.018  49.035  50.546  0.00  0.00     0.017 A 
ATOM     18  C   UNL d   1      61.197  48.272  50.283  0.00  0.00     0.008 A 
ATOM     19  C   UNL d   1      61.555  48.159  49.551  0.00  0.00     0.035 A 
ATOM     20 BR   UNL d   1      61.731  47.397  49.295  0.00  0.00    -0.049 Br
ATOM     21  C   UNL d   1      61.740  48.812  49.070  0.00  0.00     0.007 A 
ATOM     22  C   UNL d   1      61.561  49.576  49.333  0.00  0.00     0.001 A 
ATOM     23  C   UNL d   1      61.199  49.686  50.073  0.00  0.00     0.002 A 
ENDBRANCH   5  17
BRANCH   3  24
ATOM     24  C   UNL d   1      61.536  49.122  52.462  0.00  0.00     0.129 C 
BRANCH  24  25
ATOM     25  C   UNL d   1      61.774  49.674  53.024  0.00  0.00     0.253 C 
ATOM     26  O   UNL d   1      61.765  49.480  53.822  0.00  0.00    -0.281 OA
ENDBRANCH  24  25
ENDBRANCH   3  24
TORSDOF 3
ENDMDL
