MODEL 1
REMARK VINA RESULT:      -6.4      0.000      0.000
REMARK  3 active torsions:
REMARK  status: ('A' for Active; 'I' for Inactive)
REMARK    1  A    between atoms: C_2  and  S_1 
REMARK    2  A    between atoms: N_3  and  S_1 
REMARK    3  A    between atoms: C_10  and  N_3 
ROOT
ATOM      1  C   UNL d   1     -41.573-122.425 -51.795  0.00  0.00     0.107 A 
ATOM      2  C   UNL d   1     -42.127-122.198 -51.227  0.00  0.00     0.040 A 
ATOM      3  C   UNL d   1     -42.261-122.639 -50.554  0.00  0.00     0.123 A 
ATOM      4  C   UNL d   1     -41.834-123.326 -50.436  0.00  0.00     0.123 A 
ATOM      5  O   UNL d   1     -42.797-122.407 -50.019  0.00  0.00    -0.301 OA
ATOM      6  O   UNL d   1     -41.941-123.786 -49.782  0.00  0.00    -0.301 OA
ATOM      7  C   UNL d   1     -41.132-123.135 -51.673  0.00  0.00     0.015 A 
ATOM      8  C   UNL d   1     -41.271-123.577 -50.991  0.00  0.00     0.028 A 
ATOM      9  C   UNL d   1     -42.935-122.850 -49.336  0.00  0.00     0.149 A 
ATOM     10  C   UNL d   1     -42.495-123.559 -49.215  0.00  0.00     0.149 A 
ENDROOT
BRANCH   1  11
ATOM     11  S   UNL d   1     -41.465-121.943 -52.475  0.00  0.00     0.285 S 
ATOM     12  O   UNL d   1     -41.353-121.450 -53.159  0.00  0.00    -0.198 OA
ATOM     13  O   UNL d   1     -41.123-121.330 -52.016  0.00  0.00    -0.198 OA
BRANCH  11  14
ATOM     14  N   UNL d   1     -41.794-122.518 -52.958  0.00  0.00    -0.157 NA
BRANCH  14  15
ATOM     15  C   UNL d   1     -41.917-122.394 -53.734  0.00  0.00     0.113 A 
ATOM     16  C   UNL d   1     -42.576-121.968 -53.989  0.00  0.00     0.119 A 
ATOM     17  N   UNL d   1     -42.703-121.841 -54.792  0.00  0.00    -0.241 NA
ATOM     18  C   UNL d   1     -42.184-122.130 -55.331  0.00  0.00     0.099 A 
ATOM     19  C   UNL d   1     -41.506-122.567 -55.080  0.00  0.00     0.022 A 
ATOM     20  C   UNL d   1     -41.398-122.682 -54.279  0.00  0.00     0.023 A 
ENDBRANCH  14  15
ENDBRANCH  11  14
ENDBRANCH   1  11
TORSDOF 3
ENDMDL
MODEL 2
REMARK VINA RESULT:      -5.8      1.242      3.914
REMARK  3 active torsions:
REMARK  status: ('A' for Active; 'I' for Inactive)
REMARK    1  A    between atoms: C_2  and  S_1 
REMARK    2  A    between atoms: N_3  and  S_1 
REMARK    3  A    between atoms: C_10  and  N_3 
ROOT
ATOM      1  C   UNL d   1     -41.485-122.294 -52.502  0.00  0.00     0.107 A 
ATOM      2  C   UNL d   1     -41.858-121.830 -53.073  0.00  0.00     0.040 A 
ATOM      3  C   UNL d   1     -41.886-122.050 -53.857  0.00  0.00     0.123 A 
ATOM      4  C   UNL d   1     -41.536-122.751 -54.088  0.00  0.00     0.123 A 
ATOM      5  O   UNL d   1     -42.249-121.592 -54.393  0.00  0.00    -0.301 OA
ATOM      6  O   UNL d   1     -41.545-122.999 -54.854  0.00  0.00    -0.301 OA
ATOM      7  C   UNL d   1     -41.123-123.019 -52.739  0.00  0.00     0.015 A 
ATOM      8  C   UNL d   1     -41.154-123.237 -53.534  0.00  0.00     0.028 A 
ATOM      9  C   UNL d   1     -42.280-121.810 -55.188  0.00  0.00     0.149 A 
ATOM     10  C   UNL d   1     -41.918-122.535 -55.426  0.00  0.00     0.149 A 
ENDROOT
BRANCH   1  11
ATOM     11  S   UNL d   1     -41.477-122.032 -51.703  0.00  0.00     0.285 S 
ATOM     12  O   UNL d   1     -41.467-121.760 -50.897  0.00  0.00    -0.198 OA
ATOM     13  O   UNL d   1     -41.123-121.303 -51.920  0.00  0.00    -0.198 OA
BRANCH  11  14
ATOM     14  N   UNL d   1     -41.824-122.730 -51.450  0.00  0.00    -0.157 NA
BRANCH  14  15
ATOM     15  C   UNL d   1     -42.057-122.835 -50.697  0.00  0.00     0.113 A 
ATOM     16  C   UNL d   1     -42.751-122.484 -50.422  0.00  0.00     0.119 A 
ATOM     17  N   UNL d   1     -42.991-122.593 -49.642  0.00  0.00    -0.241 NA
ATOM     18  C   UNL d   1     -42.549-123.042 -49.146  0.00  0.00     0.099 A 
ATOM     19  C   UNL d   1     -41.837-123.406 -49.417  0.00  0.00     0.022 A 
ATOM     20  C   UNL d   1     -41.616-123.285 -50.195  0.00  0.00     0.023 A 
ENDBRANCH  14  15
ENDBRANCH  11  14
ENDBRANCH   1  11
TORSDOF 3
ENDMDL
MODEL 3
REMARK VINA RESULT:      -5.2      0.907      1.357
REMARK  3 active torsions:
REMARK  status: ('A' for Active; 'I' for Inactive)
REMARK    1  A    between atoms: C_2  and  S_1 
REMARK    2  A    between atoms: N_3  and  S_1 
REMARK    3  A    between atoms: C_10  and  N_3 
ROOT
ATOM      1  C   UNL d   1     -41.849-122.184 -51.095  0.00  0.00     0.107 A 
ATOM      2  C   UNL d   1     -41.360-122.607 -50.581  0.00  0.00     0.040 A 
ATOM      3  C   UNL d   1     -41.637-122.918 -49.880  0.00  0.00     0.123 A 
ATOM      4  C   UNL d   1     -42.421-122.810 -49.677  0.00  0.00     0.123 A 
ATOM      5  O   UNL d   1     -41.153-123.321 -49.398  0.00  0.00    -0.301 OA
ATOM      6  O   UNL d   1     -42.727-123.104 -48.992  0.00  0.00    -0.301 OA
ATOM      7  C   UNL d   1     -42.659-122.073 -50.886  0.00  0.00     0.015 A 
ATOM      8  C   UNL d   1     -42.934-122.390 -50.175  0.00  0.00     0.028 A 
ATOM      9  C   UNL d   1     -41.428-123.638 -48.688  0.00  0.00     0.149 A 
ATOM     10  C   UNL d   1     -42.238-123.526 -48.479  0.00  0.00     0.149 A 
ENDROOT
BRANCH   1  11
ATOM     11  S   UNL d   1     -41.526-121.880 -51.808  0.00  0.00     0.285 S 
ATOM     12  O   UNL d   1     -41.195-121.566 -52.527  0.00  0.00    -0.198 OA
ATOM     13  O   UNL d   1     -41.122-121.272 -51.394  0.00  0.00    -0.198 OA
BRANCH  11  14
ATOM     14  N   UNL d   1     -41.903-122.458 -52.249  0.00  0.00    -0.157 NA
BRANCH  14  15
ATOM     15  C   UNL d   1     -41.774-122.543 -53.029  0.00  0.00     0.113 A 
ATOM     16  C   UNL d   1     -41.256-123.123 -53.305  0.00  0.00     0.119 A 
ATOM     17  N   UNL d   1     -41.123-123.211 -54.113  0.00  0.00    -0.241 NA
ATOM     18  C   UNL d   1     -41.497-122.730 -54.635  0.00  0.00     0.099 A 
ATOM     19  C   UNL d   1     -42.028-122.133 -54.363  0.00  0.00     0.022 A 
ATOM     20  C   UNL d   1     -42.147-122.063 -53.557  0.00  0.00     0.023 A 
ENDBRANCH  14  15
ENDBRANCH  11  14
ENDBRANCH   1  11
TORSDOF 3
ENDMDL
MODEL 4
REMARK VINA RESULT:      -3.8      1.623      2.530
REMARK  3 active torsions:
REMARK  status: ('A' for Active; 'I' for Inactive)
REMARK    1  A    between atoms: C_2  and  S_1 
REMARK    2  A    between atoms: N_3  and  S_1 
REMARK    3  A    between atoms: C_10  and  N_3 
ROOT
ATOM      1  C   UNL d   1     -42.119-123.075 -49.586  0.00  0.00     0.107 A 
ATOM      2  C   UNL d   1     -42.529-122.832 -48.912  0.00  0.00     0.040 A 
ATOM      3  C   UNL d   1     -42.304-123.064 -48.163  0.00  0.00     0.123 A 
ATOM      4  C   UNL d   1     -41.653-123.550 -48.075  0.00  0.00     0.123 A 
ATOM      5  O   UNL d   1     -42.709-122.822 -47.526  0.00  0.00    -0.301 OA
ATOM      6  O   UNL d   1     -41.403-123.798 -47.350  0.00  0.00    -0.301 OA
ATOM      7  C   UNL d   1     -41.447-123.577 -49.495  0.00  0.00     0.015 A 
ATOM      8  C   UNL d   1     -41.223-123.809 -48.735  0.00  0.00     0.028 A 
ATOM      9  C   UNL d   1     -42.485-123.053 -46.767  0.00  0.00     0.149 A 
ATOM     10  C   UNL d   1     -41.813-123.556 -46.676  0.00  0.00     0.149 A 
ENDROOT
BRANCH   1  11
ATOM     11  S   UNL d   1     -42.383-122.814 -50.340  0.00  0.00     0.285 S 
ATOM     12  O   UNL d   1     -42.657-122.550 -51.101  0.00  0.00    -0.198 OA
ATOM     13  O   UNL d   1     -43.183-122.813 -50.087  0.00  0.00    -0.198 OA
BRANCH  11  14
ATOM     14  N   UNL d   1     -41.615-122.801 -50.626  0.00  0.00    -0.157 NA
BRANCH  14  15
ATOM     15  C   UNL d   1     -41.455-122.672 -51.395  0.00  0.00     0.113 A 
ATOM     16  C   UNL d   1     -41.306-121.908 -51.667  0.00  0.00     0.119 A 
ATOM     17  N   UNL d   1     -41.141-121.775 -52.462  0.00  0.00    -0.241 NA
ATOM     18  C   UNL d   1     -41.124-122.391 -52.976  0.00  0.00     0.099 A 
ATOM     19  C   UNL d   1     -41.275-123.177 -52.707  0.00  0.00     0.022 A 
ATOM     20  C   UNL d   1     -41.437-123.287 -51.914  0.00  0.00     0.023 A 
ENDBRANCH  14  15
ENDBRANCH  11  14
ENDBRANCH   1  11
TORSDOF 3
ENDMDL
