MODEL 1
REMARK VINA RESULT:      -6.4      0.000      0.000
REMARK  4 active torsions:
REMARK  status: ('A' for Active; 'I' for Inactive)
REMARK    1  A    between atoms: C_5  and  C_3 
REMARK    2  A    between atoms: S_8  and  C_4 
REMARK    3  A    between atoms: C_12  and  S_8 
REMARK    4  A    between atoms: C_10  and  C_12 
ROOT
ATOM      1  N   UNL d   1     -41.793-123.425 -52.599  0.00  0.00    -0.146 NA
ATOM      2  N   UNL d   1     -41.720-123.589 -51.794  0.00  0.00    -0.141 NA
ATOM      3  C   UNL d   1     -41.559-122.687 -52.895  0.00  0.00     0.121 A 
ATOM      4  C   UNL d   1     -41.418-123.028 -51.280  0.00  0.00     0.133 A 
ATOM      5  C   UNL d   1     -41.253-122.119 -52.379  0.00  0.00     0.025 A 
ATOM      6  C   UNL d   1     -41.182-122.285 -51.576  0.00  0.00     0.029 A 
ENDROOT
BRANCH   4   7
ATOM      7  S   UNL d   1     -41.345-123.192 -50.475  0.00  0.00    -0.064 SA
BRANCH   7   8
ATOM      8  C   UNL d   1     -41.854-122.845 -49.932  0.00  0.00     0.056 C 
BRANCH   8   9
ATOM      9  C   UNL d   1     -41.851-123.102 -49.146  0.00  0.00     0.088 A 
ATOM     10  N   UNL d   1     -41.135-123.250 -48.764  0.00  0.00    -0.243 NA
ATOM     11  C   UNL d   1     -41.141-123.506 -47.981  0.00  0.00     0.099 A 
ATOM     12  C   UNL d   1     -41.853-123.612 -47.587  0.00  0.00     0.021 A 
ATOM     13  C   UNL d   1     -42.559-123.467 -47.962  0.00  0.00     0.003 A 
ATOM     14  C   UNL d   1     -42.563-123.211 -48.744  0.00  0.00     0.020 A 
ENDBRANCH   8   9
ENDBRANCH   7   8
ENDBRANCH   4   7
BRANCH   3  15
ATOM     15  C   UNL d   1     -41.631-122.523 -53.701  0.00  0.00     0.101 A 
ATOM     16  N   UNL d   1     -42.149-121.946 -53.949  0.00  0.00    -0.242 NA
ATOM     17  C   UNL d   1     -42.225-121.780 -54.747  0.00  0.00     0.099 A 
ATOM     18  C   UNL d   1     -41.770-122.202 -55.302  0.00  0.00     0.021 A 
ATOM     19  C   UNL d   1     -41.251-122.781 -55.047  0.00  0.00     0.003 A 
ATOM     20  C   UNL d   1     -41.172-122.952 -54.243  0.00  0.00     0.021 A 
ENDBRANCH   3  15
TORSDOF 4
ENDMDL
MODEL 2
REMARK VINA RESULT:      -6.3      0.734      5.120
REMARK  4 active torsions:
REMARK  status: ('A' for Active; 'I' for Inactive)
REMARK    1  A    between atoms: C_5  and  C_3 
REMARK    2  A    between atoms: S_8  and  C_4 
REMARK    3  A    between atoms: C_12  and  S_8 
REMARK    4  A    between atoms: C_10  and  C_12 
ROOT
ATOM      1  N   UNL d   1     -41.845-123.479 -50.921  0.00  0.00    -0.146 NA
ATOM      2  N   UNL d   1     -41.739-123.311 -51.722  0.00  0.00    -0.141 NA
ATOM      3  C   UNL d   1     -41.620-122.925 -50.347  0.00  0.00     0.121 A 
ATOM      4  C   UNL d   1     -41.412-122.598 -51.958  0.00  0.00     0.133 A 
ATOM      5  C   UNL d   1     -41.290-122.204 -50.583  0.00  0.00     0.025 A 
ATOM      6  C   UNL d   1     -41.185-122.040 -51.382  0.00  0.00     0.029 A 
ENDROOT
BRANCH   4   7
ATOM      7  S   UNL d   1     -41.306-122.430 -52.759  0.00  0.00    -0.064 SA
BRANCH   7   8
ATOM      8  C   UNL d   1     -41.712-122.857 -53.330  0.00  0.00     0.056 C 
BRANCH   8   9
ATOM      9  C   UNL d   1     -41.812-122.536 -54.086  0.00  0.00     0.088 A 
ATOM     10  N   UNL d   1     -42.445-122.031 -54.239  0.00  0.00    -0.243 NA
ATOM     11  C   UNL d   1     -42.537-121.715 -54.994  0.00  0.00     0.099 A 
ATOM     12  C   UNL d   1     -42.002-121.903 -55.587  0.00  0.00     0.021 A 
ATOM     13  C   UNL d   1     -41.377-122.401 -55.439  0.00  0.00     0.003 A 
ATOM     14  C   UNL d   1     -41.278-122.721 -54.687  0.00  0.00     0.020 A 
ENDBRANCH   8   9
ENDBRANCH   7   8
ENDBRANCH   4   7
BRANCH   3  15
ATOM     15  C   UNL d   1     -41.726-123.093 -49.546  0.00  0.00     0.101 A 
ATOM     16  N   UNL d   1     -41.126-123.445 -49.125  0.00  0.00    -0.242 NA
ATOM     17  C   UNL d   1     -41.226-123.614 -48.330  0.00  0.00     0.099 A 
ATOM     18  C   UNL d   1     -41.945-123.424 -47.955  0.00  0.00     0.021 A 
ATOM     19  C   UNL d   1     -42.546-123.070 -48.383  0.00  0.00     0.003 A 
ATOM     20  C   UNL d   1     -42.448-122.898 -49.185  0.00  0.00     0.021 A 
ENDBRANCH   3  15
TORSDOF 4
ENDMDL
MODEL 3
REMARK VINA RESULT:      -4.0      0.989      5.194
REMARK  4 active torsions:
REMARK  status: ('A' for Active; 'I' for Inactive)
REMARK    1  A    between atoms: C_5  and  C_3 
REMARK    2  A    between atoms: S_8  and  C_4 
REMARK    3  A    between atoms: C_12  and  S_8 
REMARK    4  A    between atoms: C_10  and  C_12 
ROOT
ATOM      1  N   UNL d   1     -42.398-122.753 -49.576  0.00  0.00    -0.146 NA
ATOM      2  N   UNL d   1     -42.410-122.761 -50.401  0.00  0.00    -0.141 NA
ATOM      3  C   UNL d   1     -41.828-123.193 -49.165  0.00  0.00     0.121 A 
ATOM      4  C   UNL d   1     -41.863-123.201 -50.822  0.00  0.00     0.133 A 
ATOM      5  C   UNL d   1     -41.275-123.639 -49.588  0.00  0.00     0.025 A 
ATOM      6  C   UNL d   1     -41.290-123.645 -50.410  0.00  0.00     0.029 A 
ENDROOT
BRANCH   4   7
ATOM      7  S   UNL d   1     -41.876-123.209 -51.647  0.00  0.00    -0.064 SA
BRANCH   7   8
ATOM      8  C   UNL d   1     -41.238-122.919 -52.075  0.00  0.00     0.056 C 
BRANCH   8   9
ATOM      9  C   UNL d   1     -41.258-122.939 -52.901  0.00  0.00     0.088 A 
ATOM     10  N   UNL d   1     -41.412-123.648 -53.294  0.00  0.00    -0.243 NA
ATOM     11  C   UNL d   1     -41.430-123.659 -54.116  0.00  0.00     0.099 A 
ATOM     12  C   UNL d   1     -41.296-122.970 -54.541  0.00  0.00     0.021 A 
ATOM     13  C   UNL d   1     -41.144-122.270 -54.157  0.00  0.00     0.003 A 
ATOM     14  C   UNL d   1     -41.124-122.250 -53.334  0.00  0.00     0.020 A 
ENDBRANCH   8   9
ENDBRANCH   7   8
ENDBRANCH   4   7
BRANCH   3  15
ATOM     15  C   UNL d   1     -41.816-123.185 -48.340  0.00  0.00     0.101 A 
ATOM     16  N   UNL d   1     -42.256-122.633 -47.936  0.00  0.00    -0.242 NA
ATOM     17  C   UNL d   1     -42.247-122.621 -47.117  0.00  0.00     0.099 A 
ATOM     18  C   UNL d   1     -41.786-123.175 -46.701  0.00  0.00     0.021 A 
ATOM     19  C   UNL d   1     -41.345-123.728 -47.112  0.00  0.00     0.003 A 
ATOM     20  C   UNL d   1     -41.352-123.744 -47.938  0.00  0.00     0.021 A 
ENDBRANCH   3  15
TORSDOF 4
ENDMDL
MODEL 4
REMARK VINA RESULT:      -3.6      0.784      1.040
REMARK  4 active torsions:
REMARK  status: ('A' for Active; 'I' for Inactive)
REMARK    1  A    between atoms: C_5  and  C_3 
REMARK    2  A    between atoms: S_8  and  C_4 
REMARK    3  A    between atoms: C_12  and  S_8 
REMARK    4  A    between atoms: C_10  and  C_12 
ROOT
ATOM      1  N   UNL d   1     -42.613-122.726 -53.076  0.00  0.00    -0.146 NA
ATOM      2  N   UNL d   1     -42.519-122.937 -52.284  0.00  0.00    -0.141 NA
ATOM      3  C   UNL d   1     -41.960-122.469 -53.517  0.00  0.00     0.121 A 
ATOM      4  C   UNL d   1     -41.784-122.896 -51.926  0.00  0.00     0.133 A 
ATOM      5  C   UNL d   1     -41.216-122.427 -53.158  0.00  0.00     0.025 A 
ATOM      6  C   UNL d   1     -41.126-122.638 -52.368  0.00  0.00     0.029 A 
ENDROOT
BRANCH   4   7
ATOM      7  S   UNL d   1     -41.690-123.107 -51.134  0.00  0.00    -0.064 SA
BRANCH   7   8
ATOM      8  C   UNL d   1     -42.068-122.680 -50.543  0.00  0.00     0.056 C 
BRANCH   8   9
ATOM      9  C   UNL d   1     -42.095-122.984 -49.774  0.00  0.00     0.088 A 
ATOM     10  N   UNL d   1     -42.776-122.891 -49.317  0.00  0.00    -0.243 NA
ATOM     11  C   UNL d   1     -42.795-123.197 -48.553  0.00  0.00     0.099 A 
ATOM     12  C   UNL d   1     -42.141-123.590 -48.250  0.00  0.00     0.021 A 
ATOM     13  C   UNL d   1     -41.470-123.684 -48.698  0.00  0.00     0.003 A 
ATOM     14  C   UNL d   1     -41.442-123.381 -49.463  0.00  0.00     0.020 A 
ENDBRANCH   8   9
ENDBRANCH   7   8
ENDBRANCH   4   7
BRANCH   3  15
ATOM     15  C   UNL d   1     -42.054-122.258 -54.309  0.00  0.00     0.101 A 
ATOM     16  N   UNL d   1     -42.773-121.982 -54.570  0.00  0.00    -0.242 NA
ATOM     17  C   UNL d   1     -42.871-121.771 -55.355  0.00  0.00     0.099 A 
ATOM     18  C   UNL d   1     -42.232-121.841 -55.884  0.00  0.00     0.021 A 
ATOM     19  C   UNL d   1     -41.511-122.119 -55.617  0.00  0.00     0.003 A 
ATOM     20  C   UNL d   1     -41.408-122.333 -54.826  0.00  0.00     0.021 A 
ENDBRANCH   3  15
TORSDOF 4
ENDMDL
