MODEL 1
REMARK VINA RESULT:      66.0      0.000      0.000
REMARK  5 active torsions:
REMARK  status: ('A' for Active; 'I' for Inactive)
REMARK    1  A    between atoms: N_2  and  S_1 
REMARK    2  A    between atoms: C_14  and  S_1 
REMARK    3  A    between atoms: C_4  and  N_2 
REMARK    4  A    between atoms: S_6  and  C_3 
REMARK    5  A    between atoms: C_10  and  S_6 
ROOT
ATOM      1  C   UNL d   1      45.745 -16.507  43.567  0.00  0.00     0.070 A 
ATOM      2  C   UNL d   1      46.321 -17.619  42.887  0.00  0.00     0.095 A 
ATOM      3  C   UNL d   1      45.681 -16.960  44.254  0.00  0.00     0.202 A 
ATOM      4  C   UNL d   1      46.065 -16.837  42.883  0.00  0.00     0.030 A 
ATOM      5  C   UNL d   1      45.938 -17.743  44.256  0.00  0.00     0.041 A 
ATOM      6  C   UNL d   1      46.257 -18.072  43.574  0.00  0.00     0.022 A 
ATOM      7  O   UNL d   1      45.355 -16.628  44.954  0.00  0.00    -0.286 OA
ATOM      8  C   UNL d   1      45.873 -18.201  44.950  0.00  0.00     0.003 A 
ATOM      9  C   UNL d   1      46.515 -18.858  43.574  0.00  0.00     0.002 A 
ATOM     10  C   UNL d   1      46.129 -18.983  44.953  0.00  0.00     0.000 A 
ATOM     11  C   UNL d   1      46.451 -19.316  44.268  0.00  0.00     0.000 A 
ENDROOT
BRANCH   1  12
ATOM     12  S   UNL d   1      45.489 -15.725  43.563  0.00  0.00    -0.082 SA
BRANCH  12  13
ATOM     13  C   UNL d   1      45.231 -14.940  43.562  0.00  0.00     0.047 A 
ATOM     14  C   UNL d   1      45.615 -14.375  44.025  0.00  0.00     0.087 A 
ATOM     15  N   UNL d   1      46.260 -14.598  44.489  0.00  0.00    -0.244 NA
ATOM     16  C   UNL d   1      45.356 -13.595  44.021  0.00  0.00     0.018 A 
ATOM     17  C   UNL d   1      46.644 -14.033  44.951  0.00  0.00     0.099 A 
ATOM     18  C   UNL d   1      46.382 -13.249  44.946  0.00  0.00     0.021 A 
ATOM     19  C   UNL d   1      45.744 -13.024  44.488  0.00  0.00     0.003 A 
ATOM     20  C   UNL d   1      44.716 -13.372  43.560  0.00  0.00     0.002 A 
ATOM     21  C   UNL d   1      44.324 -13.929  43.094  0.00  0.00     0.001 A 
ATOM     22  C   UNL d   1      44.582 -14.718  43.094  0.00  0.00     0.008 A 
ENDBRANCH  12  13
ENDBRANCH   1  12
BRANCH   2  23
ATOM     23  N   UNL d   1      46.646 -17.951  42.187  0.00  0.00    -0.158 NA
BRANCH  23  24
ATOM     24  S   UNL d   1      46.185 -18.001  41.503  0.00  0.00     0.285 S 
ATOM     25  O   UNL d   1      46.355 -17.204  41.327  0.00  0.00    -0.198 OA
ATOM     26  O   UNL d   1      46.014 -18.791  41.675  0.00  0.00    -0.198 OA
BRANCH  24  27
ATOM     27  C   UNL d   1      45.720 -18.052  40.816  0.00  0.00     0.105 A 
ATOM     28  C   UNL d   1      45.969 -18.516  40.183  0.00  0.00     0.013 A 
ATOM     29  C   UNL d   1      45.508 -18.571  39.493  0.00  0.00     0.001 A 
ATOM     30  C   UNL d   1      44.792 -18.154  39.443  0.00  0.00     0.000 A 
ATOM     31  C   UNL d   1      44.546 -17.686  40.087  0.00  0.00     0.001 A 
ATOM     32  C   UNL d   1      45.009 -17.638  40.766  0.00  0.00     0.013 A 
ENDBRANCH  24  27
ENDBRANCH  23  24
ENDBRANCH   2  23
TORSDOF 5
ENDMDL
