MODEL 1
REMARK VINA RESULT:      -2.3      0.000      0.000
REMARK  1 active torsions:
REMARK  status: ('A' for Active; 'I' for Inactive)
REMARK       I    between atoms: N_2  and  C_1 
REMARK    1  A    between atoms: C_5  and  N_2 
ROOT
ATOM      1  C   UNL d   1      30.220  15.734 -23.883  0.00  0.00     0.100 A 
ATOM      2  C   UNL d   1      28.707  16.280 -23.502  0.00  0.00     0.058 A 
ATOM      3 CL   UNL d   1      27.954  16.552 -23.314  0.00  0.00    -0.082 Cl
ATOM      4  C   UNL d   1      29.833  15.453 -23.205  0.00  0.00     0.021 A 
ATOM      5  C   UNL d   1      29.848  16.288 -24.368  0.00  0.00     0.021 A 
ATOM      6  C   UNL d   1      29.079  15.726 -23.017  0.00  0.00     0.013 A 
ATOM      7  C   UNL d   1      29.089  16.561 -24.175  0.00  0.00     0.013 A 
ENDROOT
BRANCH   1   8
ATOM      8  N   UNL d   1      30.977  15.458 -24.068  0.00  0.00    -0.056 NA
ATOM      9  C   UNL d   1      31.642  15.882 -23.833  0.00  0.00     0.787 C 
ATOM     10  N   UNL d   1      32.397  15.610 -24.016  0.00  0.00     0.064 N 
ATOM     11  N   UNL d   1      31.547  16.584 -23.410  0.00  0.00     0.064 N 
ENDBRANCH   1   8
TORSDOF 1
ENDMDL
MODEL 2
REMARK VINA RESULT:      -2.2      1.122      1.480
REMARK  1 active torsions:
REMARK  status: ('A' for Active; 'I' for Inactive)
REMARK       I    between atoms: N_2  and  C_1 
REMARK    1  A    between atoms: C_5  and  N_2 
ROOT
ATOM      1  C   UNL d   1      30.136  16.777 -24.584  0.00  0.00     0.100 A 
ATOM      2  C   UNL d   1      28.704  16.646 -23.769  0.00  0.00     0.058 A 
ATOM      3 CL   UNL d   1      27.992  16.580 -23.362  0.00  0.00    -0.082 Cl
ATOM      4  C   UNL d   1      29.511  17.298 -24.751  0.00  0.00     0.021 A 
ATOM      5  C   UNL d   1      30.041  16.193 -24.010  0.00  0.00     0.021 A 
ATOM      6  C   UNL d   1      28.798  17.231 -24.343  0.00  0.00     0.013 A 
ATOM      7  C   UNL d   1      29.322  16.129 -23.602  0.00  0.00     0.013 A 
ENDROOT
BRANCH   1   8
ATOM      8  N   UNL d   1      30.849  16.847 -24.995  0.00  0.00    -0.056 NA
ATOM      9  C   UNL d   1      31.459  17.308 -24.691  0.00  0.00     0.787 C 
ATOM     10  N   UNL d   1      32.171  17.380 -25.097  0.00  0.00     0.064 N 
ATOM     11  N   UNL d   1      31.352  17.700 -23.973  0.00  0.00     0.064 N 
ENDBRANCH   1   8
TORSDOF 1
ENDMDL
MODEL 3
REMARK VINA RESULT:      -2.1      6.417      7.075
REMARK  1 active torsions:
REMARK  status: ('A' for Active; 'I' for Inactive)
REMARK       I    between atoms: N_2  and  C_1 
REMARK    1  A    between atoms: C_5  and  N_2 
ROOT
ATOM      1  C   UNL d   1      33.217  21.751 -21.158  0.00  0.00     0.100 A 
ATOM      2  C   UNL d   1      33.168  20.221 -21.785  0.00  0.00     0.058 A 
ATOM      3 CL   UNL d   1      33.144  19.461 -22.098  0.00  0.00    -0.082 Cl
ATOM      4  C   UNL d   1      33.193  21.093 -20.653  0.00  0.00     0.021 A 
ATOM      5  C   UNL d   1      33.217  21.641 -21.976  0.00  0.00     0.021 A 
ATOM      6  C   UNL d   1      33.169  20.332 -20.967  0.00  0.00     0.013 A 
ATOM      7  C   UNL d   1      33.192  20.873 -22.288  0.00  0.00     0.013 A 
ENDROOT
BRANCH   1   8
ATOM      8  N   UNL d   1      33.241  22.513 -20.840  0.00  0.00    -0.056 NA
ATOM      9  C   UNL d   1      32.544  22.935 -20.721  0.00  0.00     0.787 C 
ATOM     10  N   UNL d   1      32.565  23.694 -20.405  0.00  0.00     0.064 N 
ATOM     11  N   UNL d   1      31.822  22.591 -20.923  0.00  0.00     0.064 N 
ENDBRANCH   1   8
TORSDOF 1
ENDMDL
MODEL 4
REMARK VINA RESULT:      -2.1      1.148      1.554
REMARK  1 active torsions:
REMARK  status: ('A' for Active; 'I' for Inactive)
REMARK       I    between atoms: N_2  and  C_1 
REMARK    1  A    between atoms: C_5  and  N_2 
ROOT
ATOM      1  C   UNL d   1      31.023  16.303 -24.158  0.00  0.00     0.100 A 
ATOM      2  C   UNL d   1      29.788  15.736 -23.216  0.00  0.00     0.058 A 
ATOM      3 CL   UNL d   1      29.175  15.453 -22.746  0.00  0.00    -0.082 Cl
ATOM      4  C   UNL d   1      30.250  16.585 -24.268  0.00  0.00     0.021 A 
ATOM      5  C   UNL d   1      31.175  15.738 -23.577  0.00  0.00     0.021 A 
ATOM      6  C   UNL d   1      29.636  16.301 -23.797  0.00  0.00     0.013 A 
ATOM      7  C   UNL d   1      30.554  15.455 -23.105  0.00  0.00     0.013 A 
ENDROOT
BRANCH   1   8
ATOM      8  N   UNL d   1      31.636  16.589 -24.632  0.00  0.00    -0.056 NA
ATOM      9  C   UNL d   1      32.094  17.224 -24.378  0.00  0.00     0.787 C 
ATOM     10  N   UNL d   1      32.706  17.512 -24.847  0.00  0.00     0.064 N 
ATOM     11  N   UNL d   1      31.936  17.572 -23.647  0.00  0.00     0.064 N 
ENDBRANCH   1   8
TORSDOF 1
ENDMDL
MODEL 5
REMARK VINA RESULT:      -2.1      1.941      2.767
REMARK  1 active torsions:
REMARK  status: ('A' for Active; 'I' for Inactive)
REMARK       I    between atoms: N_2  and  C_1 
REMARK    1  A    between atoms: C_5  and  N_2 
ROOT
ATOM      1  C   UNL d   1      30.045  16.173 -24.218  0.00  0.00     0.100 A 
ATOM      2  C   UNL d   1      31.455  16.972 -23.889  0.00  0.00     0.058 A 
ATOM      3 CL   UNL d   1      32.156  17.369 -23.725  0.00  0.00    -0.082 Cl
ATOM      4  C   UNL d   1      30.169  16.940 -24.511  0.00  0.00     0.021 A 
ATOM      5  C   UNL d   1      30.627  15.809 -23.761  0.00  0.00     0.021 A 
ATOM      6  C   UNL d   1      30.872  17.336 -24.346  0.00  0.00     0.013 A 
ATOM      7  C   UNL d   1      31.334  16.212 -23.597  0.00  0.00     0.013 A 
ENDROOT
BRANCH   1   8
ATOM      8  N   UNL d   1      29.339  15.778 -24.385  0.00  0.00    -0.056 NA
ATOM      9  C   UNL d   1      28.696  15.845 -23.876  0.00  0.00     0.787 C 
ATOM     10  N   UNL d   1      27.991  15.453 -24.039  0.00  0.00     0.064 N 
ATOM     11  N   UNL d   1      28.763  16.309 -23.198  0.00  0.00     0.064 N 
ENDBRANCH   1   8
TORSDOF 1
ENDMDL
