MODEL 1
REMARK VINA RESULT:      -5.8      0.000      0.000
REMARK  9 active torsions:
REMARK  status: ('A' for Active; 'I' for Inactive)
REMARK    1  A    between atoms: N_9  and  C_3 
REMARK    2  A    between atoms: S_14  and  C_6 
REMARK       I    between atoms: C_11  and  N_9 
REMARK    3  A    between atoms: C_18  and  C_11 
REMARK    4  A    between atoms: C_12  and  C_15 
REMARK    5  A    between atoms: O_25  and  C_12 
REMARK    6  A    between atoms: C_13  and  C_23 
REMARK       I    between atoms: N_16  and  C_13 
REMARK    7  A    between atoms: C_23  and  S_14 
REMARK    8  A    between atoms: C_24  and  N_16 
REMARK    9  A    between atoms: C_32  and  O_25 
ROOT
ATOM      1  C   UNL d   1     -40.303  14.342  20.725  0.00  0.00     0.079 A 
ATOM      2  C   UNL d   1     -40.608  14.014  21.430  0.00  0.00     0.187 A 
ATOM      3  C   UNL d   1     -40.756  14.327  20.047  0.00  0.00     0.171 A 
ATOM      4  N   UNL d   1     -41.359  13.678  21.443  0.00  0.00    -0.197 NA
ATOM      5  N   UNL d   1     -41.511  13.995  20.042  0.00  0.00    -0.202 NA
ATOM      6  C   UNL d   1     -41.815  13.667  20.747  0.00  0.00     0.198 A 
ATOM      7  C   UNL d   1     -39.549  14.630  20.890  0.00  0.00     0.029 A 
ATOM      8  O   UNL d   1     -40.034  14.105  22.027  0.00  0.00    -0.289 OA
ATOM      9  C   UNL d   1     -39.379  14.487  21.687  0.00  0.00     0.102 A 
ATOM     10  C   UNL d   1     -39.043  15.002  20.351  0.00  0.00     0.002 C 
ATOM     11  C   UNL d   1     -38.683  14.688  22.081  0.00  0.00     0.027 C 
ENDROOT
BRANCH   6  12
ATOM     12  S   UNL d   1     -42.574  13.329  20.756  0.00  0.00    -0.043 SA
BRANCH  12  13
ATOM     13  C   UNL d   1     -42.894  13.053  21.459  0.00  0.00     0.101 C 
BRANCH  13  14
ATOM     14  C   UNL d   1     -43.711  12.960  21.532  0.00  0.00     0.286 C 
ATOM     15  N   UNL d   1     -44.090  13.212  22.215  0.00  0.00    -0.208 NA
ATOM     16  O   UNL d   1     -44.147  12.614  20.923  0.00  0.00    -0.265 OA
BRANCH  15  17
ATOM     17  C   UNL d   1     -44.906  13.123  22.298  0.00  0.00     0.085 A 
ATOM     18  C   UNL d   1     -45.408  13.746  22.121  0.00  0.00     0.019 A 
ATOM     19  C   UNL d   1     -46.223  13.647  22.208  0.00  0.00     0.007 A 
ATOM     20  C   UNL d   1     -46.529  12.928  22.471  0.00  0.00     0.064 A 
ATOM     21  C   UNL d   1     -46.014  12.299  22.649  0.00  0.00     0.007 A 
ATOM     22  C   UNL d   1     -45.206  12.396  22.564  0.00  0.00     0.019 A 
BRANCH  20  23
ATOM     23  C   UNL d   1     -47.349  12.830  22.558  0.00  0.00     0.300 C 
ATOM     24  O   UNL d   1     -47.678  12.740  23.309  0.00  0.00    -0.259 OA
BRANCH  23  25
ATOM     25  O   UNL d   1     -47.834  12.823  21.891  0.00  0.00    -0.271 OA
BRANCH  25  26
ATOM     26  C   UNL d   1     -48.635  12.648  21.960  0.00  0.00     0.126 C 
ATOM     27  C   UNL d   1     -49.131  12.728  21.312  0.00  0.00     0.029 C 
ENDBRANCH  25  26
ENDBRANCH  23  25
ENDBRANCH  20  23
ENDBRANCH  15  17
ENDBRANCH  13  14
ENDBRANCH  12  13
ENDBRANCH   6  12
BRANCH   3  28
ATOM     28  N   UNL d   1     -40.455  14.651  19.350  0.00  0.00    -0.189 NA
ATOM     29  C   UNL d   1     -40.696  14.348  18.616  0.00  0.00     0.281 C 
ATOM     30  O   UNL d   1     -41.235  13.724  18.582  0.00  0.00    -0.265 OA
BRANCH  29  31
ATOM     31  C   UNL d   1     -40.392  14.675  17.922  0.00  0.00     0.058 A 
ATOM     32  C   UNL d   1     -39.797  14.284  17.514  0.00  0.00     0.005 A 
ATOM     33  C   UNL d   1     -39.492  14.605  16.824  0.00  0.00     0.000 A 
ATOM     34  C   UNL d   1     -39.778  15.321  16.533  0.00  0.00     0.000 A 
ATOM     35  C   UNL d   1     -40.379  15.713  16.947  0.00  0.00     0.000 A 
ATOM     36  C   UNL d   1     -40.687  15.388  17.645  0.00  0.00     0.005 A 
ENDBRANCH  29  31
ENDBRANCH   3  28
TORSDOF 9
ENDMDL
MODEL 2
REMARK VINA RESULT:      -4.6      2.216      8.019
REMARK  9 active torsions:
REMARK  status: ('A' for Active; 'I' for Inactive)
REMARK    1  A    between atoms: N_9  and  C_3 
REMARK    2  A    between atoms: S_14  and  C_6 
REMARK       I    between atoms: C_11  and  N_9 
REMARK    3  A    between atoms: C_18  and  C_11 
REMARK    4  A    between atoms: C_12  and  C_15 
REMARK    5  A    between atoms: O_25  and  C_12 
REMARK    6  A    between atoms: C_13  and  C_23 
REMARK       I    between atoms: N_16  and  C_13 
REMARK    7  A    between atoms: C_23  and  S_14 
REMARK    8  A    between atoms: C_24  and  N_16 
REMARK    9  A    between atoms: C_32  and  O_25 
ROOT
ATOM      1  C   UNL d   1     -48.280  12.430  23.192  0.00  0.00     0.079 A 
ATOM      2  C   UNL d   1     -47.616  11.941  23.064  0.00  0.00     0.187 A 
ATOM      3  C   UNL d   1     -48.219  13.233  23.062  0.00  0.00     0.171 A 
ATOM      4  N   UNL d   1     -46.903  12.264  22.807  0.00  0.00    -0.197 NA
ATOM      5  N   UNL d   1     -47.514  13.573  22.805  0.00  0.00    -0.202 NA
ATOM      6  C   UNL d   1     -46.849  13.084  22.676  0.00  0.00     0.198 A 
ATOM      7  C   UNL d   1     -48.900  11.948  23.444  0.00  0.00     0.029 A 
ATOM      8  O   UNL d   1     -47.834  11.157  23.238  0.00  0.00    -0.289 OA
ATOM      9  C   UNL d   1     -48.631  11.166  23.473  0.00  0.00     0.102 A 
ATOM     10  C   UNL d   1     -49.664  12.201  23.635  0.00  0.00     0.002 C 
ATOM     11  C   UNL d   1     -49.074  10.506  23.697  0.00  0.00     0.027 C 
ENDROOT
BRANCH   6  12
ATOM     12  S   UNL d   1     -46.132  13.415  22.417  0.00  0.00    -0.043 SA
BRANCH  12  13
ATOM     13  C   UNL d   1     -45.488  12.931  22.264  0.00  0.00     0.101 C 
BRANCH  13  14
ATOM     14  C   UNL d   1     -44.768  13.263  22.034  0.00  0.00     0.286 C 
ATOM     15  N   UNL d   1     -44.191  12.789  21.693  0.00  0.00    -0.208 NA
ATOM     16  O   UNL d   1     -44.626  14.068  22.144  0.00  0.00    -0.265 OA
BRANCH  15  17
ATOM     17  C   UNL d   1     -43.468  13.110  21.459  0.00  0.00     0.085 A 
ATOM     18  C   UNL d   1     -43.411  13.907  21.279  0.00  0.00     0.019 A 
ATOM     19  C   UNL d   1     -42.684  14.220  21.046  0.00  0.00     0.007 A 
ATOM     20  C   UNL d   1     -42.020  13.733  20.995  0.00  0.00     0.064 A 
ATOM     21  C   UNL d   1     -42.083  12.924  21.179  0.00  0.00     0.007 A 
ATOM     22  C   UNL d   1     -42.805  12.613  21.411  0.00  0.00     0.019 A 
BRANCH  20  23
ATOM     23  C   UNL d   1     -41.289  14.049  20.761  0.00  0.00     0.300 C 
ATOM     24  O   UNL d   1     -40.780  14.378  21.322  0.00  0.00    -0.259 OA
BRANCH  23  25
ATOM     25  O   UNL d   1     -41.071  14.032  19.965  0.00  0.00    -0.271 OA
BRANCH  25  26
ATOM     26  C   UNL d   1     -40.321  14.282  19.733  0.00  0.00     0.126 C 
ATOM     27  C   UNL d   1     -40.137  14.345  18.937  0.00  0.00     0.029 C 
ENDBRANCH  25  26
ENDBRANCH  23  25
ENDBRANCH  20  23
ENDBRANCH  15  17
ENDBRANCH  13  14
ENDBRANCH  12  13
ENDBRANCH   6  12
BRANCH   3  28
ATOM     28  N   UNL d   1     -48.876  13.716  23.189  0.00  0.00    -0.189 NA
ATOM     29  C   UNL d   1     -48.931  14.448  22.801  0.00  0.00     0.281 C 
ATOM     30  O   UNL d   1     -48.331  14.692  22.290  0.00  0.00    -0.265 OA
BRANCH  29  31
ATOM     31  C   UNL d   1     -49.590  14.928  22.931  0.00  0.00     0.058 A 
ATOM     32  C   UNL d   1     -50.230  14.889  22.419  0.00  0.00     0.005 A 
ATOM     33  C   UNL d   1     -50.887  15.364  22.545  0.00  0.00     0.000 A 
ATOM     34  C   UNL d   1     -50.911  15.884  23.183  0.00  0.00     0.000 A 
ATOM     35  C   UNL d   1     -50.263  15.922  23.698  0.00  0.00     0.000 A 
ATOM     36  C   UNL d   1     -49.599  15.442  23.571  0.00  0.00     0.005 A 
ENDBRANCH  29  31
ENDBRANCH   3  28
TORSDOF 9
ENDMDL
MODEL 3
REMARK VINA RESULT:      -3.8      1.475      7.017
REMARK  9 active torsions:
REMARK  status: ('A' for Active; 'I' for Inactive)
REMARK    1  A    between atoms: N_9  and  C_3 
REMARK    2  A    between atoms: S_14  and  C_6 
REMARK       I    between atoms: C_11  and  N_9 
REMARK    3  A    between atoms: C_18  and  C_11 
REMARK    4  A    between atoms: C_12  and  C_15 
REMARK    5  A    between atoms: O_25  and  C_12 
REMARK    6  A    between atoms: C_13  and  C_23 
REMARK       I    between atoms: N_16  and  C_13 
REMARK    7  A    between atoms: C_23  and  S_14 
REMARK    8  A    between atoms: C_24  and  N_16 
REMARK    9  A    between atoms: C_32  and  O_25 
ROOT
ATOM      1  C   UNL d   1     -44.308  11.803  22.708  0.00  0.00     0.079 A 
ATOM      2  C   UNL d   1     -43.547  11.560  22.464  0.00  0.00     0.187 A 
ATOM      3  C   UNL d   1     -44.597  12.525  22.462  0.00  0.00     0.171 A 
ATOM      4  N   UNL d   1     -43.091  12.043  21.978  0.00  0.00    -0.197 NA
ATOM      5  N   UNL d   1     -44.154  13.021  21.975  0.00  0.00    -0.202 NA
ATOM      6  C   UNL d   1     -43.393  12.778  21.731  0.00  0.00     0.198 A 
ATOM      7  C   UNL d   1     -44.619  11.206  23.185  0.00  0.00     0.029 A 
ATOM      8  O   UNL d   1     -43.396  10.810  22.794  0.00  0.00    -0.289 OA
ATOM      9  C   UNL d   1     -44.064  10.595  23.240  0.00  0.00     0.102 A 
ATOM     10  C   UNL d   1     -45.362  11.215  23.548  0.00  0.00     0.002 C 
ATOM     11  C   UNL d   1     -44.153   9.893  23.663  0.00  0.00     0.027 C 
ENDROOT
BRANCH   6  12
ATOM     12  S   UNL d   1     -42.936  13.268  21.240  0.00  0.00    -0.043 SA
BRANCH  12  13
ATOM     13  C   UNL d   1     -42.146  13.402  21.413  0.00  0.00     0.101 C 
BRANCH  13  14
ATOM     14  C   UNL d   1     -41.697  13.903  20.933  0.00  0.00     0.286 C 
ATOM     15  N   UNL d   1     -41.148  13.585  20.414  0.00  0.00    -0.208 NA
ATOM     16  O   UNL d   1     -41.799  14.721  20.975  0.00  0.00    -0.265 OA
BRANCH  15  17
ATOM     17  C   UNL d   1     -40.694  14.076  19.931  0.00  0.00     0.085 A 
ATOM     18  C   UNL d   1     -39.901  13.914  19.808  0.00  0.00     0.019 A 
ATOM     19  C   UNL d   1     -39.455  14.411  19.323  0.00  0.00     0.007 A 
ATOM     20  C   UNL d   1     -39.807  15.066  18.964  0.00  0.00     0.064 A 
ATOM     21  C   UNL d   1     -40.613  15.225  19.093  0.00  0.00     0.007 A 
ATOM     22  C   UNL d   1     -41.056  14.733  19.574  0.00  0.00     0.019 A 
BRANCH  20  23
ATOM     23  C   UNL d   1     -39.358  15.565  18.477  0.00  0.00     0.300 C 
ATOM     24  O   UNL d   1     -38.658  15.901  18.759  0.00  0.00    -0.259 OA
BRANCH  23  25
ATOM     25  O   UNL d   1     -39.611  15.725  17.708  0.00  0.00    -0.271 OA
BRANCH  25  26
ATOM     26  C   UNL d   1     -39.067  15.922  17.122  0.00  0.00     0.126 C 
ATOM     27  C   UNL d   1     -39.083  15.534  16.400  0.00  0.00     0.029 C 
ENDBRANCH  25  26
ENDBRANCH  23  25
ENDBRANCH  20  23
ENDBRANCH  15  17
ENDBRANCH  13  14
ENDBRANCH  12  13
ENDBRANCH   6  12
BRANCH   3  28
ATOM     28  N   UNL d   1     -45.349  12.765  22.704  0.00  0.00    -0.189 NA
ATOM     29  C   UNL d   1     -45.824  13.211  22.190  0.00  0.00     0.281 C 
ATOM     30  O   UNL d   1     -45.547  13.414  21.440  0.00  0.00    -0.265 OA
BRANCH  29  31
ATOM     31  C   UNL d   1     -46.575  13.449  22.437  0.00  0.00     0.058 A 
ATOM     32  C   UNL d   1     -46.689  14.213  22.717  0.00  0.00     0.005 A 
ATOM     33  C   UNL d   1     -47.433  14.454  22.962  0.00  0.00     0.000 A 
ATOM     34  C   UNL d   1     -48.073  13.935  22.931  0.00  0.00     0.000 A 
ATOM     35  C   UNL d   1     -47.955  13.165  22.648  0.00  0.00     0.000 A 
ATOM     36  C   UNL d   1     -47.202  12.922  22.399  0.00  0.00     0.005 A 
ENDBRANCH  29  31
ENDBRANCH   3  28
TORSDOF 9
ENDMDL
