MODEL 1
REMARK VINA RESULT:      19.8      0.000      0.000
REMARK  3 active torsions:
REMARK  status: ('A' for Active; 'I' for Inactive)
REMARK    1  A    between atoms: N_2  and  S_1 
REMARK    2  A    between atoms: N_3  and  S_1 
REMARK    3  A    between atoms: C_6  and  N_3 
ROOT
ATOM      1  S   UNL d   1     -57.219 -98.776 -44.355  0.00  0.00     0.351 S 
ATOM      2  O   UNL d   1     -57.103 -98.773 -43.539  0.00  0.00    -0.180 OA
ATOM      3  O   UNL d   1     -57.335 -98.779 -45.170  0.00  0.00    -0.180 OA
ENDROOT
BRANCH   1   4
ATOM      4  N   UNL d   1     -58.034 -98.756 -44.239  0.00  0.00    -0.215 N 
ATOM      5  C   UNL d   1     -58.342 -98.864 -43.476  0.00  0.00     0.093 C 
ATOM      6  C   UNL d   1     -59.150 -98.843 -43.365  0.00  0.00     0.020 C 
ATOM      7  C   UNL d   1     -59.661 -98.828 -44.002  0.00  0.00     0.003 C 
ATOM      8  C   UNL d   1     -59.356 -98.832 -44.767  0.00  0.00     0.020 C 
ATOM      9  C   UNL d   1     -58.539 -98.853 -44.894  0.00  0.00     0.093 C 
ENDBRANCH   1   4
BRANCH   1  10
ATOM     10  N   UNL d   1     -56.416 -98.797 -44.541  0.00  0.00    -0.144 NA
BRANCH  10  11
ATOM     11  C   UNL d   1     -55.984 -99.515 -44.471  0.00  0.00     0.095 A 
ATOM     12  C   UNL d   1     -56.389-100.237 -44.388  0.00  0.00     0.020 A 
ATOM     13  C   UNL d   1     -55.963-100.946 -44.332  0.00  0.00     0.002 A 
ATOM     14  C   UNL d   1     -55.131-100.930 -44.353  0.00  0.00     0.000 A 
ATOM     15  C   UNL d   1     -54.711-100.212 -44.438  0.00  0.00     0.002 A 
ATOM     16  C   UNL d   1     -54.711-101.641 -44.279  0.00  0.00     0.000 C 
ATOM     17  C   UNL d   1     -55.149 -99.498 -44.500  0.00  0.00     0.020 A 
ENDBRANCH  10  11
ENDBRANCH   1  10
TORSDOF 3
ENDMDL
