MODEL 1
REMARK VINA RESULT:      81.6      0.000      0.000
REMARK  3 active torsions:
REMARK  status: ('A' for Active; 'I' for Inactive)
REMARK    1  A    between atoms: C_13  and  N_3 
REMARK    2  A    between atoms: C_10  and  C_6 
REMARK    3  A    between atoms: C_11  and  C_8 
ROOT
ATOM      1  C   UNL d   1      58.648  49.460  52.602  0.00  0.00     0.167 A 
ATOM      2  C   UNL d   1      59.267  49.479  52.049  0.00  0.00     0.056 A 
ATOM      3  N   UNL d   1      58.968  49.589  53.357  0.00  0.00    -0.212 N 
ATOM      4  N   UNL d   1      59.795  49.690  53.273  0.00  0.00    -0.164 NA
ATOM      5  N   UNL d   1      57.876  49.327  52.346  0.00  0.00    -0.206 NA
ATOM      6  C   UNL d   1      59.109  49.367  51.250  0.00  0.00     0.015 A 
ATOM      7  C   UNL d   1      59.979  49.622  52.464  0.00  0.00     0.104 A 
ATOM      8  C   UNL d   1      58.342  49.235  50.993  0.00  0.00     0.059 A 
ATOM      9  C   UNL d   1      57.727  49.215  51.543  0.00  0.00     0.187 A 
ATOM     10  N   UNL d   1      56.957  49.083  51.289  0.00  0.00    -0.127 N 
ATOM     11  C   UNL d   1      60.726  49.684  52.132  0.00  0.00     0.023 C 
ENDROOT
BRANCH   3  12
ATOM     12  C   UNL d   1      58.544  49.613  54.067  0.00  0.00     0.085 A 
ATOM     13  C   UNL d   1      57.721  49.632  54.055  0.00  0.00     0.019 A 
ATOM     14  C   UNL d   1      57.304  49.656  54.758  0.00  0.00     0.002 A 
ATOM     15  C   UNL d   1      57.700  49.662  55.481  0.00  0.00     0.000 A 
ATOM     16  C   UNL d   1      58.531  49.643  55.496  0.00  0.00     0.002 A 
ATOM     17  C   UNL d   1      57.276  49.686  56.190  0.00  0.00     0.000 C 
ATOM     18  C   UNL d   1      58.948  49.619  54.788  0.00  0.00     0.019 A 
ENDBRANCH   3  12
BRANCH   6  19
ATOM     19  C   UNL d   1      59.729  49.387  50.706  0.00  0.00     0.030 A 
ATOM     20  S   UNL d   1      60.515  49.184  50.850  0.00  0.00    -0.086 SA
ATOM     21  C   UNL d   1      60.942  49.288  50.151  0.00  0.00     0.035 A 
ATOM     22  C   UNL d   1      60.417  49.556  49.575  0.00  0.00     0.007 A 
ATOM     23  C   UNL d   1      59.672  49.620  49.907  0.00  0.00     0.007 A 
ENDBRANCH   6  19
BRANCH   8  24
ATOM     24  C   UNL d   1      58.184  49.122  50.192  0.00  0.00     0.125 C 
ATOM     25  N   UNL d   1      57.749  49.684  49.778  0.00  0.00    -0.146 N 
ENDBRANCH   8  24
TORSDOF 3
ENDMDL
