MODEL 1
REMARK VINA RESULT:      -7.6      0.000      0.000
REMARK  4 active torsions:
REMARK  status: ('A' for Active; 'I' for Inactive)
REMARK    1  A    between atoms: N_2  and  S_1 
REMARK    2  A    between atoms: C_7  and  S_1 
REMARK    3  A    between atoms: S_9  and  C_3 
REMARK    4  A    between atoms: C_13  and  S_9 
ROOT
ATOM      1  S   UNL d   1      52.774  33.441  52.964  0.00  0.00     0.273 S 
ATOM      2  O   UNL d   1      53.568  33.239  52.998  0.00  0.00    -0.200 OA
ATOM      3  O   UNL d   1      52.846  32.772  52.480  0.00  0.00    -0.200 OA
ENDROOT
BRANCH   1   4
ATOM      4  N   UNL d   1      52.951  34.070  53.477  0.00  0.00    -0.208 N 
ATOM      5  C   UNL d   1      53.367  34.010  54.197  0.00  0.00     0.189 A 
ATOM      6  N   UNL d   1      53.419  34.769  54.530  0.00  0.00    -0.219 NA
ATOM      7  C   UNL d   1      53.035  35.296  54.015  0.00  0.00     0.121 A 
ATOM      8  C   UNL d   1      52.745  34.871  53.366  0.00  0.00     0.114 A 
BRANCH   5   9
ATOM      9  S   UNL d   1      53.677  33.310  54.524  0.00  0.00    -0.049 SA
BRANCH   9  10
ATOM     10  C   UNL d   1      54.144  33.345  55.207  0.00  0.00     0.038 C 
ATOM     11  C   UNL d   1      54.348  32.648  55.599  0.00  0.00     0.008 C 
ENDBRANCH   9  10
ENDBRANCH   5   9
ENDBRANCH   1   4
BRANCH   1  12
ATOM     12  C   UNL d   1      51.969  33.630  52.919  0.00  0.00     0.104 A 
ATOM     13  C   UNL d   1      51.713  34.170  52.355  0.00  0.00     0.013 A 
ATOM     14  C   UNL d   1      50.912  34.358  52.311  0.00  0.00     0.001 A 
ATOM     15  C   UNL d   1      50.375  34.005  52.829  0.00  0.00     0.000 A 
ATOM     16  C   UNL d   1      50.637  33.466  53.391  0.00  0.00     0.001 A 
ATOM     17  C   UNL d   1      51.444  33.279  53.434  0.00  0.00     0.013 A 
ENDBRANCH   1  12
TORSDOF 4
ENDMDL
MODEL 2
REMARK VINA RESULT:      -7.6      1.817      2.914
REMARK  4 active torsions:
REMARK  status: ('A' for Active; 'I' for Inactive)
REMARK    1  A    between atoms: N_2  and  S_1 
REMARK    2  A    between atoms: C_7  and  S_1 
REMARK    3  A    between atoms: S_9  and  C_3 
REMARK    4  A    between atoms: C_13  and  S_9 
ROOT
ATOM      1  S   UNL d   1      54.152  32.680  53.464  0.00  0.00     0.273 S 
ATOM      2  O   UNL d   1      54.398  32.131  52.907  0.00  0.00    -0.200 OA
ATOM      3  O   UNL d   1      54.980  32.698  53.496  0.00  0.00    -0.200 OA
ENDROOT
BRANCH   1   4
ATOM      4  N   UNL d   1      53.371  32.487  53.254  0.00  0.00    -0.208 N 
ATOM      5  C   UNL d   1      53.038  31.724  53.264  0.00  0.00     0.189 A 
ATOM      6  N   UNL d   1      52.248  31.782  53.014  0.00  0.00    -0.219 NA
ATOM      7  C   UNL d   1      52.096  32.583  52.850  0.00  0.00     0.121 A 
ATOM      8  C   UNL d   1      52.783  33.020  52.996  0.00  0.00     0.114 A 
BRANCH   5   9
ATOM      9  S   UNL d   1      53.430  31.023  53.486  0.00  0.00    -0.049 SA
BRANCH   9  10
ATOM     10  C   UNL d   1      53.039  30.296  53.428  0.00  0.00     0.038 C 
ATOM     11  C   UNL d   1      53.352  29.632  53.806  0.00  0.00     0.008 C 
ENDBRANCH   9  10
ENDBRANCH   5   9
ENDBRANCH   1   4
BRANCH   1  12
ATOM     12  C   UNL d   1      53.921  33.238  54.031  0.00  0.00     0.104 A 
ATOM     13  C   UNL d   1      53.943  33.037  54.827  0.00  0.00     0.013 A 
ATOM     14  C   UNL d   1      53.714  33.593  55.390  0.00  0.00     0.001 A 
ATOM     15  C   UNL d   1      53.464  34.343  55.153  0.00  0.00     0.000 A 
ATOM     16  C   UNL d   1      53.443  34.538  54.356  0.00  0.00     0.001 A 
ATOM     17  C   UNL d   1      53.675  33.977  53.791  0.00  0.00     0.013 A 
ENDBRANCH   1  12
TORSDOF 4
ENDMDL
MODEL 3
REMARK VINA RESULT:      -7.3      1.118      3.194
REMARK  4 active torsions:
REMARK  status: ('A' for Active; 'I' for Inactive)
REMARK    1  A    between atoms: N_2  and  S_1 
REMARK    2  A    between atoms: C_7  and  S_1 
REMARK    3  A    between atoms: S_9  and  C_3 
REMARK    4  A    between atoms: C_13  and  S_9 
ROOT
ATOM      1  S   UNL d   1      53.165  34.156  53.371  0.00  0.00     0.273 S 
ATOM      2  O   UNL d   1      52.751  34.499  52.752  0.00  0.00    -0.200 OA
ATOM      3  O   UNL d   1      53.420  34.945  53.353  0.00  0.00    -0.200 OA
ENDROOT
BRANCH   1   4
ATOM      4  N   UNL d   1      52.769  33.447  53.192  0.00  0.00    -0.208 N 
ATOM      5  C   UNL d   1      51.948  33.363  53.076  0.00  0.00     0.189 A 
ATOM      6  N   UNL d   1      51.791  32.565  52.911  0.00  0.00    -0.219 NA
ATOM      7  C   UNL d   1      52.515  32.158  52.925  0.00  0.00     0.121 A 
ATOM      8  C   UNL d   1      53.120  32.696  53.097  0.00  0.00     0.114 A 
BRANCH   5   9
ATOM      9  S   UNL d   1      51.384  33.975  53.120  0.00  0.00    -0.049 SA
BRANCH   9  10
ATOM     10  C   UNL d   1      50.588  33.812  52.963  0.00  0.00     0.038 C 
ATOM     11  C   UNL d   1      50.041  34.430  52.940  0.00  0.00     0.008 C 
ENDBRANCH   9  10
ENDBRANCH   5   9
ENDBRANCH   1   4
BRANCH   1  12
ATOM     12  C   UNL d   1      53.591  33.826  53.999  0.00  0.00     0.104 A 
ATOM     13  C   UNL d   1      53.307  33.907  54.766  0.00  0.00     0.013 A 
ATOM     14  C   UNL d   1      53.731  33.578  55.391  0.00  0.00     0.001 A 
ATOM     15  C   UNL d   1      54.434  33.171  55.244  0.00  0.00     0.000 A 
ATOM     16  C   UNL d   1      54.714  33.093  54.476  0.00  0.00     0.001 A 
ATOM     17  C   UNL d   1      54.284  33.425  53.849  0.00  0.00     0.013 A 
ENDBRANCH   1  12
TORSDOF 4
ENDMDL
MODEL 4
REMARK VINA RESULT:      -7.1      1.941      2.795
REMARK  4 active torsions:
REMARK  status: ('A' for Active; 'I' for Inactive)
REMARK    1  A    between atoms: N_2  and  S_1 
REMARK    2  A    between atoms: C_7  and  S_1 
REMARK    3  A    between atoms: S_9  and  C_3 
REMARK    4  A    between atoms: C_13  and  S_9 
ROOT
ATOM      1  S   UNL d   1      53.841  32.319  53.320  0.00  0.00     0.273 S 
ATOM      2  O   UNL d   1      54.136  33.073  53.191  0.00  0.00    -0.200 OA
ATOM      3  O   UNL d   1      54.664  32.225  53.282  0.00  0.00    -0.200 OA
ENDROOT
BRANCH   1   4
ATOM      4  N   UNL d   1      53.081  32.657  53.318  0.00  0.00    -0.208 N 
ATOM      5  C   UNL d   1      52.837  33.310  53.774  0.00  0.00     0.189 A 
ATOM      6  N   UNL d   1      52.039  33.462  53.602  0.00  0.00    -0.219 NA
ATOM      7  C   UNL d   1      51.793  32.902  53.040  0.00  0.00     0.121 A 
ATOM      8  C   UNL d   1      52.429  32.405  52.862  0.00  0.00     0.114 A 
BRANCH   5   9
ATOM      9  S   UNL d   1      53.313  33.736  54.310  0.00  0.00    -0.049 SA
BRANCH   9  10
ATOM     10  C   UNL d   1      53.010  34.410  54.683  0.00  0.00     0.038 C 
ATOM     11  C   UNL d   1      53.471  34.813  55.237  0.00  0.00     0.008 C 
ENDBRANCH   9  10
ENDBRANCH   5   9
ENDBRANCH   1   4
BRANCH   1  12
ATOM     12  C   UNL d   1      53.560  31.551  53.450  0.00  0.00     0.104 A 
ATOM     13  C   UNL d   1      53.573  31.241  54.210  0.00  0.00     0.013 A 
ATOM     14  C   UNL d   1      53.293  30.476  54.339  0.00  0.00     0.001 A 
ATOM     15  C   UNL d   1      53.004  30.030  53.708  0.00  0.00     0.000 A 
ATOM     16  C   UNL d   1      52.994  30.345  52.950  0.00  0.00     0.001 A 
ATOM     17  C   UNL d   1      53.276  31.115  52.823  0.00  0.00     0.013 A 
ENDBRANCH   1  12
TORSDOF 4
ENDMDL
