MODEL 1
REMARK VINA RESULT:      -2.3      0.000      0.000
REMARK  4 active torsions:
REMARK  status: ('A' for Active; 'I' for Inactive)
REMARK    1  A    between atoms: C_3  and  S_1 
REMARK    2  A    between atoms: N_5  and  S_1 
REMARK    3  A    between atoms: C_11  and  N_5 
REMARK    4  A    between atoms: C_21  and  N_5 
ROOT
ATOM      1  N   UNL d   1      28.682  16.107 -23.741  0.00  0.00    -0.273 N 
ATOM      2  C   UNL d   1      31.032  16.811 -23.977  0.00  0.00     0.104 A 
ATOM      3  C   UNL d   1      29.463  16.339 -23.817  0.00  0.00     0.067 A 
ATOM      4  C   UNL d   1      29.691  16.783 -24.470  0.00  0.00     0.017 A 
ATOM      5  C   UNL d   1      30.017  16.131 -23.243  0.00  0.00     0.017 A 
ATOM      6  C   UNL d   1      28.128  16.316 -24.316  0.00  0.00     0.265 A 
ATOM      7  C   UNL d   1      30.478  17.019 -24.551  0.00  0.00     0.014 A 
ATOM      8  C   UNL d   1      30.800  16.365 -23.322  0.00  0.00     0.014 A 
ATOM      9  C   UNL d   1      29.136  16.991 -25.044  0.00  0.00     0.006 A 
ATOM     10  C   UNL d   1      28.354  16.757 -24.966  0.00  0.00     0.061 A 
ATOM     11  O   UNL d   1      27.329  16.077 -24.236  0.00  0.00    -0.267 OA
ATOM     12  C   UNL d   1      28.451  15.661 -23.086  0.00  0.00     0.083 A 
ATOM     13  C   UNL d   1      29.791  15.690 -22.593  0.00  0.00     0.003 A 
ATOM     14  C   UNL d   1      29.005  15.453 -22.512  0.00  0.00     0.019 A 
ENDROOT
BRANCH   2  15
ATOM     15  S   UNL d   1      31.822  17.050 -24.060  0.00  0.00     0.271 S 
ATOM     16  O   UNL d   1      31.731  17.099 -24.884  0.00  0.00    -0.200 OA
ATOM     17  O   UNL d   1      31.920  17.003 -23.235  0.00  0.00    -0.200 OA
BRANCH  15  18
ATOM     18  N   UNL d   1      32.619  17.291 -24.142  0.00  0.00    -0.231 N 
BRANCH  18  19
ATOM     19  C   UNL d   1      32.827  18.081 -24.052  0.00  0.00     0.075 A 
ATOM     20  C   UNL d   1      32.846  18.412 -23.297  0.00  0.00     0.018 A 
ATOM     21  C   UNL d   1      33.052  19.197 -23.197  0.00  0.00     0.002 A 
ATOM     22  C   UNL d   1      33.072  19.532 -22.433  0.00  0.00     0.000 C 
ATOM     23  C   UNL d   1      33.241  19.658 -23.855  0.00  0.00     0.000 A 
ATOM     24  C   UNL d   1      33.221  19.327 -24.610  0.00  0.00     0.002 A 
ATOM     25  C   UNL d   1      33.013  18.537 -24.699  0.00  0.00     0.018 A 
ENDBRANCH  18  19
BRANCH  18  26
ATOM     26  C   UNL d   1      33.202  16.735 -24.313  0.00  0.00     0.092 C 
ATOM     27  C   UNL d   1      33.204  16.349 -25.043  0.00  0.00     0.021 C 
ENDBRANCH  18  26
ENDBRANCH  15  18
ENDBRANCH   2  15
TORSDOF 4
ENDMDL
MODEL 2
REMARK VINA RESULT:      -0.8      2.251      5.017
REMARK  4 active torsions:
REMARK  status: ('A' for Active; 'I' for Inactive)
REMARK    1  A    between atoms: C_3  and  S_1 
REMARK    2  A    between atoms: N_5  and  S_1 
REMARK    3  A    between atoms: C_11  and  N_5 
REMARK    4  A    between atoms: C_21  and  N_5 
ROOT
ATOM      1  N   UNL d   1      32.958  21.471 -21.144  0.00  0.00    -0.273 N 
ATOM      2  C   UNL d   1      32.797  19.542 -22.669  0.00  0.00     0.104 A 
ATOM      3  C   UNL d   1      32.905  20.829 -21.648  0.00  0.00     0.067 A 
ATOM      4  C   UNL d   1      32.740  20.952 -22.444  0.00  0.00     0.017 A 
ATOM      5  C   UNL d   1      33.017  20.064 -21.361  0.00  0.00     0.017 A 
ATOM      6  C   UNL d   1      32.846  22.237 -21.431  0.00  0.00     0.265 A 
ATOM      7  C   UNL d   1      32.686  20.307 -22.956  0.00  0.00     0.014 A 
ATOM      8  C   UNL d   1      32.963  19.422 -21.869  0.00  0.00     0.014 A 
ATOM      9  C   UNL d   1      32.628  21.718 -22.731  0.00  0.00     0.006 A 
ATOM     10  C   UNL d   1      32.682  22.360 -22.223  0.00  0.00     0.061 A 
ATOM     11  O   UNL d   1      32.901  22.893 -20.914  0.00  0.00    -0.267 OA
ATOM     12  C   UNL d   1      33.124  21.350 -20.345  0.00  0.00     0.083 A 
ATOM     13  C   UNL d   1      33.181  19.941 -20.570  0.00  0.00     0.003 A 
ATOM     14  C   UNL d   1      33.235  20.585 -20.057  0.00  0.00     0.019 A 
ENDROOT
BRANCH   2  15
ATOM     15  S   UNL d   1      32.742  18.895 -23.186  0.00  0.00     0.271 S 
ATOM     16  O   UNL d   1      32.567  19.403 -23.818  0.00  0.00    -0.200 OA
ATOM     17  O   UNL d   1      32.918  18.381 -22.556  0.00  0.00    -0.200 OA
BRANCH  15  18
ATOM     18  N   UNL d   1      32.687  18.242 -23.705  0.00  0.00    -0.231 N 
BRANCH  18  19
ATOM     19  C   UNL d   1      32.085  17.691 -23.619  0.00  0.00     0.075 A 
ATOM     20  C   UNL d   1      31.366  17.813 -24.005  0.00  0.00     0.018 A 
ATOM     21  C   UNL d   1      30.759  17.270 -23.927  0.00  0.00     0.002 A 
ATOM     22  C   UNL d   1      30.032  17.394 -24.318  0.00  0.00     0.000 C 
ATOM     23  C   UNL d   1      30.868  16.599 -23.460  0.00  0.00     0.000 A 
ATOM     24  C   UNL d   1      31.587  16.477 -23.074  0.00  0.00     0.002 A 
ATOM     25  C   UNL d   1      32.189  17.028 -23.160  0.00  0.00     0.018 A 
ENDBRANCH  18  19
BRANCH  18  26
ATOM     26  C   UNL d   1      33.241  18.148 -24.308  0.00  0.00     0.092 C 
ATOM     27  C   UNL d   1      32.997  18.154 -25.097  0.00  0.00     0.021 C 
ENDBRANCH  18  26
ENDBRANCH  15  18
ENDBRANCH   2  15
TORSDOF 4
ENDMDL
MODEL 3
REMARK VINA RESULT:       0.0      1.319      2.032
REMARK  4 active torsions:
REMARK  status: ('A' for Active; 'I' for Inactive)
REMARK    1  A    between atoms: C_3  and  S_1 
REMARK    2  A    between atoms: N_5  and  S_1 
REMARK    3  A    between atoms: C_11  and  N_5 
REMARK    4  A    between atoms: C_21  and  N_5 
ROOT
ATOM      1  N   UNL d   1      29.870  16.441 -24.482  0.00  0.00    -0.273 N 
ATOM      2  C   UNL d   1      31.592  18.152 -24.056  0.00  0.00     0.104 A 
ATOM      3  C   UNL d   1      30.443  17.008 -24.341  0.00  0.00     0.067 A 
ATOM      4  C   UNL d   1      30.218  17.785 -24.200  0.00  0.00     0.017 A 
ATOM      5  C   UNL d   1      31.242  16.801 -24.340  0.00  0.00     0.017 A 
ATOM      6  C   UNL d   1      29.071  16.648 -24.484  0.00  0.00     0.265 A 
ATOM      7  C   UNL d   1      30.793  18.359 -24.057  0.00  0.00     0.014 A 
ATOM      8  C   UNL d   1      31.815  17.371 -24.198  0.00  0.00     0.014 A 
ATOM      9  C   UNL d   1      29.419  17.992 -24.201  0.00  0.00     0.006 A 
ATOM     10  C   UNL d   1      28.846  17.422 -24.343  0.00  0.00     0.061 A 
ATOM     11  O   UNL d   1      28.486  16.067 -24.628  0.00  0.00    -0.267 OA
ATOM     12  C   UNL d   1      30.094  15.660 -24.624  0.00  0.00     0.083 A 
ATOM     13  C   UNL d   1      31.467  16.027 -24.480  0.00  0.00     0.003 A 
ATOM     14  C   UNL d   1      30.893  15.453 -24.623  0.00  0.00     0.019 A 
ENDROOT
BRANCH   2  15
ATOM     15  S   UNL d   1      32.167  18.732 -23.912  0.00  0.00     0.271 S 
ATOM     16  O   UNL d   1      31.594  19.329 -23.964  0.00  0.00    -0.200 OA
ATOM     17  O   UNL d   1      32.747  18.137 -23.859  0.00  0.00    -0.200 OA
BRANCH  15  18
ATOM     18  N   UNL d   1      32.750  19.314 -23.767  0.00  0.00    -0.231 N 
BRANCH  18  19
ATOM     19  C   UNL d   1      32.914  19.557 -23.000  0.00  0.00     0.075 A 
ATOM     20  C   UNL d   1      32.919  20.363 -22.822  0.00  0.00     0.018 A 
ATOM     21  C   UNL d   1      33.081  20.616 -22.062  0.00  0.00     0.002 A 
ATOM     22  C   UNL d   1      33.086  21.432 -21.882  0.00  0.00     0.000 C 
ATOM     23  C   UNL d   1      33.240  20.063 -21.471  0.00  0.00     0.000 A 
ATOM     24  C   UNL d   1      33.235  19.257 -21.648  0.00  0.00     0.002 A 
ATOM     25  C   UNL d   1      33.071  19.014 -22.415  0.00  0.00     0.018 A 
ENDBRANCH  18  19
BRANCH  18  26
ATOM     26  C   UNL d   1      33.165  19.648 -24.395  0.00  0.00     0.092 C 
ATOM     27  C   UNL d   1      32.762  19.884 -25.077  0.00  0.00     0.021 C 
ENDBRANCH  18  26
ENDBRANCH  15  18
ENDBRANCH   2  15
TORSDOF 4
ENDMDL
