MODEL 1
REMARK VINA RESULT:      77.6      0.000      0.000
REMARK  9 active torsions:
REMARK  status: ('A' for Active; 'I' for Inactive)
REMARK    1  A    between atoms: N_4  and  C_1 
REMARK       I    between atoms: C_8  and  N_4 
REMARK    2  A    between atoms: C_19  and  N_4 
REMARK    3  A    between atoms: S_6  and  C_11 
REMARK    4  A    between atoms: C_14  and  S_6 
REMARK    5  A    between atoms: C_10  and  C_8 
REMARK    6  A    between atoms: C_11  and  C_10 
REMARK    7  A    between atoms: C_20  and  C_19 
REMARK    8  A    between atoms: C_23  and  C_20 
REMARK    9  A    between atoms: N_21  and  C_23 
ROOT
ATOM      1  N   UNL d   1     -55.553-101.374 -42.973  0.00  0.00    -0.253 N 
ATOM      2  C   UNL d   1     -55.659-101.512 -42.164  0.00  0.00     0.267 C 
ATOM      3  O   UNL d   1     -56.213-101.087 -41.739  0.00  0.00    -0.267 OA
ENDROOT
BRANCH   1   4
ATOM      4  C   UNL d   1     -56.020-100.794 -43.351  0.00  0.00     0.182 A 
ATOM      5  N   UNL d   1     -56.840-100.744 -43.315  0.00  0.00    -0.222 NA
ATOM      6  C   UNL d   1     -57.083-100.089 -43.766  0.00  0.00     0.089 A 
ATOM      7  C   UNL d   1     -57.817 -99.781 -43.925  0.00  0.00     0.018 A 
ATOM      8  C   UNL d   1     -56.404 -99.740 -44.077  0.00  0.00     0.050 A 
ATOM      9  C   UNL d   1     -57.894 -99.111 -44.402  0.00  0.00     0.002 A 
ATOM     10  C   UNL d   1     -58.497-100.132 -43.612  0.00  0.00     0.002 C 
ATOM     11  C   UNL d   1     -58.629 -98.794 -44.566  0.00  0.00     0.000 C 
ATOM     12  C   UNL d   1     -57.218 -98.764 -44.711  0.00  0.00     0.001 A 
ATOM     13  C   UNL d   1     -56.476 -99.084 -44.545  0.00  0.00     0.008 A 
ATOM     14  S   UNL d   1     -55.744-100.171 -43.824  0.00  0.00    -0.048 SA
ENDBRANCH   1   4
BRANCH   1  15
ATOM     15  C   UNL d   1     -54.995-101.802 -43.402  0.00  0.00     0.086 C 
BRANCH  15  16
ATOM     16  C   UNL d   1     -54.722-101.512 -44.131  0.00  0.00     0.038 C 
BRANCH  16  17
ATOM     17  C   UNL d   1     -55.150-101.664 -44.819  0.00  0.00     0.082 C 
BRANCH  17  18
ATOM     18  N   UNL d   1     -55.295-102.441 -45.052  0.00  0.00    -0.300 N 
ATOM     19  C   UNL d   1     -54.712-102.869 -45.449  0.00  0.00     0.100 C 
ATOM     20  C   UNL d   1     -56.022-102.789 -44.888  0.00  0.00     0.100 C 
ENDBRANCH  17  18
ENDBRANCH  16  17
ENDBRANCH  15  16
ENDBRANCH   1  15
BRANCH   2  21
ATOM     21  C   UNL d   1     -55.194-102.088 -41.792  0.00  0.00     0.073 C 
BRANCH  21  22
ATOM     22  C   UNL d   1     -54.743-101.874 -41.129  0.00  0.00     0.104 C 
BRANCH  22  23
ATOM     23  S   UNL d   1     -54.999-102.071 -40.365  0.00  0.00     0.211 S 
ATOM     24  O   UNL d   1     -54.800-101.309 -40.106  0.00  0.00    -0.217 OA
ATOM     25  O   UNL d   1     -55.199-102.840 -40.631  0.00  0.00    -0.217 OA
BRANCH  23  26
ATOM     26  C   UNL d   1     -55.254-102.267 -39.605  0.00  0.00     0.088 A 
ATOM     27  C   UNL d   1     -54.755-102.145 -38.967  0.00  0.00     0.011 A 
ATOM     28  C   UNL d   1     -55.012-102.343 -38.200  0.00  0.00     0.001 A 
ATOM     29  C   UNL d   1     -55.762-102.657 -38.093  0.00  0.00     0.000 A 
ATOM     30  C   UNL d   1     -56.262-102.779 -38.727  0.00  0.00     0.001 A 
ATOM     31  C   UNL d   1     -56.007-102.583 -39.487  0.00  0.00     0.011 A 
ENDBRANCH  23  26
ENDBRANCH  22  23
ENDBRANCH  21  22
ENDBRANCH   2  21
TORSDOF 9
ENDMDL
