MODEL 1
REMARK VINA RESULT:      -6.8      0.000      0.000
REMARK  2 active torsions:
REMARK  status: ('A' for Active; 'I' for Inactive)
REMARK    1  A    between atoms: C_3  and  C_1 
REMARK       I    between atoms: C_2  and  N_4 
REMARK    2  A    between atoms: N_4  and  C_7 
ROOT
ATOM      1  C   UNL d   1     -47.346  13.774  22.628  0.00  0.00     0.073 A 
ATOM      2  C   UNL d   1     -47.771  14.463  22.795  0.00  0.00     0.024 A 
ATOM      3  C   UNL d   1     -48.531  14.562  22.490  0.00  0.00     0.100 A 
ATOM      4  C   UNL d   1     -47.679  13.187  22.156  0.00  0.00     0.004 A 
ATOM      5  C   UNL d   1     -48.439  13.286  21.850  0.00  0.00     0.002 A 
ATOM      6  C   UNL d   1     -48.865  13.972  22.016  0.00  0.00     0.020 A 
ENDROOT
BRANCH   1   7
ATOM      7  C   UNL d   1     -46.578  13.675  22.937  0.00  0.00     0.419 C 
ATOM      8  F   UNL d   1     -45.888  13.585  23.215  0.00  0.00    -0.166 F 
ATOM      9  F   UNL d   1     -45.820  13.872  22.577  0.00  0.00    -0.166 F 
ATOM     10  F   UNL d   1     -46.337  13.349  23.695  0.00  0.00    -0.166 F 
ENDBRANCH   1   7
BRANCH   3  11
ATOM     11  N   UNL d   1     -48.960  15.247  22.653  0.00  0.00    -0.056 NA
ATOM     12  C   UNL d   1     -49.569  15.229  23.202  0.00  0.00     0.787 C 
ATOM     13  N   UNL d   1     -50.000  15.910  23.368  0.00  0.00     0.064 N 
ATOM     14  N   UNL d   1     -49.748  14.523  23.588  0.00  0.00     0.064 N 
ENDBRANCH   3  11
TORSDOF 2
ENDMDL
MODEL 2
REMARK VINA RESULT:      -6.7      2.694      3.340
REMARK  2 active torsions:
REMARK  status: ('A' for Active; 'I' for Inactive)
REMARK    1  A    between atoms: C_3  and  C_1 
REMARK       I    between atoms: C_2  and  N_4 
REMARK    2  A    between atoms: N_4  and  C_7 
ROOT
ATOM      1  C   UNL d   1     -48.426  11.958  22.960  0.00  0.00     0.073 A 
ATOM      2  C   UNL d   1     -48.091  12.714  22.938  0.00  0.00     0.024 A 
ATOM      3  C   UNL d   1     -47.361  12.850  23.296  0.00  0.00     0.100 A 
ATOM      4  C   UNL d   1     -48.032  11.342  23.339  0.00  0.00     0.004 A 
ATOM      5  C   UNL d   1     -47.301  11.479  23.697  0.00  0.00     0.002 A 
ATOM      6  C   UNL d   1     -46.965  12.231  23.677  0.00  0.00     0.020 A 
ENDROOT
BRANCH   1   7
ATOM      7  C   UNL d   1     -49.163  11.820  22.597  0.00  0.00     0.419 C 
ATOM      8  F   UNL d   1     -49.827  11.696  22.271  0.00  0.00    -0.166 F 
ATOM      9  F   UNL d   1     -49.941  11.743  22.963  0.00  0.00    -0.166 F 
ATOM     10  F   UNL d   1     -49.347  11.718  21.764  0.00  0.00    -0.166 F 
ENDBRANCH   1   7
BRANCH   3  11
ATOM     11  N   UNL d   1     -47.021  13.602  23.278  0.00  0.00    -0.056 NA
ATOM     12  C   UNL d   1     -46.401  13.760  22.766  0.00  0.00     0.787 C 
ATOM     13  N   UNL d   1     -46.060  14.509  22.745  0.00  0.00     0.064 N 
ATOM     14  N   UNL d   1     -46.120  13.164  22.271  0.00  0.00     0.064 N 
ENDBRANCH   3  11
TORSDOF 2
ENDMDL
MODEL 3
REMARK VINA RESULT:      -6.7      1.248      1.790
REMARK  2 active torsions:
REMARK  status: ('A' for Active; 'I' for Inactive)
REMARK    1  A    between atoms: C_3  and  C_1 
REMARK       I    between atoms: C_2  and  N_4 
REMARK    2  A    between atoms: N_4  and  C_7 
ROOT
ATOM      1  C   UNL d   1     -47.413  14.208  22.748  0.00  0.00     0.073 A 
ATOM      2  C   UNL d   1     -47.971  13.600  22.801  0.00  0.00     0.024 A 
ATOM      3  C   UNL d   1     -48.770  13.764  22.676  0.00  0.00     0.100 A 
ATOM      4  C   UNL d   1     -47.653  14.975  22.571  0.00  0.00     0.004 A 
ATOM      5  C   UNL d   1     -48.452  15.139  22.446  0.00  0.00     0.002 A 
ATOM      6  C   UNL d   1     -49.010  14.536  22.498  0.00  0.00     0.020 A 
ENDROOT
BRANCH   1   7
ATOM      7  C   UNL d   1     -46.606  14.043  22.874  0.00  0.00     0.419 C 
ATOM      8  F   UNL d   1     -45.880  13.894  22.988  0.00  0.00    -0.166 F 
ATOM      9  F   UNL d   1     -45.996  13.846  22.297  0.00  0.00    -0.166 F 
ATOM     10  F   UNL d   1     -46.166  14.023  23.612  0.00  0.00    -0.166 F 
ENDBRANCH   1   7
BRANCH   3  11
ATOM     11  N   UNL d   1     -49.332  13.162  22.727  0.00  0.00    -0.056 NA
ATOM     12  C   UNL d   1     -49.619  12.809  22.045  0.00  0.00     0.787 C 
ATOM     13  N   UNL d   1     -50.180  12.209  22.092  0.00  0.00     0.064 N 
ATOM     14  N   UNL d   1     -49.342  13.060  21.310  0.00  0.00     0.064 N 
ENDBRANCH   3  11
TORSDOF 2
ENDMDL
MODEL 4
REMARK VINA RESULT:      -6.5      3.216      3.861
REMARK  2 active torsions:
REMARK  status: ('A' for Active; 'I' for Inactive)
REMARK    1  A    between atoms: C_3  and  C_1 
REMARK       I    between atoms: C_2  and  N_4 
REMARK    2  A    between atoms: N_4  and  C_7 
ROOT
ATOM      1  C   UNL d   1     -49.514  12.178  22.270  0.00  0.00     0.073 A 
ATOM      2  C   UNL d   1     -48.785  11.797  22.358  0.00  0.00     0.024 A 
ATOM      3  C   UNL d   1     -48.597  11.429  23.071  0.00  0.00     0.100 A 
ATOM      4  C   UNL d   1     -50.051  12.190  22.895  0.00  0.00     0.004 A 
ATOM      5  C   UNL d   1     -49.863  11.821  23.608  0.00  0.00     0.002 A 
ATOM      6  C   UNL d   1     -49.137  11.441  23.698  0.00  0.00     0.020 A 
ENDROOT
BRANCH   1   7
ATOM      7  C   UNL d   1     -49.705  12.550  21.550  0.00  0.00     0.419 C 
ATOM      8  F   UNL d   1     -49.876  12.884  20.901  0.00  0.00    -0.166 F 
ATOM      9  F   UNL d   1     -49.225  13.084  21.072  0.00  0.00    -0.166 F 
ATOM     10  F   UNL d   1     -50.429  12.501  21.090  0.00  0.00    -0.166 F 
ENDBRANCH   1   7
BRANCH   3  11
ATOM     11  N   UNL d   1     -47.871  11.047  23.165  0.00  0.00    -0.056 NA
ATOM     12  C   UNL d   1     -47.231  11.452  23.478  0.00  0.00     0.787 C 
ATOM     13  N   UNL d   1     -46.506  11.076  23.572  0.00  0.00     0.064 N 
ATOM     14  N   UNL d   1     -47.318  12.243  23.698  0.00  0.00     0.064 N 
ENDBRANCH   3  11
TORSDOF 2
ENDMDL
MODEL 5
REMARK VINA RESULT:      -6.4      2.327      2.862
REMARK  2 active torsions:
REMARK  status: ('A' for Active; 'I' for Inactive)
REMARK    1  A    between atoms: C_3  and  C_1 
REMARK       I    between atoms: C_2  and  N_4 
REMARK    2  A    between atoms: N_4  and  C_7 
ROOT
ATOM      1  C   UNL d   1     -48.658  14.167  22.301  0.00  0.00     0.073 A 
ATOM      2  C   UNL d   1     -48.108  13.658  22.651  0.00  0.00     0.024 A 
ATOM      3  C   UNL d   1     -48.070  12.868  22.415  0.00  0.00     0.100 A 
ATOM      4  C   UNL d   1     -49.167  13.886  21.717  0.00  0.00     0.004 A 
ATOM      5  C   UNL d   1     -49.129  13.096  21.482  0.00  0.00     0.002 A 
ATOM      6  C   UNL d   1     -48.582  12.587  21.829  0.00  0.00     0.020 A 
ENDROOT
BRANCH   1   7
ATOM      7  C   UNL d   1     -48.697  14.964  22.538  0.00  0.00     0.419 C 
ATOM      8  F   UNL d   1     -48.731  15.682  22.753  0.00  0.00    -0.166 F 
ATOM      9  F   UNL d   1     -48.284  15.648  22.212  0.00  0.00    -0.166 F 
ATOM     10  F   UNL d   1     -49.157  15.319  23.172  0.00  0.00    -0.166 F 
ENDBRANCH   1   7
BRANCH   3  11
ATOM     11  N   UNL d   1     -47.523  12.356  22.761  0.00  0.00    -0.056 NA
ATOM     12  C   UNL d   1     -47.761  11.837  23.349  0.00  0.00     0.787 C 
ATOM     13  N   UNL d   1     -47.219  11.325  23.697  0.00  0.00     0.064 N 
ATOM     14  N   UNL d   1     -48.550  11.832  23.592  0.00  0.00     0.064 N 
ENDBRANCH   3  11
TORSDOF 2
ENDMDL
