MODEL 1
REMARK VINA RESULT:       3.5      0.000      0.000
REMARK  1 active torsions:
REMARK  status: ('A' for Active; 'I' for Inactive)
REMARK    1  A    between atoms: C_8  and  CA_5 
ROOT
ATOM      1  N   UNL d   1     -52.547  24.650  33.316  0.00  0.00    -0.224 NA
ATOM      2  C   UNL d   1     -51.913  25.167  33.313  0.00  0.00     0.162 A 
ATOM      3  N   UNL d   1     -52.044  25.975  33.314  0.00  0.00    -0.225 NA
ATOM      4  C   UNL d   1     -51.143  24.869  33.309  0.00  0.00     0.036 A 
ATOM      5  CA  UNL d   1     -52.427  23.837  33.316  0.00  0.00     0.125 A 
ATOM      6  C   UNL d   1     -51.013  24.056  33.309  0.00  0.00     0.005 A 
ATOM      7  C   UNL d   1     -51.658  23.539  33.312  0.00  0.00     0.023 A 
ATOM      8  C   UNL d   1     -51.400  26.492  33.311  0.00  0.00     0.101 A 
ATOM      9  C   UNL d   1     -50.501  25.377  33.306  0.00  0.00     0.005 A 
ATOM     10  C   UNL d   1     -50.630  26.194  33.307  0.00  0.00     0.021 A 
ENDROOT
BRANCH   5  11
ATOM     11  C   UNL d   1     -53.060  23.325  33.319  0.00  0.00     0.253 C 
ATOM     12  O   UNL d   1     -53.475  23.189  34.019  0.00  0.00    -0.281 OA
ENDBRANCH   5  11
TORSDOF 1
ENDMDL
MODEL 2
REMARK VINA RESULT:       4.5      1.344      2.566
REMARK  1 active torsions:
REMARK  status: ('A' for Active; 'I' for Inactive)
REMARK    1  A    between atoms: C_8  and  CA_5 
ROOT
ATOM      1  N   UNL d   1     -52.054  25.367  33.333  0.00  0.00    -0.224 NA
ATOM      2  C   UNL d   1     -52.439  24.645  33.333  0.00  0.00     0.162 A 
ATOM      3  N   UNL d   1     -53.256  24.618  33.343  0.00  0.00    -0.225 NA
ATOM      4  C   UNL d   1     -51.998  23.948  33.323  0.00  0.00     0.036 A 
ATOM      5  CA  UNL d   1     -51.233  25.407  33.323  0.00  0.00     0.125 A 
ATOM      6  C   UNL d   1     -51.175  23.977  33.313  0.00  0.00     0.005 A 
ATOM      7  C   UNL d   1     -50.792  24.709  33.313  0.00  0.00     0.023 A 
ATOM      8  C   UNL d   1     -53.640  23.886  33.342  0.00  0.00     0.101 A 
ATOM      9  C   UNL d   1     -52.373  23.220  33.322  0.00  0.00     0.005 A 
ATOM     10  C   UNL d   1     -53.199  23.189  33.332  0.00  0.00     0.021 A 
ENDROOT
BRANCH   5  11
ATOM     11  C   UNL d   1     -50.853  26.126  33.324  0.00  0.00     0.253 C 
ATOM     12  O   UNL d   1     -51.293  26.824  33.316  0.00  0.00    -0.281 OA
ENDBRANCH   5  11
TORSDOF 1
ENDMDL
