MODEL 1
REMARK VINA RESULT:      33.0      0.000      0.000
REMARK  5 active torsions:
REMARK  status: ('A' for Active; 'I' for Inactive)
REMARK    1  A    between atoms: C_2  and  S_1 
REMARK    2  A    between atoms: N_3  and  S_1 
REMARK    3  A    between atoms: C_11  and  N_3 
REMARK    4  A    between atoms: O_13  and  C_5 
REMARK    5  A    between atoms: C_14  and  C_11 
ROOT
ATOM      1  S   UNL d   1      13.586  12.763  -3.069  0.00  0.00     0.285 S 
ATOM      2  O   UNL d   1      12.837  12.964  -2.791  0.00  0.00    -0.198 OA
ATOM      3  O   UNL d   1      14.334  12.562  -3.349  0.00  0.00    -0.198 OA
ENDROOT
BRANCH   1   4
ATOM      4  C   UNL d   1      13.812  12.546  -2.306  0.00  0.00     0.107 A 
ATOM      5  C   UNL d   1      14.492  12.871  -1.970  0.00  0.00     0.039 A 
ATOM      6  C   UNL d   1      14.717  12.655  -1.206  0.00  0.00     0.122 A 
ATOM      7  C   UNL d   1      14.261  12.113  -0.778  0.00  0.00     0.162 A 
ATOM      8  C   UNL d   1      13.583  11.791  -1.116  0.00  0.00     0.032 A 
ATOM      9  F   UNL d   1      14.489  11.900  -0.017  0.00  0.00    -0.202 F 
ATOM     10  C   UNL d   1      13.356  12.005  -1.877  0.00  0.00     0.015 A 
BRANCH   6  11
ATOM     11  O   UNL d   1      15.397  12.979  -0.871  0.00  0.00    -0.326 OA
ATOM     12  C   UNL d   1      15.335  13.499  -0.231  0.00  0.00     0.181 C 
ENDBRANCH   6  11
ENDBRANCH   1   4
BRANCH   1  13
ATOM     13  N   UNL d   1      13.359  12.980  -3.836  0.00  0.00    -0.157 NA
BRANCH  13  14
ATOM     14  C   UNL d   1      12.945  13.684  -3.959  0.00  0.00     0.112 C 
BRANCH  14  15
ATOM     15  C   UNL d   1      13.276  14.278  -4.425  0.00  0.00     0.020 A 
ATOM     16  C   UNL d   1      13.704  14.891  -4.074  0.00  0.00     0.002 A 
ATOM     17  C   UNL d   1      14.036  15.489  -4.548  0.00  0.00     0.000 A 
ATOM     18  C   UNL d   1      13.938  15.469  -5.367  0.00  0.00     0.000 A 
ATOM     19  C   UNL d   1      13.509  14.857  -5.719  0.00  0.00     0.000 A 
ATOM     20  C   UNL d   1      13.179  14.262  -5.252  0.00  0.00     0.002 A 
ENDBRANCH  14  15
ENDBRANCH  13  14
ENDBRANCH   1  13
TORSDOF 5
ENDMDL
MODEL 2
REMARK VINA RESULT:      34.2      2.308      3.202
REMARK  5 active torsions:
REMARK  status: ('A' for Active; 'I' for Inactive)
REMARK    1  A    between atoms: C_2  and  S_1 
REMARK    2  A    between atoms: N_3  and  S_1 
REMARK    3  A    between atoms: C_11  and  N_3 
REMARK    4  A    between atoms: O_13  and  C_5 
REMARK    5  A    between atoms: C_14  and  C_11 
ROOT
ATOM      1  S   UNL d   1      14.200  14.970  -3.065  0.00  0.00     0.285 S 
ATOM      2  O   UNL d   1      14.952  14.645  -3.165  0.00  0.00    -0.198 OA
ATOM      3  O   UNL d   1      13.449  15.293  -2.967  0.00  0.00    -0.198 OA
ENDROOT
BRANCH   1   4
ATOM      4  C   UNL d   1      14.502  15.496  -2.507  0.00  0.00     0.107 A 
ATOM      5  C   UNL d   1      14.665  15.235  -1.741  0.00  0.00     0.039 A 
ATOM      6  C   UNL d   1      14.967  15.762  -1.183  0.00  0.00     0.122 A 
ATOM      7  C   UNL d   1      15.106  16.550  -1.390  0.00  0.00     0.162 A 
ATOM      8  C   UNL d   1      14.942  16.808  -2.154  0.00  0.00     0.032 A 
ATOM      9  F   UNL d   1      15.407  17.073  -0.830  0.00  0.00    -0.202 F 
ATOM     10  C   UNL d   1      14.641  16.285  -2.713  0.00  0.00     0.015 A 
BRANCH   6  11
ATOM     11  O   UNL d   1      15.131  15.501  -0.418  0.00  0.00    -0.326 OA
ATOM     12  C   UNL d   1      14.933  14.730  -0.192  0.00  0.00     0.181 C 
ENDBRANCH   6  11
ENDBRANCH   1   4
BRANCH   1  13
ATOM     13  N   UNL d   1      13.898  14.440  -3.627  0.00  0.00    -0.157 NA
BRANCH  13  14
ATOM     14  C   UNL d   1      13.263  13.951  -3.431  0.00  0.00     0.112 C 
BRANCH  14  15
ATOM     15  C   UNL d   1      13.166  13.230  -3.820  0.00  0.00     0.020 A 
ATOM     16  C   UNL d   1      13.085  13.210  -4.642  0.00  0.00     0.002 A 
ATOM     17  C   UNL d   1      12.988  12.480  -5.031  0.00  0.00     0.000 A 
ATOM     18  C   UNL d   1      12.972  11.779  -4.596  0.00  0.00     0.000 A 
ATOM     19  C   UNL d   1      13.052  11.799  -3.774  0.00  0.00     0.000 A 
ATOM     20  C   UNL d   1      13.149  12.520  -3.385  0.00  0.00     0.002 A 
ENDBRANCH  14  15
ENDBRANCH  13  14
ENDBRANCH   1  13
TORSDOF 5
ENDMDL
MODEL 3
REMARK VINA RESULT:      35.1      2.361      3.385
REMARK  5 active torsions:
REMARK  status: ('A' for Active; 'I' for Inactive)
REMARK    1  A    between atoms: C_2  and  S_1 
REMARK    2  A    between atoms: N_3  and  S_1 
REMARK    3  A    between atoms: C_11  and  N_3 
REMARK    4  A    between atoms: O_13  and  C_5 
REMARK    5  A    between atoms: C_14  and  C_11 
ROOT
ATOM      1  S   UNL d   1      13.811  14.628  -3.396  0.00  0.00     0.285 S 
ATOM      2  O   UNL d   1      13.253  14.549  -2.794  0.00  0.00    -0.198 OA
ATOM      3  O   UNL d   1      14.369  14.710  -3.996  0.00  0.00    -0.198 OA
ENDROOT
BRANCH   1   4
ATOM      4  C   UNL d   1      13.554  13.919  -3.728  0.00  0.00     0.107 A 
ATOM      5  C   UNL d   1      13.686  13.207  -3.332  0.00  0.00     0.039 A 
ATOM      6  C   UNL d   1      13.428  12.498  -3.664  0.00  0.00     0.122 A 
ATOM      7  C   UNL d   1      13.038  12.499  -4.393  0.00  0.00     0.162 A 
ATOM      8  C   UNL d   1      12.908  13.210  -4.786  0.00  0.00     0.032 A 
ATOM      9  F   UNL d   1      12.783  11.789  -4.722  0.00  0.00    -0.202 F 
ATOM     10  C   UNL d   1      13.164  13.920  -4.458  0.00  0.00     0.015 A 
BRANCH   6  11
ATOM     11  O   UNL d   1      13.560  11.786  -3.268  0.00  0.00    -0.326 OA
ATOM     12  C   UNL d   1      13.750  11.790  -2.463  0.00  0.00     0.181 C 
ENDBRANCH   6  11
ENDBRANCH   1   4
BRANCH   1  13
ATOM     13  N   UNL d   1      14.069  15.341  -3.062  0.00  0.00    -0.157 NA
BRANCH  13  14
ATOM     14  C   UNL d   1      14.746  15.354  -2.589  0.00  0.00     0.112 C 
BRANCH  14  15
ATOM     15  C   UNL d   1      14.887  15.997  -2.092  0.00  0.00     0.020 A 
ATOM     16  C   UNL d   1      14.941  15.886  -1.276  0.00  0.00     0.002 A 
ATOM     17  C   UNL d   1      15.084  16.537  -0.778  0.00  0.00     0.000 A 
ATOM     18  C   UNL d   1      15.171  17.292  -1.099  0.00  0.00     0.000 A 
ATOM     19  C   UNL d   1      15.116  17.404  -1.916  0.00  0.00     0.000 A 
ATOM     20  C   UNL d   1      14.975  16.760  -2.413  0.00  0.00     0.002 A 
ENDBRANCH  14  15
ENDBRANCH  13  14
ENDBRANCH   1  13
TORSDOF 5
ENDMDL
