MODEL 1
REMARK VINA RESULT:      38.4      0.000      0.000
REMARK  5 active torsions:
REMARK  status: ('A' for Active; 'I' for Inactive)
REMARK    1  A    between atoms: N_2  and  S_1 
REMARK    2  A    between atoms: C_3  and  S_1 
REMARK    3  A    between atoms: C_8  and  N_2 
REMARK    4  A    between atoms: C_7  and  C_6 
REMARK    5  A    between atoms: C_16  and  C_8 
ROOT
ATOM      1  C   UNL d   1      14.813  13.401  -0.903  0.00  0.00     0.105 A 
ATOM      2  C   UNL d   1      15.057  15.038  -1.005  0.00  0.00     0.000 A 
ATOM      3  C   UNL d   1      15.438  13.752  -0.495  0.00  0.00     0.013 A 
ATOM      4  C   UNL d   1      14.311  13.866  -1.360  0.00  0.00     0.013 A 
ATOM      5  C   UNL d   1      15.560  14.575  -0.547  0.00  0.00     0.001 A 
ATOM      6  C   UNL d   1      14.433  14.688  -1.412  0.00  0.00     0.001 A 
ENDROOT
BRANCH   1   7
ATOM      7  S   UNL d   1      14.696  12.587  -0.849  0.00  0.00     0.285 S 
ATOM      8  O   UNL d   1      15.018  12.585  -0.095  0.00  0.00    -0.198 OA
ATOM      9  O   UNL d   1      14.581  11.780  -0.793  0.00  0.00    -0.198 OA
BRANCH   7  10
ATOM     10  N   UNL d   1      14.372  12.584  -1.607  0.00  0.00    -0.155 NA
BRANCH  10  11
ATOM     11  C   UNL d   1      13.887  11.957  -1.842  0.00  0.00     0.137 C 
BRANCH  11  12
ATOM     12  C   UNL d   1      13.631  11.907  -2.638  0.00  0.00     0.120 A 
ATOM     13  O   UNL d   1      14.110  11.790  -3.303  0.00  0.00    -0.304 OA
ATOM     14  C   UNL d   1      13.620  11.779  -3.966  0.00  0.00     0.123 A 
ATOM     15  C   UNL d   1      12.849  11.887  -3.716  0.00  0.00     0.029 A 
ATOM     16  C   UNL d   1      12.853  11.967  -2.895  0.00  0.00     0.028 A 
ENDBRANCH  11  12
ENDBRANCH  10  11
ENDBRANCH   7  10
ENDBRANCH   1   7
BRANCH   2  17
ATOM     17  C   UNL d   1      15.181  15.844  -1.052  0.00  0.00     0.000 A 
ATOM     18  C   UNL d   1      14.950  16.254  -1.728  0.00  0.00     0.000 A 
ATOM     19  C   UNL d   1      15.071  17.068  -1.784  0.00  0.00     0.000 A 
ATOM     20  C   UNL d   1      15.430  17.473  -1.149  0.00  0.00     0.000 A 
ATOM     21  C   UNL d   1      15.661  17.064  -0.474  0.00  0.00     0.000 A 
ATOM     22  C   UNL d   1      15.553  18.287  -1.202  0.00  0.00     0.000 C 
ATOM     23  C   UNL d   1      15.538  16.250  -0.422  0.00  0.00     0.000 A 
ENDBRANCH   2  17
TORSDOF 5
ENDMDL
MODEL 2
REMARK VINA RESULT:      40.2      2.264      3.244
REMARK  5 active torsions:
REMARK  status: ('A' for Active; 'I' for Inactive)
REMARK    1  A    between atoms: N_2  and  S_1 
REMARK    2  A    between atoms: C_3  and  S_1 
REMARK    3  A    between atoms: C_8  and  N_2 
REMARK    4  A    between atoms: C_7  and  C_6 
REMARK    5  A    between atoms: C_16  and  C_8 
ROOT
ATOM      1  C   UNL d   1      13.434  13.308  -3.985  0.00  0.00     0.105 A 
ATOM      2  C   UNL d   1      13.975  14.856  -4.233  0.00  0.00     0.000 A 
ATOM      3  C   UNL d   1      12.905  13.940  -3.959  0.00  0.00     0.013 A 
ATOM      4  C   UNL d   1      14.231  13.448  -4.135  0.00  0.00     0.013 A 
ATOM      5  C   UNL d   1      13.177  14.717  -4.083  0.00  0.00     0.001 A 
ATOM      6  C   UNL d   1      14.503  14.226  -4.260  0.00  0.00     0.001 A 
ENDROOT
BRANCH   1   7
ATOM      7  S   UNL d   1      13.160  12.540  -3.862  0.00  0.00     0.285 S 
ATOM      8  O   UNL d   1      12.769  12.558  -4.582  0.00  0.00    -0.198 OA
ATOM      9  O   UNL d   1      12.887  11.779  -3.742  0.00  0.00    -0.198 OA
BRANCH   7  10
ATOM     10  N   UNL d   1      13.551  12.519  -3.136  0.00  0.00    -0.155 NA
BRANCH  10  11
ATOM     11  C   UNL d   1      13.523  11.832  -2.676  0.00  0.00     0.137 C 
BRANCH  11  12
ATOM     12  C   UNL d   1      13.887  11.823  -1.923  0.00  0.00     0.120 A 
ATOM     13  O   UNL d   1      14.699  11.852  -1.768  0.00  0.00    -0.304 OA
ATOM     14  C   UNL d   1      14.799  11.830  -0.949  0.00  0.00     0.123 A 
ATOM     15  C   UNL d   1      14.061  11.787  -0.602  0.00  0.00     0.029 A 
ATOM     16  C   UNL d   1      13.494  11.782  -1.202  0.00  0.00     0.028 A 
ENDBRANCH  11  12
ENDBRANCH  10  11
ENDBRANCH   7  10
ENDBRANCH   1   7
BRANCH   2  17
ATOM     17  C   UNL d   1      14.237  15.620  -4.355  0.00  0.00     0.000 A 
ATOM     18  C   UNL d   1      14.218  15.943  -5.112  0.00  0.00     0.000 A 
ATOM     19  C   UNL d   1      14.481  16.714  -5.244  0.00  0.00     0.000 A 
ATOM     20  C   UNL d   1      14.766  17.163  -4.602  0.00  0.00     0.000 A 
ATOM     21  C   UNL d   1      14.785  16.841  -3.845  0.00  0.00     0.000 A 
ATOM     22  C   UNL d   1      15.029  17.935  -4.730  0.00  0.00     0.000 C 
ATOM     23  C   UNL d   1      14.521  16.070  -3.718  0.00  0.00     0.000 A 
ENDBRANCH   2  17
TORSDOF 5
ENDMDL
