MODEL 1
REMARK VINA RESULT:      -4.3      0.000      0.000
REMARK  3 active torsions:
REMARK  status: ('A' for Active; 'I' for Inactive)
REMARK    1  A    between atoms: C_9  and  C_1 
REMARK    2  A    between atoms: C_4  and  C_9 
REMARK       I    between atoms: N_5  and  C_4 
REMARK    3  A    between atoms: C_10  and  N_8 
ROOT
ATOM      1  C   UNL d   1     -41.248-122.053 -51.854  0.00  0.00     0.265 C 
ATOM      2  N   UNL d   1     -41.403-122.337 -51.094  0.00  0.00    -0.269 N 
ATOM      3  N   UNL d   1     -41.716-122.922 -49.567  0.00  0.00    -0.299 N 
ATOM      4  C   UNL d   1     -41.501-123.160 -50.975  0.00  0.00     0.102 A 
ATOM      5  C   UNL d   1     -41.461-121.824 -50.462  0.00  0.00     0.102 A 
ATOM      6  C   UNL d   1     -41.616-122.117 -49.707  0.00  0.00     0.100 A 
ATOM      7  C   UNL d   1     -41.656-123.452 -50.220  0.00  0.00     0.100 A 
ATOM      8  O   UNL d   1     -41.152-121.243 -51.973  0.00  0.00    -0.267 OA
ENDROOT
BRANCH   1   9
ATOM      9  C   UNL d   1     -41.189-122.575 -52.498  0.00  0.00     0.063 C 
BRANCH   9  10
ATOM     10  C   UNL d   1     -41.525-122.365 -53.225  0.00  0.00     0.024 A 
ATOM     11  C   UNL d   1     -41.955-121.684 -53.367  0.00  0.00     0.080 A 
ATOM     12  N   UNL d   1     -42.188-121.691 -54.162  0.00  0.00    -0.303 N 
ATOM     13  C   UNL d   1     -42.631-121.116 -54.550  0.00  0.00     0.100 C 
ATOM     14  C   UNL d   1     -41.896-122.383 -54.498  0.00  0.00     0.064 A 
ATOM     15  C   UNL d   1     -41.490-122.793 -53.921  0.00  0.00     0.018 A 
ATOM     16  C   UNL d   1     -41.954-122.687 -55.267  0.00  0.00     0.018 A 
ATOM     17  C   UNL d   1     -41.135-123.514 -54.105  0.00  0.00     0.002 A 
ATOM     18  C   UNL d   1     -41.190-123.817 -54.863  0.00  0.00     0.000 A 
ATOM     19  C   UNL d   1     -41.599-123.405 -55.447  0.00  0.00     0.002 A 
ENDBRANCH   9  10
ENDBRANCH   1   9
BRANCH   3  20
ATOM     20  C   UNL d   1     -41.869-123.215 -48.824  0.00  0.00     0.092 A 
ATOM     21  C   UNL d   1     -42.648-123.339 -48.573  0.00  0.00     0.156 A 
ATOM     22  F   UNL d   1     -43.266-123.164 -49.078  0.00  0.00    -0.203 F 
ATOM     23  C   UNL d   1     -42.793-123.638 -47.815  0.00  0.00     0.031 A 
ATOM     24  C   UNL d   1     -42.155-123.811 -47.314  0.00  0.00     0.002 A 
ATOM     25  C   UNL d   1     -41.389-123.688 -47.566  0.00  0.00     0.002 A 
ATOM     26  C   UNL d   1     -41.248-123.389 -48.322  0.00  0.00     0.020 A 
ENDBRANCH   3  20
TORSDOF 3
ENDMDL
MODEL 2
REMARK VINA RESULT:      -4.3      1.324      5.349
REMARK  3 active torsions:
REMARK  status: ('A' for Active; 'I' for Inactive)
REMARK    1  A    between atoms: C_9  and  C_1 
REMARK    2  A    between atoms: C_4  and  C_9 
REMARK       I    between atoms: N_5  and  C_4 
REMARK    3  A    between atoms: C_10  and  N_8 
ROOT
ATOM      1  C   UNL d   1     -41.426-122.798 -50.761  0.00  0.00     0.265 C 
ATOM      2  N   UNL d   1     -41.487-122.696 -51.578  0.00  0.00    -0.269 N 
ATOM      3  N   UNL d   1     -41.614-122.501 -53.227  0.00  0.00    -0.299 N 
ATOM      4  C   UNL d   1     -41.757-123.330 -52.053  0.00  0.00     0.102 A 
ATOM      5  C   UNL d   1     -41.287-121.984 -51.924  0.00  0.00     0.102 A 
ATOM      6  C   UNL d   1     -41.350-121.891 -52.741  0.00  0.00     0.100 A 
ATOM      7  C   UNL d   1     -41.821-123.236 -52.870  0.00  0.00     0.100 A 
ATOM      8  O   UNL d   1     -41.161-122.175 -50.292  0.00  0.00    -0.267 OA
ENDROOT
BRANCH   1   9
ATOM      9  C   UNL d   1     -41.630-123.522 -50.408  0.00  0.00     0.063 C 
BRANCH   9  10
ATOM     10  C   UNL d   1     -41.745-123.559 -49.588  0.00  0.00     0.024 A 
ATOM     11  C   UNL d   1     -41.153-123.509 -49.026  0.00  0.00     0.080 A 
ATOM     12  N   UNL d   1     -41.506-123.570 -48.280  0.00  0.00    -0.303 N 
ATOM     13  C   UNL d   1     -41.123-123.549 -47.551  0.00  0.00     0.100 C 
ATOM     14  C   UNL d   1     -42.316-123.656 -48.395  0.00  0.00     0.064 A 
ATOM     15  C   UNL d   1     -42.458-123.649 -49.199  0.00  0.00     0.018 A 
ATOM     16  C   UNL d   1     -42.942-123.741 -47.859  0.00  0.00     0.018 A 
ATOM     17  C   UNL d   1     -43.231-123.726 -49.478  0.00  0.00     0.002 A 
ATOM     18  C   UNL d   1     -43.851-123.810 -48.951  0.00  0.00     0.000 A 
ATOM     19  C   UNL d   1     -43.709-123.817 -48.139  0.00  0.00     0.002 A 
ENDBRANCH   9  10
ENDBRANCH   1   9
BRANCH   3  20
ATOM     20  C   UNL d   1     -41.678-122.414 -54.033  0.00  0.00     0.092 A 
ATOM     21  C   UNL d   1     -42.240-121.899 -54.357  0.00  0.00     0.156 A 
ATOM     22  F   UNL d   1     -42.731-121.476 -53.859  0.00  0.00    -0.203 F 
ATOM     23  C   UNL d   1     -42.297-121.818 -55.178  0.00  0.00     0.031 A 
ATOM     24  C   UNL d   1     -41.791-122.254 -55.670  0.00  0.00     0.002 A 
ATOM     25  C   UNL d   1     -41.240-122.760 -55.346  0.00  0.00     0.002 A 
ATOM     26  C   UNL d   1     -41.185-122.839 -54.526  0.00  0.00     0.020 A 
ENDBRANCH   3  20
TORSDOF 3
ENDMDL
