MODEL 1
REMARK VINA RESULT:       2.1      0.000      0.000
REMARK  5 active torsions:
REMARK  status: ('A' for Active; 'I' for Inactive)
REMARK    1  A    between atoms: S_3  and  C_10 
REMARK    2  A    between atoms: N_11  and  S_3 
REMARK    3  A    between atoms: C_12  and  C_4 
REMARK    4  A    between atoms: C_22  and  N_11 
REMARK    5  A    between atoms: C_23  and  N_11 
ROOT
ATOM      1  C   UNL d   1     -42.229-122.342 -50.957  0.00  0.00     0.104 A 
ATOM      2  C   UNL d   1     -42.121-121.646 -52.445  0.00  0.00     0.036 A 
ATOM      3  C   UNL d   1     -41.485-122.274 -51.330  0.00  0.00     0.013 A 
ATOM      4  C   UNL d   1     -42.907-122.064 -51.326  0.00  0.00     0.013 A 
ATOM      5  C   UNL d   1     -41.437-121.926 -52.073  0.00  0.00     0.004 A 
ATOM      6  C   UNL d   1     -42.853-121.716 -52.070  0.00  0.00     0.004 A 
ENDROOT
BRANCH   2   7
ATOM      7  C   UNL d   1     -42.071-121.297 -53.191  0.00  0.00     0.171 A 
ATOM      8  N   UNL d   1     -41.893-121.685 -53.901  0.00  0.00    -0.269 N 
ATOM      9  C   UNL d   1     -41.902-121.131 -54.502  0.00  0.00     0.201 A 
ATOM     10  C   UNL d   1     -41.712-122.417 -54.224  0.00  0.00     0.073 A 
ATOM     11  N   UNL d   1     -42.084-120.394 -54.179  0.00  0.00    -0.121 NA
ATOM     12  S   UNL d   1     -41.724-121.512 -55.217  0.00  0.00    -0.047 SA
ATOM     13  N   UNL d   1     -42.189-120.498 -53.363  0.00  0.00    -0.128 NA
ATOM     14  C   UNL d   1     -41.605-122.314 -55.048  0.00  0.00     0.049 A 
ATOM     15  C   UNL d   1     -41.417-122.956 -55.523  0.00  0.00     0.008 A 
ATOM     16  C   UNL d   1     -41.332-123.709 -55.185  0.00  0.00     0.001 A 
ATOM     17  C   UNL d   1     -41.436-123.817 -54.377  0.00  0.00     0.002 A 
ATOM     18  C   UNL d   1     -41.626-123.164 -53.900  0.00  0.00     0.017 A 
ATOM     19  C   UNL d   1     -41.730-123.273 -53.084  0.00  0.00     0.002 C 
ENDBRANCH   2   7
BRANCH   1  20
ATOM     20  S   UNL d   1     -42.284-122.693 -50.205  0.00  0.00     0.271 S 
ATOM     21  O   UNL d   1     -43.050-122.380 -50.115  0.00  0.00    -0.200 OA
ATOM     22  O   UNL d   1     -41.528-123.001 -50.296  0.00  0.00    -0.200 OA
BRANCH  20  23
ATOM     23  N   UNL d   1     -42.343-123.040 -49.458  0.00  0.00    -0.229 N 
BRANCH  23  24
ATOM     24  C   UNL d   1     -42.807-123.727 -49.353  0.00  0.00     0.092 C 
ATOM     25  C   UNL d   1     -43.269-123.812 -48.679  0.00  0.00     0.021 C 
ENDBRANCH  23  24
BRANCH  23  26
ATOM     26  C   UNL d   1     -41.943-122.710 -48.816  0.00  0.00     0.092 C 
ATOM     27  C   UNL d   1     -42.177-122.904 -48.046  0.00  0.00     0.021 C 
ENDBRANCH  23  26
ENDBRANCH  20  23
ENDBRANCH   1  20
TORSDOF 5
ENDMDL
MODEL 2
REMARK VINA RESULT:       2.1      1.554      2.491
REMARK  5 active torsions:
REMARK  status: ('A' for Active; 'I' for Inactive)
REMARK    1  A    between atoms: S_3  and  C_10 
REMARK    2  A    between atoms: N_11  and  S_3 
REMARK    3  A    between atoms: C_12  and  C_4 
REMARK    4  A    between atoms: C_22  and  N_11 
REMARK    5  A    between atoms: C_23  and  N_11 
ROOT
ATOM      1  C   UNL d   1     -41.893-123.138 -49.428  0.00  0.00     0.104 A 
ATOM      2  C   UNL d   1     -41.653-123.148 -51.057  0.00  0.00     0.036 A 
ATOM      3  C   UNL d   1     -41.243-123.553 -49.749  0.00  0.00     0.013 A 
ATOM      4  C   UNL d   1     -42.413-122.736 -49.918  0.00  0.00     0.013 A 
ATOM      5  C   UNL d   1     -41.128-123.555 -50.562  0.00  0.00     0.004 A 
ATOM      6  C   UNL d   1     -42.293-122.741 -50.732  0.00  0.00     0.004 A 
ENDROOT
BRANCH   2   7
ATOM      7  C   UNL d   1     -41.536-123.151 -51.873  0.00  0.00     0.171 A 
ATOM      8  N   UNL d   1     -41.412-122.485 -52.351  0.00  0.00    -0.269 N 
ATOM      9  C   UNL d   1     -41.322-122.740 -53.123  0.00  0.00     0.201 A 
ATOM     10  C   UNL d   1     -41.346-121.668 -52.337  0.00  0.00     0.073 A 
ATOM     11  N   UNL d   1     -41.388-123.562 -53.139  0.00  0.00    -0.121 NA
ATOM     12  S   UNL d   1     -41.198-122.079 -53.608  0.00  0.00    -0.047 SA
ATOM     13  N   UNL d   1     -41.521-123.817 -52.360  0.00  0.00    -0.128 NA
ATOM     14  C   UNL d   1     -41.212-121.408 -53.122  0.00  0.00     0.049 A 
ATOM     15  C   UNL d   1     -41.123-120.609 -53.283  0.00  0.00     0.008 A 
ATOM     16  C   UNL d   1     -41.166-120.056 -52.666  0.00  0.00     0.001 A 
ATOM     17  C   UNL d   1     -41.297-120.304 -51.892  0.00  0.00     0.002 A 
ATOM     18  C   UNL d   1     -41.387-121.115 -51.735  0.00  0.00     0.017 A 
ATOM     19  C   UNL d   1     -41.520-121.365 -50.955  0.00  0.00     0.002 C 
ENDBRANCH   2   7
BRANCH   1  20
ATOM     20  S   UNL d   1     -42.015-123.133 -48.605  0.00  0.00     0.271 S 
ATOM     21  O   UNL d   1     -41.324-123.584 -48.500  0.00  0.00    -0.200 OA
ATOM     22  O   UNL d   1     -42.697-122.688 -48.712  0.00  0.00    -0.200 OA
BRANCH  20  23
ATOM     23  N   UNL d   1     -42.132-123.130 -47.788  0.00  0.00    -0.229 N 
BRANCH  23  24
ATOM     24  C   UNL d   1     -42.859-123.396 -47.470  0.00  0.00     0.092 C 
ATOM     25  C   UNL d   1     -42.877-123.759 -46.733  0.00  0.00     0.021 C 
ENDBRANCH  23  24
BRANCH  23  26
ATOM     26  C   UNL d   1     -41.534-122.866 -47.285  0.00  0.00     0.092 C 
ATOM     27  C   UNL d   1     -41.694-122.259 -46.744  0.00  0.00     0.021 C 
ENDBRANCH  23  26
ENDBRANCH  20  23
ENDBRANCH   1  20
TORSDOF 5
ENDMDL
MODEL 3
REMARK VINA RESULT:       2.5      1.515      4.898
REMARK  5 active torsions:
REMARK  status: ('A' for Active; 'I' for Inactive)
REMARK    1  A    between atoms: S_3  and  C_10 
REMARK    2  A    between atoms: N_11  and  S_3 
REMARK    3  A    between atoms: C_12  and  C_4 
REMARK    4  A    between atoms: C_22  and  N_11 
REMARK    5  A    between atoms: C_23  and  N_11 
ROOT
ATOM      1  C   UNL d   1     -41.745-122.650 -53.007  0.00  0.00     0.104 A 
ATOM      2  C   UNL d   1     -41.710-123.063 -51.413  0.00  0.00     0.036 A 
ATOM      3  C   UNL d   1     -41.274-122.211 -52.475  0.00  0.00     0.013 A 
ATOM      4  C   UNL d   1     -42.190-123.285 -52.742  0.00  0.00     0.013 A 
ATOM      5  C   UNL d   1     -41.260-122.422 -51.681  0.00  0.00     0.004 A 
ATOM      6  C   UNL d   1     -42.173-123.492 -51.945  0.00  0.00     0.004 A 
ENDROOT
BRANCH   2   7
ATOM      7  C   UNL d   1     -41.695-123.273 -50.616  0.00  0.00     0.171 A 
ATOM      8  N   UNL d   1     -42.250-123.051 -50.042  0.00  0.00    -0.269 N 
ATOM      9  C   UNL d   1     -42.022-123.381 -49.329  0.00  0.00     0.201 A 
ATOM     10  C   UNL d   1     -42.940-122.625 -49.924  0.00  0.00     0.073 A 
ATOM     11  N   UNL d   1     -41.328-123.810 -49.446  0.00  0.00    -0.121 NA
ATOM     12  S   UNL d   1     -42.573-123.162 -48.748  0.00  0.00    -0.047 SA
ATOM     13  N   UNL d   1     -41.125-123.743 -50.248  0.00  0.00    -0.128 NA
ATOM     14  C   UNL d   1     -43.147-122.691 -49.115  0.00  0.00     0.049 A 
ATOM     15  C   UNL d   1     -43.820-122.318 -48.829  0.00  0.00     0.008 A 
ATOM     16  C   UNL d   1     -44.296-121.875 -49.343  0.00  0.00     0.001 A 
ATOM     17  C   UNL d   1     -44.098-121.805 -50.139  0.00  0.00     0.002 A 
ATOM     18  C   UNL d   1     -43.416-122.185 -50.423  0.00  0.00     0.017 A 
ATOM     19  C   UNL d   1     -43.218-122.114 -51.226  0.00  0.00     0.002 C 
ENDBRANCH   2   7
BRANCH   1  20
ATOM     20  S   UNL d   1     -41.762-122.441 -53.812  0.00  0.00     0.271 S 
ATOM     21  O   UNL d   1     -42.255-123.093 -53.970  0.00  0.00    -0.200 OA
ATOM     22  O   UNL d   1     -41.277-121.798 -53.653  0.00  0.00    -0.200 OA
BRANCH  20  23
ATOM     23  N   UNL d   1     -41.782-122.237 -54.611  0.00  0.00    -0.229 N 
BRANCH  23  24
ATOM     24  C   UNL d   1     -41.168-122.485 -55.121  0.00  0.00     0.092 C 
ATOM     25  C   UNL d   1     -41.218-122.339 -55.928  0.00  0.00     0.021 C 
ENDBRANCH  23  24
BRANCH  23  26
ATOM     26  C   UNL d   1     -42.409-121.789 -54.909  0.00  0.00     0.092 C 
ATOM     27  C   UNL d   1     -42.793-122.033 -55.601  0.00  0.00     0.021 C 
ENDBRANCH  23  26
ENDBRANCH  20  23
ENDBRANCH   1  20
TORSDOF 5
ENDMDL
MODEL 4
REMARK VINA RESULT:       3.8      1.594      4.639
REMARK  5 active torsions:
REMARK  status: ('A' for Active; 'I' for Inactive)
REMARK    1  A    between atoms: S_3  and  C_10 
REMARK    2  A    between atoms: N_11  and  S_3 
REMARK    3  A    between atoms: C_12  and  C_4 
REMARK    4  A    between atoms: C_22  and  N_11 
REMARK    5  A    between atoms: C_23  and  N_11 
ROOT
ATOM      1  C   UNL d   1     -41.878-122.172 -53.323  0.00  0.00     0.104 A 
ATOM      2  C   UNL d   1     -41.682-121.822 -51.727  0.00  0.00     0.036 A 
ATOM      3  C   UNL d   1     -41.224-122.483 -52.909  0.00  0.00     0.013 A 
ATOM      4  C   UNL d   1     -42.424-121.693 -52.942  0.00  0.00     0.013 A 
ATOM      5  C   UNL d   1     -41.131-122.305 -52.112  0.00  0.00     0.004 A 
ATOM      6  C   UNL d   1     -42.326-121.518 -52.144  0.00  0.00     0.004 A 
ENDROOT
BRANCH   2   7
ATOM      7  C   UNL d   1     -41.586-121.644 -50.927  0.00  0.00     0.171 A 
ATOM      8  N   UNL d   1     -41.938-122.044 -50.292  0.00  0.00    -0.269 N 
ATOM      9  C   UNL d   1     -41.694-121.685 -49.600  0.00  0.00     0.201 A 
ATOM     10  C   UNL d   1     -42.439-122.665 -50.102  0.00  0.00     0.073 A 
ATOM     11  N   UNL d   1     -41.189-121.060 -49.789  0.00  0.00    -0.121 NA
ATOM     12  S   UNL d   1     -42.042-122.081 -48.959  0.00  0.00    -0.047 SA
ATOM     13  N   UNL d   1     -41.123-121.035 -50.616  0.00  0.00    -0.128 NA
ATOM     14  C   UNL d   1     -42.508-122.692 -49.268  0.00  0.00     0.049 A 
ATOM     15  C   UNL d   1     -42.978-123.261 -48.910  0.00  0.00     0.008 A 
ATOM     16  C   UNL d   1     -43.386-123.812 -49.378  0.00  0.00     0.001 A 
ATOM     17  C   UNL d   1     -43.324-123.791 -50.198  0.00  0.00     0.002 A 
ATOM     18  C   UNL d   1     -42.846-123.212 -50.554  0.00  0.00     0.017 A 
ATOM     19  C   UNL d   1     -42.783-123.191 -51.381  0.00  0.00     0.002 C 
ENDBRANCH   2   7
BRANCH   1  20
ATOM     20  S   UNL d   1     -41.978-122.348 -54.130  0.00  0.00     0.271 S 
ATOM     21  O   UNL d   1     -41.713-123.125 -53.993  0.00  0.00    -0.200 OA
ATOM     22  O   UNL d   1     -42.240-121.581 -54.263  0.00  0.00    -0.200 OA
BRANCH  20  23
ATOM     23  N   UNL d   1     -42.076-122.527 -54.930  0.00  0.00    -0.229 N 
BRANCH  23  24
ATOM     24  C   UNL d   1     -41.993-121.927 -55.505  0.00  0.00     0.092 C 
ATOM     25  C   UNL d   1     -42.257-122.052 -56.273  0.00  0.00     0.021 C 
ENDBRANCH  23  24
BRANCH  23  26
ATOM     26  C   UNL d   1     -42.256-123.298 -55.162  0.00  0.00     0.092 C 
ATOM     27  C   UNL d   1     -42.993-123.461 -55.504  0.00  0.00     0.021 C 
ENDBRANCH  23  26
ENDBRANCH  20  23
ENDBRANCH   1  20
TORSDOF 5
ENDMDL
