MODEL 1
REMARK VINA RESULT:      54.1      0.000      0.000
REMARK  3 active torsions:
REMARK  status: ('A' for Active; 'I' for Inactive)
REMARK    1  A    between atoms: N_2  and  S_1 
REMARK    2  A    between atoms: C_5  and  S_1 
REMARK    3  A    between atoms: C_4  and  N_3 
ROOT
ATOM      1  N   UNL d   1     -55.156-101.746 -41.296  0.00  0.00    -0.226 N 
ATOM      2  N   UNL d   1     -54.979-101.293 -42.873  0.00  0.00    -0.301 N 
ATOM      3  C   UNL d   1     -54.803-101.029 -41.483  0.00  0.00     0.111 A 
ATOM      4  C   UNL d   1     -55.426-102.248 -41.903  0.00  0.00     0.111 A 
ATOM      5  C   UNL d   1     -54.715-100.802 -42.272  0.00  0.00     0.100 A 
ATOM      6  C   UNL d   1     -55.338-102.022 -42.691  0.00  0.00     0.100 A 
ENDROOT
BRANCH   1   7
ATOM      7  S   UNL d   1     -55.244-101.972 -40.508  0.00  0.00     0.271 S 
ATOM      8  O   UNL d   1     -55.484-102.722 -40.750  0.00  0.00    -0.200 OA
ATOM      9  O   UNL d   1     -55.004-101.220 -40.265  0.00  0.00    -0.200 OA
BRANCH   7  10
ATOM     10  C   UNL d   1     -55.333-102.198 -39.720  0.00  0.00     0.104 A 
ATOM     11  C   UNL d   1     -56.029-102.551 -39.468  0.00  0.00     0.015 A 
ATOM     12  C   UNL d   1     -56.117-102.777 -38.680  0.00  0.00     0.030 A 
ATOM     13  C   UNL d   1     -55.509-102.650 -38.145  0.00  0.00     0.140 A 
ATOM     14  C   UNL d   1     -54.800-102.292 -38.394  0.00  0.00     0.030 A 
ATOM     15  F   UNL d   1     -55.598-102.876 -37.356  0.00  0.00    -0.204 F 
ATOM     16  C   UNL d   1     -54.712-102.066 -39.181  0.00  0.00     0.015 A 
ENDBRANCH   7  10
ENDBRANCH   1   7
BRANCH   2  17
ATOM     17  C   UNL d   1     -54.891-101.068 -43.658  0.00  0.00     0.064 A 
ATOM     18  C   UNL d   1     -54.802-100.276 -43.853  0.00  0.00     0.016 A 
ATOM     19  C   UNL d   1     -54.713-100.050 -44.641  0.00  0.00     0.001 A 
ATOM     20  C   UNL d   1     -54.800 -99.703 -43.256  0.00  0.00     0.002 C 
ATOM     21  C   UNL d   1     -54.715-100.616 -45.233  0.00  0.00     0.000 A 
ATOM     22  C   UNL d   1     -54.805-101.421 -45.045  0.00  0.00     0.001 A 
ATOM     23  C   UNL d   1     -54.893-101.647 -44.256  0.00  0.00     0.016 A 
ATOM     24  C   UNL d   1     -54.983-102.440 -44.062  0.00  0.00     0.002 C 
ENDBRANCH   2  17
TORSDOF 3
ENDMDL
