MODEL 1
REMARK VINA RESULT:      -8.6      0.000      0.000
REMARK  5 active torsions:
REMARK  status: ('A' for Active; 'I' for Inactive)
REMARK    1  A    between atoms: C_3  and  C_1 
REMARK    2  A    between atoms: S_2  and  C_3 
REMARK    3  A    between atoms: C_8  and  S_2 
REMARK    4  A    between atoms: C_9  and  C_3 
REMARK    5  A    between atoms: N_7  and  C_4 
ROOT
ATOM      1  C   UNL d   1      52.913  32.877  53.397  0.00  0.00     0.128 A 
ATOM      2  C   UNL d   1      52.961  33.399  54.034  0.00  0.00     0.166 A 
ATOM      3  N   UNL d   1      52.298  32.941  52.857  0.00  0.00    -0.240 NA
ATOM      4  N   UNL d   1      52.386  33.989  54.129  0.00  0.00    -0.225 NA
ATOM      5  C   UNL d   1      51.732  33.525  52.954  0.00  0.00     0.099 A 
ATOM      6  C   UNL d   1      51.776  34.047  53.587  0.00  0.00     0.101 A 
ATOM      7  C   UNL d   1      51.199  34.635  53.678  0.00  0.00     0.021 A 
ATOM      8  C   UNL d   1      51.114  33.587  52.411  0.00  0.00     0.021 A 
ATOM      9  C   UNL d   1      50.588  34.692  53.135  0.00  0.00     0.002 A 
ATOM     10  C   UNL d   1      50.546  34.170  52.503  0.00  0.00     0.002 A 
ENDROOT
BRANCH   1  11
ATOM     11  C   UNL d   1      53.482  32.291  53.301  0.00  0.00     0.129 C 
BRANCH  11  12
ATOM     12  S   UNL d   1      53.211  31.495  53.004  0.00  0.00     0.213 S 
ATOM     13  O   UNL d   1      53.194  31.374  52.121  0.00  0.00    -0.217 OA
ATOM     14  O   UNL d   1      53.388  31.943  52.328  0.00  0.00    -0.217 OA
BRANCH  12  15
ATOM     15  C   UNL d   1      52.957  30.799  53.383  0.00  0.00     0.088 A 
ATOM     16  C   UNL d   1      53.506  30.299  53.739  0.00  0.00     0.011 A 
ATOM     17  C   UNL d   1      53.256  29.605  54.118  0.00  0.00     0.001 A 
ATOM     18  C   UNL d   1      53.801  29.111  54.470  0.00  0.00     0.000 C 
ATOM     19  C   UNL d   1      52.448  29.420  54.135  0.00  0.00     0.000 A 
ATOM     20  C   UNL d   1      51.894  29.930  53.773  0.00  0.00     0.001 A 
ATOM     21  C   UNL d   1      52.153  30.616  53.400  0.00  0.00     0.011 A 
ENDBRANCH  12  15
ENDBRANCH  11  12
BRANCH  11  22
ATOM     22  C   UNL d   1      54.332  32.313  53.444  0.00  0.00     0.135 C 
ATOM     23  N   UNL d   1      54.988  32.346  52.847  0.00  0.00    -0.146 N 
ENDBRANCH  11  22
ENDBRANCH   1  11
BRANCH   2  24
ATOM     24  N   UNL d   1      53.588  33.327  54.576  0.00  0.00    -0.288 N 
ATOM     25  C   UNL d   1      54.322  33.724  54.519  0.00  0.00     0.082 A 
ATOM     26  C   UNL d   1      54.786  33.492  55.177  0.00  0.00     0.021 A 
ATOM     27  C   UNL d   1      54.335  32.957  55.632  0.00  0.00     0.021 A 
ATOM     28  C   UNL d   1      53.593  32.856  55.256  0.00  0.00     0.082 A 
ENDBRANCH   2  24
TORSDOF 5
ENDMDL
MODEL 2
REMARK VINA RESULT:      -7.5      0.978      3.355
REMARK  5 active torsions:
REMARK  status: ('A' for Active; 'I' for Inactive)
REMARK    1  A    between atoms: C_3  and  C_1 
REMARK    2  A    between atoms: S_2  and  C_3 
REMARK    3  A    between atoms: C_8  and  S_2 
REMARK    4  A    between atoms: C_9  and  C_3 
REMARK    5  A    between atoms: N_7  and  C_4 
ROOT
ATOM      1  C   UNL d   1      53.537  32.086  53.622  0.00  0.00     0.128 A 
ATOM      2  C   UNL d   1      53.802  31.968  54.394  0.00  0.00     0.166 A 
ATOM      3  N   UNL d   1      53.219  31.459  53.195  0.00  0.00    -0.240 NA
ATOM      4  N   UNL d   1      53.747  31.216  54.740  0.00  0.00    -0.225 NA
ATOM      5  C   UNL d   1      53.167  30.719  53.540  0.00  0.00     0.099 A 
ATOM      6  C   UNL d   1      53.429  30.597  54.309  0.00  0.00     0.101 A 
ATOM      7  C   UNL d   1      53.373  29.845  54.651  0.00  0.00     0.021 A 
ATOM      8  C   UNL d   1      52.847  30.092  53.110  0.00  0.00     0.021 A 
ATOM      9  C   UNL d   1      53.055  29.225  54.219  0.00  0.00     0.002 A 
ATOM     10  C   UNL d   1      52.792  29.348  53.451  0.00  0.00     0.002 A 
ENDROOT
BRANCH   1  11
ATOM     11  C   UNL d   1      53.590  32.830  53.277  0.00  0.00     0.129 C 
BRANCH  11  12
ATOM     12  S   UNL d   1      52.884  33.127  52.819  0.00  0.00     0.213 S 
ATOM     13  O   UNL d   1      52.819  32.882  51.965  0.00  0.00    -0.217 OA
ATOM     14  O   UNL d   1      53.325  32.668  52.287  0.00  0.00    -0.217 OA
BRANCH  12  15
ATOM     15  C   UNL d   1      52.234  33.607  53.019  0.00  0.00     0.088 A 
ATOM     16  C   UNL d   1      51.491  33.270  53.130  0.00  0.00     0.011 A 
ATOM     17  C   UNL d   1      50.841  33.745  53.330  0.00  0.00     0.001 A 
ATOM     18  C   UNL d   1      50.107  33.409  53.439  0.00  0.00     0.000 C 
ATOM     19  C   UNL d   1      50.947  34.563  53.416  0.00  0.00     0.000 A 
ATOM     20  C   UNL d   1      51.703  34.901  53.303  0.00  0.00     0.001 A 
ATOM     21  C   UNL d   1      52.340  34.421  53.105  0.00  0.00     0.011 A 
ENDBRANCH  12  15
ENDBRANCH  11  12
BRANCH  11  22
ATOM     22  C   UNL d   1      54.238  33.399  53.280  0.00  0.00     0.135 C 
ATOM     23  N   UNL d   1      54.844  33.544  52.648  0.00  0.00    -0.146 N 
ENDBRANCH  11  22
ENDBRANCH   1  11
BRANCH   2  24
ATOM     24  N   UNL d   1      54.122  32.608  54.819  0.00  0.00    -0.288 N 
ATOM     25  C   UNL d   1      53.724  33.038  55.415  0.00  0.00     0.082 A 
ATOM     26  C   UNL d   1      54.248  33.629  55.693  0.00  0.00     0.021 A 
ATOM     27  C   UNL d   1      54.963  33.558  55.267  0.00  0.00     0.021 A 
ATOM     28  C   UNL d   1      54.881  32.924  54.726  0.00  0.00     0.082 A 
ENDBRANCH   2  24
TORSDOF 5
ENDMDL
MODEL 3
REMARK VINA RESULT:      -6.4      1.234      3.709
REMARK  5 active torsions:
REMARK  status: ('A' for Active; 'I' for Inactive)
REMARK    1  A    between atoms: C_3  and  C_1 
REMARK    2  A    between atoms: S_2  and  C_3 
REMARK    3  A    between atoms: C_8  and  S_2 
REMARK    4  A    between atoms: C_9  and  C_3 
REMARK    5  A    between atoms: N_7  and  C_4 
ROOT
ATOM      1  C   UNL d   1      52.633  32.697  53.046  0.00  0.00     0.128 A 
ATOM      2  C   UNL d   1      51.839  32.477  53.087  0.00  0.00     0.166 A 
ATOM      3  N   UNL d   1      53.221  32.125  53.078  0.00  0.00    -0.240 NA
ATOM      4  N   UNL d   1      51.636  31.676  53.160  0.00  0.00    -0.225 NA
ATOM      5  C   UNL d   1      53.017  31.336  53.150  0.00  0.00     0.099 A 
ATOM      6  C   UNL d   1      52.227  31.112  53.191  0.00  0.00     0.101 A 
ATOM      7  C   UNL d   1      52.028  30.311  53.264  0.00  0.00     0.021 A 
ATOM      8  C   UNL d   1      53.609  30.763  53.182  0.00  0.00     0.021 A 
ATOM      9  C   UNL d   1      52.621  29.746  53.295  0.00  0.00     0.002 A 
ATOM     10  C   UNL d   1      53.409  29.971  53.254  0.00  0.00     0.002 A 
ENDROOT
BRANCH   1  11
ATOM     11  C   UNL d   1      52.837  33.490  52.974  0.00  0.00     0.129 C 
BRANCH  11  12
ATOM     12  S   UNL d   1      53.557  33.776  53.417  0.00  0.00     0.213 S 
ATOM     13  O   UNL d   1      54.323  33.819  52.965  0.00  0.00    -0.217 OA
ATOM     14  O   UNL d   1      53.813  33.615  52.644  0.00  0.00    -0.217 OA
BRANCH  12  15
ATOM     15  C   UNL d   1      53.684  34.024  54.201  0.00  0.00     0.088 A 
ATOM     16  C   UNL d   1      54.169  33.583  54.700  0.00  0.00     0.011 A 
ATOM     17  C   UNL d   1      54.297  33.828  55.482  0.00  0.00     0.001 A 
ATOM     18  C   UNL d   1      54.778  33.391  55.974  0.00  0.00     0.000 C 
ATOM     19  C   UNL d   1      53.934  34.521  55.756  0.00  0.00     0.000 A 
ATOM     20  C   UNL d   1      53.443  34.965  55.247  0.00  0.00     0.001 A 
ATOM     21  C   UNL d   1      53.321  34.714  54.473  0.00  0.00     0.011 A 
ENDBRANCH  12  15
ENDBRANCH  11  12
BRANCH  11  22
ATOM     22  C   UNL d   1      52.460  34.122  52.524  0.00  0.00     0.135 C 
ATOM     23  N   UNL d   1      52.806  34.612  51.871  0.00  0.00    -0.146 N 
ENDBRANCH  11  22
ENDBRANCH   1  11
BRANCH   2  24
ATOM     24  N   UNL d   1      51.249  33.063  53.054  0.00  0.00    -0.288 N 
ATOM     25  C   UNL d   1      50.861  33.393  53.717  0.00  0.00     0.082 A 
ATOM     26  C   UNL d   1      50.312  33.959  53.432  0.00  0.00     0.021 A 
ATOM     27  C   UNL d   1      50.367  33.971  52.599  0.00  0.00     0.021 A 
ATOM     28  C   UNL d   1      50.949  33.414  52.368  0.00  0.00     0.082 A 
ENDBRANCH   2  24
TORSDOF 5
ENDMDL
