MODEL 1
REMARK VINA RESULT:       9.4      0.000      0.000
REMARK  3 active torsions:
REMARK  status: ('A' for Active; 'I' for Inactive)
REMARK    1  A    between atoms: S_9  and  C_2 
REMARK    2  A    between atoms: C_8  and  C_3 
REMARK    3  A    between atoms: C_10  and  S_9 
ROOT
ATOM      1  N   UNL d   1      46.646 -18.386  43.180  0.00  0.00    -0.195 NA
ATOM      2  C   UNL d   1      46.207 -17.778  43.521  0.00  0.00     0.086 C 
ATOM      3  C   UNL d   1      45.763 -17.173  43.858  0.00  0.00     0.169 C 
ENDROOT
BRANCH   3   4
ATOM      4  S   UNL d   1      46.133 -16.620  44.332  0.00  0.00    -0.072 SA
BRANCH   4   5
ATOM      5  C   UNL d   1      45.774 -15.899  44.492  0.00  0.00     0.137 A 
ATOM      6  N   UNL d   1      46.032 -15.151  44.246  0.00  0.00    -0.232 NA
ATOM      7  C   UNL d   1      45.508 -14.594  44.532  0.00  0.00     0.089 A 
ATOM      8  C   UNL d   1      44.925 -14.984  44.954  0.00  0.00     0.057 A 
ATOM      9  S   UNL d   1      45.085 -15.788  44.933  0.00  0.00    -0.060 SA
BRANCH   7  10
ATOM     10  C   UNL d   1      45.556 -13.778  44.416  0.00  0.00     0.018 A 
ATOM     11  C   UNL d   1      46.022 -13.332  44.926  0.00  0.00     0.002 A 
ATOM     12  C   UNL d   1      46.071 -12.516  44.811  0.00  0.00     0.000 A 
ATOM     13  C   UNL d   1      45.657 -12.153  44.193  0.00  0.00     0.000 A 
ATOM     14  C   UNL d   1      45.191 -12.619  43.688  0.00  0.00     0.000 A 
ATOM     15  C   UNL d   1      45.145 -13.435  43.807  0.00  0.00     0.002 A 
ENDBRANCH   7  10
ENDBRANCH   4   5
ENDBRANCH   3   4
TORSDOF 3
ENDMDL
