MODEL 1
REMARK VINA RESULT:      -6.5      0.000      0.000
REMARK  5 active torsions:
REMARK  status: ('A' for Active; 'I' for Inactive)
REMARK    1  A    between atoms: C_3  and  S_1 
REMARK    2  A    between atoms: N_5  and  S_1 
REMARK    3  A    between atoms: C_2  and  C_8 
REMARK       I    between atoms: N_4  and  C_2 
REMARK    4  A    between atoms: C_9  and  N_4 
REMARK    5  A    between atoms: O_17  and  C_16 
ROOT
ATOM      1  C   UNL d   1     -48.884  14.513  22.861  0.00  0.00     0.104 A 
ATOM      2  C   UNL d   1     -47.332  13.877  22.841  0.00  0.00     0.058 A 
ATOM      3  C   UNL d   1     -48.256  14.965  22.678  0.00  0.00     0.013 A 
ATOM      4  C   UNL d   1     -48.750  13.734  23.037  0.00  0.00     0.013 A 
ATOM      5  C   UNL d   1     -48.000  13.391  23.036  0.00  0.00     0.005 A 
ATOM      6  C   UNL d   1     -47.487  14.653  22.668  0.00  0.00     0.005 A 
ENDROOT
BRANCH   2   7
ATOM      7  C   UNL d   1     -46.545  13.558  22.830  0.00  0.00     0.279 C 
ATOM      8  N   UNL d   1     -46.339  12.963  22.367  0.00  0.00    -0.208 NA
ATOM      9  O   UNL d   1     -45.981  13.922  23.355  0.00  0.00    -0.265 OA
BRANCH   8  10
ATOM     10  C   UNL d   1     -45.566  12.672  22.377  0.00  0.00     0.087 A 
ATOM     11  C   UNL d   1     -45.389  12.036  22.843  0.00  0.00     0.043 A 
ATOM     12  C   UNL d   1     -44.616  11.747  22.853  0.00  0.00     0.096 A 
ATOM     13  C   UNL d   1     -44.022  12.093  22.397  0.00  0.00     0.024 A 
ATOM     14  C   UNL d   1     -44.217  12.751  21.918  0.00  0.00     0.004 A 
ATOM     15  C   UNL d   1     -44.991  13.037  21.912  0.00  0.00     0.019 A 
BRANCH  12  16
ATOM     16  O   UNL d   1     -44.478  11.247  23.219  0.00  0.00    -0.328 OA
ATOM     17  C   UNL d   1     -43.837  10.740  23.204  0.00  0.00     0.181 C 
ENDBRANCH  12  16
ENDBRANCH   8  10
ENDBRANCH   2   7
BRANCH   1  18
ATOM     18  S   UNL d   1     -49.732  14.781  22.891  0.00  0.00     0.271 S 
ATOM     19  O   UNL d   1     -49.649  15.189  23.624  0.00  0.00    -0.200 OA
ATOM     20  O   UNL d   1     -49.805  14.389  22.190  0.00  0.00    -0.200 OA
BRANCH  18  21
ATOM     21  N   UNL d   1     -50.579  15.012  22.858  0.00  0.00    -0.226 N 
ATOM     22  C   UNL d   1     -50.893  15.523  23.441  0.00  0.00     0.111 C 
ATOM     23  C   UNL d   1     -51.064  14.725  22.254  0.00  0.00     0.111 C 
ENDBRANCH  18  21
ENDBRANCH   1  18
TORSDOF 5
ENDMDL
MODEL 2
REMARK VINA RESULT:      -6.1      1.585      5.258
REMARK  5 active torsions:
REMARK  status: ('A' for Active; 'I' for Inactive)
REMARK    1  A    between atoms: C_3  and  S_1 
REMARK    2  A    between atoms: N_5  and  S_1 
REMARK    3  A    between atoms: C_2  and  C_8 
REMARK       I    between atoms: N_4  and  C_2 
REMARK    4  A    between atoms: C_9  and  N_4 
REMARK    5  A    between atoms: O_17  and  C_16 
ROOT
ATOM      1  C   UNL d   1     -45.732  13.191  22.457  0.00  0.00     0.104 A 
ATOM      2  C   UNL d   1     -47.286  13.745  22.761  0.00  0.00     0.058 A 
ATOM      3  C   UNL d   1     -45.859  13.897  22.798  0.00  0.00     0.013 A 
ATOM      4  C   UNL d   1     -46.380  12.746  22.260  0.00  0.00     0.013 A 
ATOM      5  C   UNL d   1     -47.156  12.989  22.396  0.00  0.00     0.005 A 
ATOM      6  C   UNL d   1     -46.626  14.174  22.950  0.00  0.00     0.005 A 
ENDROOT
BRANCH   2   7
ATOM      7  C   UNL d   1     -48.072  14.028  22.916  0.00  0.00     0.279 C 
ATOM      8  N   UNL d   1     -48.412  14.584  22.484  0.00  0.00    -0.208 NA
ATOM      9  O   UNL d   1     -48.479  13.674  23.575  0.00  0.00    -0.265 OA
BRANCH   8  10
ATOM     10  C   UNL d   1     -49.177  14.840  22.658  0.00  0.00     0.087 A 
ATOM     11  C   UNL d   1     -49.800  14.539  22.240  0.00  0.00     0.043 A 
ATOM     12  C   UNL d   1     -50.564  14.795  22.414  0.00  0.00     0.096 A 
ATOM     13  C   UNL d   1     -50.706  15.352  23.007  0.00  0.00     0.024 A 
ATOM     14  C   UNL d   1     -50.053  15.657  23.433  0.00  0.00     0.004 A 
ATOM     15  C   UNL d   1     -49.291  15.397  23.255  0.00  0.00     0.019 A 
BRANCH  12  16
ATOM     16  O   UNL d   1     -51.053  14.558  22.085  0.00  0.00    -0.328 OA
ATOM     17  C   UNL d   1     -51.064  14.126  21.391  0.00  0.00     0.181 C 
ENDBRANCH  12  16
ENDBRANCH   8  10
ENDBRANCH   2   7
BRANCH   1  18
ATOM     18  S   UNL d   1     -44.940  12.834  22.266  0.00  0.00     0.271 S 
ATOM     19  O   UNL d   1     -45.045  12.163  22.765  0.00  0.00    -0.200 OA
ATOM     20  O   UNL d   1     -44.846  13.478  21.790  0.00  0.00    -0.200 OA
BRANCH  18  21
ATOM     21  N   UNL d   1     -44.146  12.538  22.034  0.00  0.00    -0.226 N 
ATOM     22  C   UNL d   1     -43.808  11.892  22.444  0.00  0.00     0.111 C 
ATOM     23  C   UNL d   1     -43.734  12.896  21.414  0.00  0.00     0.111 C 
ENDBRANCH  18  21
ENDBRANCH   1  18
TORSDOF 5
ENDMDL
MODEL 3
REMARK VINA RESULT:      -4.8      8.230      8.699
REMARK  5 active torsions:
REMARK  status: ('A' for Active; 'I' for Inactive)
REMARK    1  A    between atoms: C_3  and  S_1 
REMARK    2  A    between atoms: N_5  and  S_1 
REMARK    3  A    between atoms: C_2  and  C_8 
REMARK       I    between atoms: N_4  and  C_2 
REMARK    4  A    between atoms: C_9  and  N_4 
REMARK    5  A    between atoms: O_17  and  C_16 
ROOT
ATOM      1  C   UNL d   1     -40.488  15.341  17.982  0.00  0.00     0.104 A 
ATOM      2  C   UNL d   1     -39.757  15.095  19.472  0.00  0.00     0.058 A 
ATOM      3  C   UNL d   1     -40.582  14.660  18.380  0.00  0.00     0.013 A 
ATOM      4  C   UNL d   1     -40.025  15.915  18.320  0.00  0.00     0.013 A 
ATOM      5  C   UNL d   1     -39.653  15.825  19.050  0.00  0.00     0.005 A 
ATOM      6  C   UNL d   1     -40.222  14.536  19.118  0.00  0.00     0.005 A 
ENDROOT
BRANCH   2   7
ATOM      7  C   UNL d   1     -39.388  14.968  20.226  0.00  0.00     0.279 C 
ATOM      8  N   UNL d   1     -39.782  15.013  20.900  0.00  0.00    -0.208 NA
ATOM      9  O   UNL d   1     -38.556  14.786  20.216  0.00  0.00    -0.265 OA
BRANCH   8  10
ATOM     10  C   UNL d   1     -39.398  14.884  21.620  0.00  0.00     0.087 A 
ATOM     11  C   UNL d   1     -39.401  14.143  21.943  0.00  0.00     0.043 A 
ATOM     12  C   UNL d   1     -39.016  14.016  22.661  0.00  0.00     0.096 A 
ATOM     13  C   UNL d   1     -38.630  14.628  23.056  0.00  0.00     0.024 A 
ATOM     14  C   UNL d   1     -38.633  15.391  22.713  0.00  0.00     0.004 A 
ATOM     15  C   UNL d   1     -39.019  15.514  21.994  0.00  0.00     0.019 A 
BRANCH  12  16
ATOM     16  O   UNL d   1     -39.019  13.433  22.914  0.00  0.00    -0.328 OA
ATOM     17  C   UNL d   1     -38.474  13.063  23.399  0.00  0.00     0.181 C 
ENDBRANCH  12  16
ENDBRANCH   8  10
ENDBRANCH   2   7
BRANCH   1  18
ATOM     18  S   UNL d   1     -40.843  15.541  17.192  0.00  0.00     0.271 S 
ATOM     19  O   UNL d   1     -41.577  15.158  17.347  0.00  0.00    -0.200 OA
ATOM     20  O   UNL d   1     -40.138  15.906  17.049  0.00  0.00    -0.200 OA
BRANCH  18  21
ATOM     21  N   UNL d   1     -41.132  15.772  16.394  0.00  0.00    -0.226 N 
ATOM     22  C   UNL d   1     -40.586  15.878  15.770  0.00  0.00     0.111 C 
ATOM     23  C   UNL d   1     -41.939  15.884  16.262  0.00  0.00     0.111 C 
ENDBRANCH  18  21
ENDBRANCH   1  18
TORSDOF 5
ENDMDL
MODEL 4
REMARK VINA RESULT:      -4.2      8.190     10.361
REMARK  5 active torsions:
REMARK  status: ('A' for Active; 'I' for Inactive)
REMARK    1  A    between atoms: C_3  and  S_1 
REMARK    2  A    between atoms: N_5  and  S_1 
REMARK    3  A    between atoms: C_2  and  C_8 
REMARK       I    between atoms: N_4  and  C_2 
REMARK    4  A    between atoms: C_9  and  N_4 
REMARK    5  A    between atoms: O_17  and  C_16 
ROOT
ATOM      1  C   UNL d   1     -38.417  14.333  16.570  0.00  0.00     0.104 A 
ATOM      2  C   UNL d   1     -38.888  14.575  18.163  0.00  0.00     0.058 A 
ATOM      3  C   UNL d   1     -37.985  14.052  17.176  0.00  0.00     0.013 A 
ATOM      4  C   UNL d   1     -39.094  14.741  16.748  0.00  0.00     0.013 A 
ATOM      5  C   UNL d   1     -39.353  14.877  17.519  0.00  0.00     0.005 A 
ATOM      6  C   UNL d   1     -38.216  14.170  17.964  0.00  0.00     0.005 A 
ENDROOT
BRANCH   2   7
ATOM      7  C   UNL d   1     -39.124  14.696  18.969  0.00  0.00     0.279 C 
ATOM      8  N   UNL d   1     -39.305  14.105  19.448  0.00  0.00    -0.208 NA
ATOM      9  O   UNL d   1     -39.157  15.504  19.237  0.00  0.00    -0.265 OA
BRANCH   8  10
ATOM     10  C   UNL d   1     -39.531  14.252  20.228  0.00  0.00     0.087 A 
ATOM     11  C   UNL d   1     -39.018  14.079  20.829  0.00  0.00     0.043 A 
ATOM     12  C   UNL d   1     -39.246  14.226  21.607  0.00  0.00     0.096 A 
ATOM     13  C   UNL d   1     -39.985  14.547  21.786  0.00  0.00     0.024 A 
ATOM     14  C   UNL d   1     -40.507  14.722  21.157  0.00  0.00     0.004 A 
ATOM     15  C   UNL d   1     -40.276  14.573  20.379  0.00  0.00     0.019 A 
BRANCH  12  16
ATOM     16  O   UNL d   1     -38.842  14.090  22.079  0.00  0.00    -0.328 OA
ATOM     17  C   UNL d   1     -38.557  14.559  22.685  0.00  0.00     0.181 C 
ENDBRANCH  12  16
ENDBRANCH   8  10
ENDBRANCH   2   7
BRANCH   1  18
ATOM     18  S   UNL d   1     -38.229  14.243  15.706  0.00  0.00     0.271 S 
ATOM     19  O   UNL d   1     -38.343  13.408  15.697  0.00  0.00    -0.200 OA
ATOM     20  O   UNL d   1     -38.122  15.041  15.721  0.00  0.00    -0.200 OA
BRANCH  18  21
ATOM     21  N   UNL d   1     -38.034  14.225  14.849  0.00  0.00    -0.226 N 
ATOM     22  C   UNL d   1     -37.942  14.943  14.430  0.00  0.00     0.111 C 
ATOM     23  C   UNL d   1     -37.940  13.503  14.459  0.00  0.00     0.111 C 
ENDBRANCH  18  21
ENDBRANCH   1  18
TORSDOF 5
ENDMDL
