MODEL 1
REMARK VINA RESULT:      -2.9      0.000      0.000
REMARK  4 active torsions:
REMARK  status: ('A' for Active; 'I' for Inactive)
REMARK    1  A    between atoms: C_3  and  C_2 
REMARK    2  A    between atoms: C_14  and  C_12 
REMARK    3  A    between atoms: C_15  and  C_14 
REMARK    4  A    between atoms: C_16  and  C_15 
ROOT
ATOM      1  N   UNL d   1      32.854  20.499 -22.786  0.00  0.00    -0.244 NA
ATOM      2  C   UNL d   1      32.940  20.638 -21.981  0.00  0.00     0.081 A 
ATOM      3  C   UNL d   1      33.142  19.967 -21.453  0.00  0.00     0.019 A 
ATOM      4  C   UNL d   1      32.953  19.744 -23.110  0.00  0.00     0.099 A 
ATOM      5  C   UNL d   1      33.241  19.211 -21.777  0.00  0.00     0.003 A 
ATOM      6  C   UNL d   1      33.143  19.090 -22.643  0.00  0.00     0.019 A 
ENDROOT
BRANCH   2   7
ATOM      7  C   UNL d   1      32.840  21.394 -21.657  0.00  0.00     0.018 A 
ATOM      8  C   UNL d   1      33.232  22.054 -21.961  0.00  0.00     0.002 A 
ATOM      9  C   UNL d   1      33.136  22.781 -21.650  0.00  0.00     0.007 A 
ATOM     10  C   UNL d   1      32.638  22.935 -20.997  0.00  0.00     0.035 A 
ATOM     11  C   UNL d   1      32.208  22.234 -20.658  0.00  0.00     0.007 A 
ATOM     12 BR   UNL d   1      32.542  23.662 -20.686  0.00  0.00    -0.049 Br
ATOM     13  C   UNL d   1      32.304  21.508 -20.969  0.00  0.00     0.002 A 
ENDBRANCH   2   7
BRANCH   6  14
ATOM     14  C   UNL d   1      33.241  18.346 -22.961  0.00  0.00     0.002 C 
BRANCH  14  15
ATOM     15  C   UNL d   1      32.602  17.891 -23.164  0.00  0.00     0.000 C 
BRANCH  15  16
ATOM     16  C   UNL d   1      32.694  17.111 -23.381  0.00  0.00     0.000 C 
ATOM     17  C   UNL d   1      32.054  16.634 -23.431  0.00  0.00     0.000 C 
ENDBRANCH  15  16
ENDBRANCH  14  15
ENDBRANCH   6  14
TORSDOF 4
ENDMDL
MODEL 2
REMARK VINA RESULT:      -2.8      2.113      4.602
REMARK  4 active torsions:
REMARK  status: ('A' for Active; 'I' for Inactive)
REMARK    1  A    between atoms: C_3  and  C_2 
REMARK    2  A    between atoms: C_14  and  C_12 
REMARK    3  A    between atoms: C_15  and  C_14 
REMARK    4  A    between atoms: C_16  and  C_15 
ROOT
ATOM      1  N   UNL d   1      32.834  19.246 -22.005  0.00  0.00    -0.244 NA
ATOM      2  C   UNL d   1      32.915  19.125 -22.814  0.00  0.00     0.081 A 
ATOM      3  C   UNL d   1      33.121  19.807 -23.326  0.00  0.00     0.019 A 
ATOM      4  C   UNL d   1      32.941  19.993 -21.664  0.00  0.00     0.099 A 
ATOM      5  C   UNL d   1      33.229  20.554 -22.985  0.00  0.00     0.003 A 
ATOM      6  C   UNL d   1      33.135  20.656 -22.116  0.00  0.00     0.019 A 
ENDROOT
BRANCH   2   7
ATOM      7  C   UNL d   1      32.808  18.378 -23.154  0.00  0.00     0.018 A 
ATOM      8  C   UNL d   1      33.238  17.719 -22.907  0.00  0.00     0.002 A 
ATOM      9  C   UNL d   1      33.135  17.001 -23.234  0.00  0.00     0.007 A 
ATOM     10  C   UNL d   1      32.589  16.855 -23.849  0.00  0.00     0.035 A 
ATOM     11  C   UNL d   1      32.117  17.555 -24.128  0.00  0.00     0.007 A 
ATOM     12 BR   UNL d   1      32.486  16.137 -24.177  0.00  0.00    -0.049 Br
ATOM     13  C   UNL d   1      32.220  18.273 -23.801  0.00  0.00     0.002 A 
ENDBRANCH   2   7
BRANCH   6  14
ATOM     14  C   UNL d   1      33.241  21.391 -21.781  0.00  0.00     0.002 C 
BRANCH  14  15
ATOM     15  C   UNL d   1      32.617  21.800 -21.464  0.00  0.00     0.000 C 
BRANCH  15  16
ATOM     16  C   UNL d   1      32.691  22.584 -21.256  0.00  0.00     0.000 C 
ATOM     17  C   UNL d   1      32.135  22.927 -20.796  0.00  0.00     0.000 C 
ENDBRANCH  15  16
ENDBRANCH  14  15
ENDBRANCH   6  14
TORSDOF 4
ENDMDL
MODEL 3
REMARK VINA RESULT:      -2.0      3.074      4.876
REMARK  4 active torsions:
REMARK  status: ('A' for Active; 'I' for Inactive)
REMARK    1  A    between atoms: C_3  and  C_2 
REMARK    2  A    between atoms: C_14  and  C_12 
REMARK    3  A    between atoms: C_15  and  C_14 
REMARK    4  A    between atoms: C_16  and  C_15 
ROOT
ATOM      1  N   UNL d   1      32.817  23.642 -20.456  0.00  0.00    -0.244 NA
ATOM      2  C   UNL d   1      33.012  22.978 -20.900  0.00  0.00     0.081 A 
ATOM      3  C   UNL d   1      33.233  22.239 -20.482  0.00  0.00     0.019 A 
ATOM      4  C   UNL d   1      32.825  23.629 -19.628  0.00  0.00     0.099 A 
ATOM      5  C   UNL d   1      33.241  22.226 -19.655  0.00  0.00     0.003 A 
ATOM      6  C   UNL d   1      33.028  22.951 -19.204  0.00  0.00     0.019 A 
ENDROOT
BRANCH   2   7
ATOM      7  C   UNL d   1      33.005  22.991 -21.727  0.00  0.00     0.018 A 
ATOM      8  C   UNL d   1      33.111  23.690 -22.154  0.00  0.00     0.002 A 
ATOM      9  C   UNL d   1      33.104  23.702 -22.950  0.00  0.00     0.007 A 
ATOM     10  C   UNL d   1      32.989  23.019 -23.416  0.00  0.00     0.035 A 
ATOM     11  C   UNL d   1      32.872  22.257 -22.971  0.00  0.00     0.007 A 
ATOM     12 BR   UNL d   1      32.982  23.031 -24.212  0.00  0.00    -0.049 Br
ATOM     13  C   UNL d   1      32.880  22.244 -22.175  0.00  0.00     0.002 A 
ENDBRANCH   2   7
BRANCH   6  14
ATOM     14  C   UNL d   1      33.035  22.938 -18.389  0.00  0.00     0.002 C 
BRANCH  14  15
ATOM     15  C   UNL d   1      32.610  23.476 -17.958  0.00  0.00     0.000 C 
BRANCH  15  16
ATOM     16  C   UNL d   1      32.314  23.287 -17.223  0.00  0.00     0.000 C 
ATOM     17  C   UNL d   1      32.553  23.698 -16.580  0.00  0.00     0.000 C 
ENDBRANCH  15  16
ENDBRANCH  14  15
ENDBRANCH   6  14
TORSDOF 4
ENDMDL
MODEL 4
REMARK VINA RESULT:      -2.0      3.078      4.025
REMARK  4 active torsions:
REMARK  status: ('A' for Active; 'I' for Inactive)
REMARK    1  A    between atoms: C_3  and  C_2 
REMARK    2  A    between atoms: C_14  and  C_12 
REMARK    3  A    between atoms: C_15  and  C_14 
REMARK    4  A    between atoms: C_16  and  C_15 
ROOT
ATOM      1  N   UNL d   1      32.884  22.077 -20.425  0.00  0.00    -0.244 NA
ATOM      2  C   UNL d   1      32.796  22.803 -20.049  0.00  0.00     0.081 A 
ATOM      3  C   UNL d   1      32.620  23.513 -20.532  0.00  0.00     0.019 A 
ATOM      4  C   UNL d   1      32.810  22.002 -21.246  0.00  0.00     0.099 A 
ATOM      5  C   UNL d   1      32.546  23.438 -21.354  0.00  0.00     0.003 A 
ATOM      6  C   UNL d   1      32.645  22.649 -21.731  0.00  0.00     0.019 A 
ENDROOT
BRANCH   2   7
ATOM      7  C   UNL d   1      32.869  22.878 -19.227  0.00  0.00     0.018 A 
ATOM      8  C   UNL d   1      33.158  22.265 -18.757  0.00  0.00     0.002 A 
ATOM      9  C   UNL d   1      33.229  22.337 -17.967  0.00  0.00     0.007 A 
ATOM     10  C   UNL d   1      33.018  23.031 -17.552  0.00  0.00     0.035 A 
ATOM     11  C   UNL d   1      32.704  23.702 -18.045  0.00  0.00     0.007 A 
ATOM     12 BR   UNL d   1      33.089  23.103 -16.762  0.00  0.00    -0.049 Br
ATOM     13  C   UNL d   1      32.633  23.630 -18.834  0.00  0.00     0.002 A 
ENDBRANCH   2   7
BRANCH   6  14
ATOM     14  C   UNL d   1      32.573  22.575 -22.539  0.00  0.00     0.002 C 
BRANCH  14  15
ATOM     15  C   UNL d   1      33.125  22.896 -23.039  0.00  0.00     0.000 C 
BRANCH  15  16
ATOM     16  C   UNL d   1      33.043  22.838 -23.848  0.00  0.00     0.000 C 
ATOM     17  C   UNL d   1      33.231  23.461 -24.313  0.00  0.00     0.000 C 
ENDBRANCH  15  16
ENDBRANCH  14  15
ENDBRANCH   6  14
TORSDOF 4
ENDMDL
MODEL 5
REMARK VINA RESULT:      -1.9      4.054      5.796
REMARK  4 active torsions:
REMARK  status: ('A' for Active; 'I' for Inactive)
REMARK    1  A    between atoms: C_3  and  C_2 
REMARK    2  A    between atoms: C_14  and  C_12 
REMARK    3  A    between atoms: C_15  and  C_14 
REMARK    4  A    between atoms: C_16  and  C_15 
ROOT
ATOM      1  N   UNL d   1      30.462  17.575 -24.902  0.00  0.00    -0.244 NA
ATOM      2  C   UNL d   1      30.414  16.996 -24.320  0.00  0.00     0.081 A 
ATOM      3  C   UNL d   1      31.137  16.785 -23.870  0.00  0.00     0.019 A 
ATOM      4  C   UNL d   1      31.175  17.961 -25.072  0.00  0.00     0.099 A 
ATOM      5  C   UNL d   1      31.850  17.171 -24.041  0.00  0.00     0.003 A 
ATOM      6  C   UNL d   1      31.874  17.787 -24.669  0.00  0.00     0.019 A 
ENDROOT
BRANCH   2   7
ATOM      7  C   UNL d   1      29.702  16.611 -24.149  0.00  0.00     0.018 A 
ATOM      8  C   UNL d   1      29.421  15.987 -24.611  0.00  0.00     0.002 A 
ATOM      9  C   UNL d   1      28.736  15.616 -24.447  0.00  0.00     0.007 A 
ATOM     10  C   UNL d   1      28.249  15.823 -23.801  0.00  0.00     0.035 A 
ATOM     11  C   UNL d   1      28.537  16.494 -23.292  0.00  0.00     0.007 A 
ATOM     12 BR   UNL d   1      27.564  15.453 -23.637  0.00  0.00    -0.049 Br
ATOM     13  C   UNL d   1      29.222  16.865 -23.456  0.00  0.00     0.002 A 
ENDBRANCH   2   7
BRANCH   6  14
ATOM     14  C   UNL d   1      32.575  18.166 -24.837  0.00  0.00     0.002 C 
BRANCH  14  15
ATOM     15  C   UNL d   1      32.584  18.939 -25.081  0.00  0.00     0.000 C 
BRANCH  15  16
ATOM     16  C   UNL d   1      33.241  19.408 -24.969  0.00  0.00     0.000 C 
ATOM     17  C   UNL d   1      33.176  20.203 -25.018  0.00  0.00     0.000 C 
ENDBRANCH  15  16
ENDBRANCH  14  15
ENDBRANCH   6  14
TORSDOF 4
ENDMDL
MODEL 6
REMARK VINA RESULT:      -0.8      3.745      5.500
REMARK  4 active torsions:
REMARK  status: ('A' for Active; 'I' for Inactive)
REMARK    1  A    between atoms: C_3  and  C_2 
REMARK    2  A    between atoms: C_14  and  C_12 
REMARK    3  A    between atoms: C_15  and  C_14 
REMARK    4  A    between atoms: C_16  and  C_15 
ROOT
ATOM      1  N   UNL d   1      29.794  17.075 -24.711  0.00  0.00    -0.244 NA
ATOM      2  C   UNL d   1      30.471  16.874 -24.292  0.00  0.00     0.081 A 
ATOM      3  C   UNL d   1      30.457  16.162 -23.779  0.00  0.00     0.019 A 
ATOM      4  C   UNL d   1      29.101  16.624 -24.661  0.00  0.00     0.099 A 
ATOM      5  C   UNL d   1      29.765  15.711 -23.728  0.00  0.00     0.003 A 
ATOM      6  C   UNL d   1      29.053  15.949 -24.188  0.00  0.00     0.019 A 
ENDROOT
BRANCH   2   7
ATOM      7  C   UNL d   1      31.163  17.325 -24.343  0.00  0.00     0.018 A 
ATOM      8  C   UNL d   1      31.276  18.004 -23.888  0.00  0.00     0.002 A 
ATOM      9  C   UNL d   1      31.942  18.438 -23.936  0.00  0.00     0.007 A 
ATOM     10  C   UNL d   1      32.575  18.246 -24.446  0.00  0.00     0.035 A 
ATOM     11  C   UNL d   1      32.470  17.516 -24.943  0.00  0.00     0.007 A 
ATOM     12 BR   UNL d   1      33.241  18.680 -24.494  0.00  0.00    -0.049 Br
ATOM     13  C   UNL d   1      31.804  17.082 -24.895  0.00  0.00     0.002 A 
ENDBRANCH   2   7
BRANCH   6  14
ATOM     14  C   UNL d   1      28.372  15.504 -24.139  0.00  0.00     0.002 C 
BRANCH  14  15
ATOM     15  C   UNL d   1      27.862  15.589 -23.514  0.00  0.00     0.000 C 
BRANCH  15  16
ATOM     16  C   UNL d   1      27.063  15.453 -23.602  0.00  0.00     0.000 C 
ATOM     17  C   UNL d   1      26.559  15.649 -23.014  0.00  0.00     0.000 C 
ENDBRANCH  15  16
ENDBRANCH  14  15
ENDBRANCH   6  14
TORSDOF 4
ENDMDL
MODEL 7
REMARK VINA RESULT:       0.0      2.481      4.935
REMARK  4 active torsions:
REMARK  status: ('A' for Active; 'I' for Inactive)
REMARK    1  A    between atoms: C_3  and  C_2 
REMARK    2  A    between atoms: C_14  and  C_12 
REMARK    3  A    between atoms: C_15  and  C_14 
REMARK    4  A    between atoms: C_16  and  C_15 
ROOT
ATOM      1  N   UNL d   1      31.681  18.784 -22.897  0.00  0.00    -0.244 NA
ATOM      2  C   UNL d   1      32.084  18.455 -23.533  0.00  0.00     0.081 A 
ATOM      3  C   UNL d   1      32.818  18.843 -23.817  0.00  0.00     0.019 A 
ATOM      4  C   UNL d   1      31.950  19.470 -22.520  0.00  0.00     0.099 A 
ATOM      5  C   UNL d   1      33.088  19.529 -23.440  0.00  0.00     0.003 A 
ATOM      6  C   UNL d   1      32.637  19.860 -22.761  0.00  0.00     0.019 A 
ENDROOT
BRANCH   2   7
ATOM      7  C   UNL d   1      31.815  17.769 -23.910  0.00  0.00     0.018 A 
ATOM      8  C   UNL d   1      31.822  17.033 -23.537  0.00  0.00     0.002 A 
ATOM      9  C   UNL d   1      31.563  16.373 -23.899  0.00  0.00     0.007 A 
ATOM     10  C   UNL d   1      31.265  16.369 -24.680  0.00  0.00     0.035 A 
ATOM     11  C   UNL d   1      31.250  17.155 -25.097  0.00  0.00     0.007 A 
ATOM     12 BR   UNL d   1      31.006  15.710 -25.042  0.00  0.00    -0.049 Br
ATOM     13  C   UNL d   1      31.509  17.814 -24.734  0.00  0.00     0.002 A 
ENDBRANCH   2   7
BRANCH   6  14
ATOM     14  C   UNL d   1      32.902  20.535 -22.389  0.00  0.00     0.002 C 
BRANCH  14  15
ATOM     15  C   UNL d   1      32.496  20.856 -21.766  0.00  0.00     0.000 C 
BRANCH  15  16
ATOM     16  C   UNL d   1      32.729  21.562 -21.432  0.00  0.00     0.000 C 
ATOM     17  C   UNL d   1      32.265  21.916 -20.885  0.00  0.00     0.000 C 
ENDBRANCH  15  16
ENDBRANCH  14  15
ENDBRANCH   6  14
TORSDOF 4
ENDMDL
