MODEL 1
REMARK VINA RESULT:     -10.4      0.000      0.000
REMARK  2 active torsions:
REMARK  status: ('A' for Active; 'I' for Inactive)
REMARK       I    between atoms: N_2  and  C_1 
REMARK    1  A    between atoms: C_4  and  C_1 
REMARK    2  A    between atoms: C_3  and  N_2 
ROOT
ATOM      1  C   UNL d   1      52.806  32.752  53.626  0.00  0.00     0.085 A 
ATOM      2  C   UNL d   1      53.058  34.115  53.929  0.00  0.00     0.002 A 
ATOM      3  C   UNL d   1      53.183  33.311  54.072  0.00  0.00     0.018 A 
ATOM      4  C   UNL d   1      52.553  34.360  53.337  0.00  0.00     0.000 A 
ATOM      5  C   UNL d   1      53.439  34.683  54.379  0.00  0.00     0.000 A 
ATOM      6  C   UNL d   1      52.288  32.989  53.019  0.00  0.00     0.019 A 
ATOM      7  C   UNL d   1      52.162  33.795  52.875  0.00  0.00     0.002 A 
ATOM      8  C   UNL d   1      52.540  35.183  53.327  0.00  0.00     0.000 A 
ATOM      9  C   UNL d   1      53.208  35.424  54.113  0.00  0.00     0.000 A 
ATOM     10  C   UNL d   1      53.690  33.068  54.666  0.00  0.00     0.002 A 
ATOM     11  C   UNL d   1      54.088  33.642  55.137  0.00  0.00     0.000 A 
ATOM     12  C   UNL d   1      53.963  34.446  54.994  0.00  0.00     0.000 A 
ENDROOT
BRANCH   1  13
ATOM     13  N   UNL d   1      52.930  31.955  53.767  0.00  0.00    -0.206 NA
ATOM     14  C   UNL d   1      52.803  31.428  53.168  0.00  0.00     0.302 C 
ATOM     15  O   UNL d   1      52.573  31.706  52.500  0.00  0.00    -0.263 OA
BRANCH  14  16
ATOM     16  C   UNL d   1      52.910  30.610  53.244  0.00  0.00     0.158 A 
ATOM     17  O   UNL d   1      52.296  30.068  53.283  0.00  0.00    -0.300 OA
ATOM     18  C   UNL d   1      52.639  29.299  53.359  0.00  0.00     0.123 A 
ATOM     19  C   UNL d   1      53.445  29.379  53.367  0.00  0.00     0.029 A 
ATOM     20  C   UNL d   1      53.639  30.180  53.297  0.00  0.00     0.032 A 
ENDBRANCH  14  16
ENDBRANCH   1  13
TORSDOF 2
ENDMDL
MODEL 2
REMARK VINA RESULT:     -10.2      1.758      3.413
REMARK  2 active torsions:
REMARK  status: ('A' for Active; 'I' for Inactive)
REMARK       I    between atoms: N_2  and  C_1 
REMARK    1  A    between atoms: C_4  and  C_1 
REMARK    2  A    between atoms: C_3  and  N_2 
ROOT
ATOM      1  C   UNL d   1      52.541  33.866  53.639  0.00  0.00     0.085 A 
ATOM      2  C   UNL d   1      53.693  33.344  54.286  0.00  0.00     0.002 A 
ATOM      3  C   UNL d   1      53.051  33.251  53.773  0.00  0.00     0.018 A 
ATOM      4  C   UNL d   1      53.824  34.055  54.665  0.00  0.00     0.000 A 
ATOM      5  C   UNL d   1      54.209  32.724  54.423  0.00  0.00     0.000 A 
ATOM      6  C   UNL d   1      52.665  34.595  54.021  0.00  0.00     0.019 A 
ATOM      7  C   UNL d   1      53.308  34.688  54.534  0.00  0.00     0.002 A 
ATOM      8  C   UNL d   1      54.496  33.980  55.135  0.00  0.00     0.000 A 
ATOM      9  C   UNL d   1      54.785  32.978  54.950  0.00  0.00     0.000 A 
ATOM     10  C   UNL d   1      52.921  32.539  53.393  0.00  0.00     0.002 A 
ATOM     11  C   UNL d   1      53.445  31.893  53.526  0.00  0.00     0.000 A 
ATOM     12  C   UNL d   1      54.086  31.985  54.038  0.00  0.00     0.000 A 
ENDROOT
BRANCH   1  13
ATOM     13  N   UNL d   1      51.906  33.774  53.131  0.00  0.00    -0.206 NA
ATOM     14  C   UNL d   1      51.411  34.401  53.009  0.00  0.00     0.302 C 
ATOM     15  O   UNL d   1      51.566  35.046  53.377  0.00  0.00    -0.263 OA
BRANCH  14  16
ATOM     16  C   UNL d   1      50.751  34.375  52.509  0.00  0.00     0.158 A 
ATOM     17  O   UNL d   1      50.792  34.260  51.699  0.00  0.00    -0.300 OA
ATOM     18  C   UNL d   1      50.002  34.270  51.398  0.00  0.00     0.123 A 
ATOM     19  C   UNL d   1      49.495  34.389  52.019  0.00  0.00     0.029 A 
ATOM     20  C   UNL d   1      49.933  34.458  52.717  0.00  0.00     0.032 A 
ENDBRANCH  14  16
ENDBRANCH   1  13
TORSDOF 2
ENDMDL
MODEL 3
REMARK VINA RESULT:      -7.9      1.522      4.128
REMARK  2 active torsions:
REMARK  status: ('A' for Active; 'I' for Inactive)
REMARK       I    between atoms: N_2  and  C_1 
REMARK    1  A    between atoms: C_4  and  C_1 
REMARK    2  A    between atoms: C_3  and  N_2 
ROOT
ATOM      1  C   UNL d   1      53.455  32.780  53.737  0.00  0.00     0.085 A 
ATOM      2  C   UNL d   1      53.174  31.439  53.366  0.00  0.00     0.002 A 
ATOM      3  C   UNL d   1      52.943  32.229  53.436  0.00  0.00     0.018 A 
ATOM      4  C   UNL d   1      53.919  31.199  53.598  0.00  0.00     0.000 A 
ATOM      5  C   UNL d   1      52.659  30.880  53.062  0.00  0.00     0.000 A 
ATOM      6  C   UNL d   1      54.217  32.548  53.977  0.00  0.00     0.019 A 
ATOM      7  C   UNL d   1      54.448  31.756  53.907  0.00  0.00     0.002 A 
ATOM      8  C   UNL d   1      53.988  30.390  53.463  0.00  0.00     0.000 A 
ATOM      9  C   UNL d   1      53.038  30.152  53.059  0.00  0.00     0.000 A 
ATOM     10  C   UNL d   1      52.196  32.468  53.203  0.00  0.00     0.002 A 
ATOM     11  C   UNL d   1      51.657  31.903  52.889  0.00  0.00     0.000 A 
ATOM     12  C   UNL d   1      51.887  31.113  52.818  0.00  0.00     0.000 A 
ENDROOT
BRANCH   1  13
ATOM     13  N   UNL d   1      53.226  33.563  53.807  0.00  0.00    -0.206 NA
ATOM     14  C   UNL d   1      53.489  33.991  54.441  0.00  0.00     0.302 C 
ATOM     15  O   UNL d   1      53.938  33.637  54.939  0.00  0.00    -0.263 OA
BRANCH  14  16
ATOM     16  C   UNL d   1      53.296  34.786  54.570  0.00  0.00     0.158 A 
ATOM     17  O   UNL d   1      53.167  35.113  55.311  0.00  0.00    -0.300 OA
ATOM     18  C   UNL d   1      52.986  35.931  55.201  0.00  0.00     0.123 A 
ATOM     19  C   UNL d   1      53.005  36.092  54.407  0.00  0.00     0.029 A 
ATOM     20  C   UNL d   1      53.195  35.400  53.995  0.00  0.00     0.032 A 
ENDBRANCH  14  16
ENDBRANCH   1  13
TORSDOF 2
ENDMDL
MODEL 4
REMARK VINA RESULT:      -7.4      1.561      4.069
REMARK  2 active torsions:
REMARK  status: ('A' for Active; 'I' for Inactive)
REMARK       I    between atoms: N_2  and  C_1 
REMARK    1  A    between atoms: C_4  and  C_1 
REMARK    2  A    between atoms: C_3  and  N_2 
ROOT
ATOM      1  C   UNL d   1      53.491  31.441  53.877  0.00  0.00     0.085 A 
ATOM      2  C   UNL d   1      53.083  30.116  53.572  0.00  0.00     0.002 A 
ATOM      3  C   UNL d   1      53.396  30.668  54.100  0.00  0.00     0.018 A 
ATOM      4  C   UNL d   1      52.863  30.338  52.817  0.00  0.00     0.000 A 
ATOM      5  C   UNL d   1      52.986  29.335  53.794  0.00  0.00     0.000 A 
ATOM      6  C   UNL d   1      53.270  31.679  53.110  0.00  0.00     0.019 A 
ATOM      7  C   UNL d   1      52.956  31.126  52.581  0.00  0.00     0.002 A 
ATOM      8  C   UNL d   1      52.573  29.676  52.423  0.00  0.00     0.000 A 
ATOM      9  C   UNL d   1      52.666  28.922  53.161  0.00  0.00     0.000 A 
ATOM     10  C   UNL d   1      53.616  30.445  54.855  0.00  0.00     0.002 A 
ATOM     11  C   UNL d   1      53.522  29.643  55.097  0.00  0.00     0.000 A 
ATOM     12  C   UNL d   1      53.208  29.091  54.569  0.00  0.00     0.000 A 
ENDROOT
BRANCH   1  13
ATOM     13  N   UNL d   1      53.802  31.989  54.400  0.00  0.00    -0.206 NA
ATOM     14  C   UNL d   1      54.111  32.676  54.108  0.00  0.00     0.302 C 
ATOM     15  O   UNL d   1      54.094  32.774  53.356  0.00  0.00    -0.263 OA
BRANCH  14  16
ATOM     16  C   UNL d   1      54.440  33.270  54.582  0.00  0.00     0.158 A 
ATOM     17  O   UNL d   1      55.240  33.338  54.744  0.00  0.00    -0.300 OA
ATOM     18  C   UNL d   1      55.344  34.012  55.244  0.00  0.00     0.123 A 
ATOM     19  C   UNL d   1      54.616  34.343  55.379  0.00  0.00     0.029 A 
ATOM     20  C   UNL d   1      54.040  33.903  54.980  0.00  0.00     0.032 A 
ENDBRANCH  14  16
ENDBRANCH   1  13
TORSDOF 2
ENDMDL
