MODEL 1
REMARK VINA RESULT:      -5.5      0.000      0.000
REMARK  3 active torsions:
REMARK  status: ('A' for Active; 'I' for Inactive)
REMARK    1  A    between atoms: N_2  and  C_1 
REMARK       I    between atoms: C_5  and  N_2 
REMARK    2  A    between atoms: C_8  and  C_5 
REMARK    3  A    between atoms: O_17  and  C_13 
ROOT
ATOM      1  N   UNL d   1      57.423  -0.408  30.701  0.00  0.00    -0.184 NA
ATOM      2  C   UNL d   1      57.455  -0.033  31.436  0.00  0.00     0.281 C 
ATOM      3  O   UNL d   1      58.147   0.366  31.644  0.00  0.00    -0.265 OA
ENDROOT
BRANCH   1   4
ATOM      4  C   UNL d   1      58.083  -0.370  30.200  0.00  0.00     0.182 A 
ATOM      5  N   UNL d   1      58.435  -0.985  29.747  0.00  0.00    -0.283 N 
ATOM      6  C   UNL d   1      59.092  -0.619  29.345  0.00  0.00     0.072 A 
ATOM      7  C   UNL d   1      58.195  -1.742  29.711  0.00  0.00     0.101 C 
ATOM      8  C   UNL d   1      59.668  -0.922  28.810  0.00  0.00     0.018 A 
ATOM      9  C   UNL d   1      59.103   0.147  29.561  0.00  0.00     0.048 A 
ATOM     10  C   UNL d   1      60.261  -0.402  28.503  0.00  0.00     0.002 A 
ATOM     11  C   UNL d   1      60.263   0.374  28.729  0.00  0.00     0.001 A 
ATOM     12  C   UNL d   1      59.693   0.677  29.259  0.00  0.00     0.008 A 
ATOM     13  S   UNL d   1      58.507   0.312  30.071  0.00  0.00    -0.048 SA
ENDBRANCH   1   4
BRANCH   2  14
ATOM     14  C   UNL d   1      56.839  -0.040  31.960  0.00  0.00     0.058 A 
ATOM     15  C   UNL d   1      56.603  -0.743  32.294  0.00  0.00     0.007 A 
ATOM     16  C   UNL d   1      55.974  -0.745  32.828  0.00  0.00     0.024 A 
ATOM     17  C   UNL d   1      55.595  -0.049  33.020  0.00  0.00     0.094 A 
ATOM     18  C   UNL d   1      55.832   0.654  32.686  0.00  0.00     0.024 A 
ATOM     19  C   UNL d   1      56.470   0.682  32.138  0.00  0.00     0.007 A 
BRANCH  17  20
ATOM     20  O   UNL d   1      54.963  -0.060  33.558  0.00  0.00    -0.328 OA
ATOM     21  C   UNL d   1      54.823   0.508  34.215  0.00  0.00     0.181 C 
ENDBRANCH  17  20
ENDBRANCH   2  14
TORSDOF 3
ENDMDL
MODEL 2
REMARK VINA RESULT:      -5.5      0.997      1.347
REMARK  3 active torsions:
REMARK  status: ('A' for Active; 'I' for Inactive)
REMARK    1  A    between atoms: N_2  and  C_1 
REMARK       I    between atoms: C_5  and  N_2 
REMARK    2  A    between atoms: C_8  and  C_5 
REMARK    3  A    between atoms: O_17  and  C_13 
ROOT
ATOM      1  N   UNL d   1      57.911   0.568  31.466  0.00  0.00    -0.184 NA
ATOM      2  C   UNL d   1      57.304   0.009  31.477  0.00  0.00     0.281 C 
ATOM      3  O   UNL d   1      57.276  -0.554  30.873  0.00  0.00    -0.265 OA
ENDROOT
BRANCH   1   4
ATOM      4  C   UNL d   1      58.470   0.545  30.853  0.00  0.00     0.182 A 
ATOM      5  N   UNL d   1      59.308   0.593  30.904  0.00  0.00    -0.283 N 
ATOM      6  C   UNL d   1      59.584   0.538  30.099  0.00  0.00     0.072 A 
ATOM      7  C   UNL d   1      59.737   0.672  31.568  0.00  0.00     0.101 C 
ATOM      8  C   UNL d   1      60.358   0.549  29.765  0.00  0.00     0.018 A 
ATOM      9  C   UNL d   1      58.942   0.464  29.634  0.00  0.00     0.048 A 
ATOM     10  C   UNL d   1      60.445   0.482  28.925  0.00  0.00     0.002 A 
ATOM     11  C   UNL d   1      59.787   0.407  28.462  0.00  0.00     0.001 A 
ATOM     12  C   UNL d   1      59.019   0.395  28.792  0.00  0.00     0.008 A 
ATOM     13  S   UNL d   1      58.269   0.466  30.069  0.00  0.00    -0.048 SA
ENDBRANCH   1   4
BRANCH   2  14
ATOM     14  C   UNL d   1      56.735  -0.011  32.051  0.00  0.00     0.058 A 
ATOM     15  C   UNL d   1      56.385   0.680  32.295  0.00  0.00     0.007 A 
ATOM     16  C   UNL d   1      55.805   0.655  32.881  0.00  0.00     0.024 A 
ATOM     17  C   UNL d   1      55.586  -0.059  33.212  0.00  0.00     0.094 A 
ATOM     18  C   UNL d   1      55.936  -0.751  32.968  0.00  0.00     0.024 A 
ATOM     19  C   UNL d   1      56.530  -0.750  32.371  0.00  0.00     0.007 A 
BRANCH  17  20
ATOM     20  O   UNL d   1      55.001  -0.075  33.801  0.00  0.00    -0.328 OA
ATOM     21  C   UNL d   1      54.499   0.598  34.063  0.00  0.00     0.181 C 
ENDBRANCH  17  20
ENDBRANCH   2  14
TORSDOF 3
ENDMDL
MODEL 3
REMARK VINA RESULT:      -4.9      1.440      4.895
REMARK  3 active torsions:
REMARK  status: ('A' for Active; 'I' for Inactive)
REMARK    1  A    between atoms: N_2  and  C_1 
REMARK       I    between atoms: C_5  and  N_2 
REMARK    2  A    between atoms: C_8  and  C_5 
REMARK    3  A    between atoms: O_17  and  C_13 
ROOT
ATOM      1  N   UNL d   1      57.567  -0.188  31.812  0.00  0.00    -0.184 NA
ATOM      2  C   UNL d   1      57.441   0.154  31.070  0.00  0.00     0.281 C 
ATOM      3  O   UNL d   1      56.786   0.647  30.970  0.00  0.00    -0.265 OA
ENDROOT
BRANCH   1   4
ATOM      4  C   UNL d   1      57.033  -0.025  32.426  0.00  0.00     0.182 A 
ATOM      5  N   UNL d   1      57.174   0.375  33.152  0.00  0.00    -0.283 N 
ATOM      6  C   UNL d   1      56.424   0.374  33.557  0.00  0.00     0.072 A 
ATOM      7  C   UNL d   1      57.865   0.681  33.396  0.00  0.00     0.101 C 
ATOM      8  C   UNL d   1      56.184   0.682  34.304  0.00  0.00     0.018 A 
ATOM      9  C   UNL d   1      55.902  -0.000  33.086  0.00  0.00     0.048 A 
ATOM     10  C   UNL d   1      55.379   0.588  34.549  0.00  0.00     0.002 A 
ATOM     11  C   UNL d   1      54.857   0.206  34.064  0.00  0.00     0.001 A 
ATOM     12  C   UNL d   1      55.093  -0.099  33.323  0.00  0.00     0.008 A 
ATOM     13  S   UNL d   1      56.250  -0.245  32.407  0.00  0.00    -0.048 SA
ENDBRANCH   1   4
BRANCH   2  14
ATOM     14  C   UNL d   1      57.931   0.028  30.439  0.00  0.00     0.058 A 
ATOM     15  C   UNL d   1      58.258   0.663  30.051  0.00  0.00     0.007 A 
ATOM     16  C   UNL d   1      58.757   0.529  29.408  0.00  0.00     0.024 A 
ATOM     17  C   UNL d   1      58.920  -0.233  29.165  0.00  0.00     0.094 A 
ATOM     18  C   UNL d   1      58.592  -0.867  29.554  0.00  0.00     0.024 A 
ATOM     19  C   UNL d   1      58.080  -0.757  30.212  0.00  0.00     0.007 A 
BRANCH  17  20
ATOM     20  O   UNL d   1      59.423  -0.358  28.516  0.00  0.00    -0.328 OA
ATOM     21  C   UNL d   1      60.298  -0.268  28.505  0.00  0.00     0.181 C 
ENDBRANCH  17  20
ENDBRANCH   2  14
TORSDOF 3
ENDMDL
