MODEL 1
REMARK VINA RESULT:     -11.5      0.000      0.000
REMARK  2 active torsions:
REMARK  status: ('A' for Active; 'I' for Inactive)
REMARK    1  A    between atoms: N_11  and  C_2 
REMARK    2  A    between atoms: C_16  and  N_11 
ROOT
ATOM      1  C   UNL d   1     -47.782  12.760  23.233  0.00  0.00     0.024 A 
ATOM      2  C   UNL d   1     -48.576  12.595  23.347  0.00  0.00     0.139 A 
ATOM      3  C   UNL d   1     -47.214  12.176  23.347  0.00  0.00     0.022 A 
ATOM      4  C   UNL d   1     -48.816  11.843  23.578  0.00  0.00     0.297 A 
ATOM      5  C   UNL d   1     -47.543  13.521  23.000  0.00  0.00     0.005 A 
ATOM      6  C   UNL d   1     -46.415  12.342  23.233  0.00  0.00     0.041 A 
ATOM      7  C   UNL d   1     -46.168  13.095  23.001  0.00  0.00     0.196 A 
ATOM      8  N   UNL d   1     -48.249  11.260  23.692  0.00  0.00    -0.207 NA
ATOM      9  C   UNL d   1     -47.456  11.425  23.578  0.00  0.00     0.085 A 
ATOM     10  C   UNL d   1     -46.744  13.687  22.885  0.00  0.00     0.039 A 
ATOM     11  O   UNL d   1     -49.610  11.679  23.692  0.00  0.00    -0.264 OA
ATOM     12  O   UNL d   1     -45.354  13.264  22.884  0.00  0.00    -0.287 OA
ATOM     13  C   UNL d   1     -45.841  11.760  23.346  0.00  0.00     0.003 A 
ATOM     14  C   UNL d   1     -48.112  14.104  22.886  0.00  0.00     0.000 A 
ATOM     15  C   UNL d   1     -46.886  10.836  23.694  0.00  0.00     0.019 A 
ATOM     16  C   UNL d   1     -46.497  14.439  22.654  0.00  0.00     0.003 A 
ATOM     17  C   UNL d   1     -46.087  11.002  23.579  0.00  0.00     0.002 A 
ATOM     18  C   UNL d   1     -47.871  14.862  22.654  0.00  0.00     0.000 A 
ATOM     19  C   UNL d   1     -47.072  15.028  22.539  0.00  0.00     0.000 A 
ENDROOT
BRANCH   2  20
ATOM     20  N   UNL d   1     -49.146  13.189  23.230  0.00  0.00    -0.241 NA
BRANCH  20  21
ATOM     21  C   UNL d   1     -49.729  13.091  22.666  0.00  0.00     0.082 A 
ATOM     22  C   UNL d   1     -50.456  13.467  22.779  0.00  0.00     0.019 A 
ATOM     23  C   UNL d   1     -51.064  13.385  22.221  0.00  0.00     0.002 A 
ATOM     24  C   UNL d   1     -50.934  12.909  21.531  0.00  0.00     0.000 A 
ATOM     25  C   UNL d   1     -50.218  12.543  21.427  0.00  0.00     0.002 A 
ATOM     26  C   UNL d   1     -49.606  12.626  21.989  0.00  0.00     0.019 A 
ENDBRANCH  20  21
ENDBRANCH   2  20
TORSDOF 2
ENDMDL
MODEL 2
REMARK VINA RESULT:     -10.1      1.277      3.323
REMARK  2 active torsions:
REMARK  status: ('A' for Active; 'I' for Inactive)
REMARK    1  A    between atoms: N_11  and  C_2 
REMARK    2  A    between atoms: C_16  and  N_11 
ROOT
ATOM      1  C   UNL d   1     -48.680  13.234  23.201  0.00  0.00     0.024 A 
ATOM      2  C   UNL d   1     -47.902  13.015  23.324  0.00  0.00     0.139 A 
ATOM      3  C   UNL d   1     -49.291  12.695  23.324  0.00  0.00     0.022 A 
ATOM      4  C   UNL d   1     -47.718  12.254  23.574  0.00  0.00     0.297 A 
ATOM      5  C   UNL d   1     -48.863  14.005  22.948  0.00  0.00     0.005 A 
ATOM      6  C   UNL d   1     -50.075  12.916  23.199  0.00  0.00     0.041 A 
ATOM      7  C   UNL d   1     -50.265  13.679  22.949  0.00  0.00     0.196 A 
ATOM      8  N   UNL d   1     -48.326  11.716  23.697  0.00  0.00    -0.207 NA
ATOM      9  C   UNL d   1     -49.105  11.934  23.573  0.00  0.00     0.085 A 
ATOM     10  C   UNL d   1     -49.647  14.225  22.824  0.00  0.00     0.039 A 
ATOM     11  O   UNL d   1     -46.939  12.035  23.698  0.00  0.00    -0.264 OA
ATOM     12  O   UNL d   1     -51.064  13.904  22.821  0.00  0.00    -0.287 OA
ATOM     13  C   UNL d   1     -50.689  12.379  23.321  0.00  0.00     0.003 A 
ATOM     14  C   UNL d   1     -48.253  14.543  22.825  0.00  0.00     0.000 A 
ATOM     15  C   UNL d   1     -49.716  11.391  23.698  0.00  0.00     0.019 A 
ATOM     16  C   UNL d   1     -49.838  14.988  22.573  0.00  0.00     0.003 A 
ATOM     17  C   UNL d   1     -50.501  11.612  23.573  0.00  0.00     0.002 A 
ATOM     18  C   UNL d   1     -48.437  15.310  22.574  0.00  0.00     0.000 A 
ATOM     19  C   UNL d   1     -49.221  15.531  22.449  0.00  0.00     0.000 A 
ENDROOT
BRANCH   2  20
ATOM     20  N   UNL d   1     -47.290  13.563  23.199  0.00  0.00    -0.241 NA
BRANCH  20  21
ATOM     21  C   UNL d   1     -46.650  13.363  22.729  0.00  0.00     0.082 A 
ATOM     22  C   UNL d   1     -45.889  13.476  23.029  0.00  0.00     0.019 A 
ATOM     23  C   UNL d   1     -45.224  13.282  22.573  0.00  0.00     0.002 A 
ATOM     24  C   UNL d   1     -45.333  12.965  21.794  0.00  0.00     0.000 A 
ATOM     25  C   UNL d   1     -46.083  12.857  21.506  0.00  0.00     0.002 A 
ATOM     26  C   UNL d   1     -46.752  13.053  21.966  0.00  0.00     0.019 A 
ENDBRANCH  20  21
ENDBRANCH   2  20
TORSDOF 2
ENDMDL
MODEL 3
REMARK VINA RESULT:      -9.9      1.281      4.047
REMARK  2 active torsions:
REMARK  status: ('A' for Active; 'I' for Inactive)
REMARK    1  A    between atoms: N_11  and  C_2 
REMARK    2  A    between atoms: C_16  and  N_11 
ROOT
ATOM      1  C   UNL d   1     -48.826  13.419  22.964  0.00  0.00     0.024 A 
ATOM      2  C   UNL d   1     -48.095  13.785  22.994  0.00  0.00     0.139 A 
ATOM      3  C   UNL d   1     -49.489  13.830  22.701  0.00  0.00     0.022 A 
ATOM      4  C   UNL d   1     -48.012  14.570  22.761  0.00  0.00     0.297 A 
ATOM      5  C   UNL d   1     -48.906  12.626  23.200  0.00  0.00     0.005 A 
ATOM      6  C   UNL d   1     -50.225  13.461  22.671  0.00  0.00     0.041 A 
ATOM      7  C   UNL d   1     -50.314  12.674  22.904  0.00  0.00     0.196 A 
ATOM      8  N   UNL d   1     -48.673  14.980  22.499  0.00  0.00    -0.207 NA
ATOM      9  C   UNL d   1     -49.404  14.614  22.469  0.00  0.00     0.085 A 
ATOM     10  C   UNL d   1     -49.642  12.257  23.170  0.00  0.00     0.039 A 
ATOM     11  O   UNL d   1     -47.281  14.936  22.791  0.00  0.00    -0.264 OA
ATOM     12  O   UNL d   1     -51.064  12.298  22.873  0.00  0.00    -0.287 OA
ATOM     13  C   UNL d   1     -50.892  13.869  22.408  0.00  0.00     0.003 A 
ATOM     14  C   UNL d   1     -48.244  12.216  23.463  0.00  0.00     0.000 A 
ATOM     15  C   UNL d   1     -50.069  15.029  22.204  0.00  0.00     0.019 A 
ATOM     16  C   UNL d   1     -49.731  11.471  23.403  0.00  0.00     0.003 A 
ATOM     17  C   UNL d   1     -50.806  14.661  22.174  0.00  0.00     0.002 A 
ATOM     18  C   UNL d   1     -48.325  11.426  23.698  0.00  0.00     0.000 A 
ATOM     19  C   UNL d   1     -49.062  11.057  23.668  0.00  0.00     0.000 A 
ENDROOT
BRANCH   2  20
ATOM     20  N   UNL d   1     -47.429  13.366  23.261  0.00  0.00    -0.241 NA
BRANCH  20  21
ATOM     21  C   UNL d   1     -46.753  13.334  22.801  0.00  0.00     0.082 A 
ATOM     22  C   UNL d   1     -46.050  13.638  23.110  0.00  0.00     0.019 A 
ATOM     23  C   UNL d   1     -45.351  13.617  22.664  0.00  0.00     0.002 A 
ATOM     24  C   UNL d   1     -45.364  13.281  21.886  0.00  0.00     0.000 A 
ATOM     25  C   UNL d   1     -46.058  12.985  21.589  0.00  0.00     0.002 A 
ATOM     26  C   UNL d   1     -46.762  13.005  22.038  0.00  0.00     0.019 A 
ENDBRANCH  20  21
ENDBRANCH   2  20
TORSDOF 2
ENDMDL
