MODEL 1
REMARK VINA RESULT:      82.7      0.000      0.000
REMARK  4 active torsions:
REMARK  status: ('A' for Active; 'I' for Inactive)
REMARK    1  A    between atoms: C_16  and  N_3 
REMARK    2  A    between atoms: S_12  and  C_6 
REMARK    3  A    between atoms: C_10  and  C_14 
REMARK       I    between atoms: N_11  and  C_10 
REMARK    4  A    between atoms: C_14  and  S_12 
ROOT
ATOM      1  C   UNL d   1     -54.770-100.316 -44.857  0.00  0.00     0.155 A 
ATOM      2  C   UNL d   1     -54.768-101.083 -44.537  0.00  0.00     0.107 A 
ATOM      3  N   UNL d   1     -54.732 -99.765 -43.548  0.00  0.00    -0.252 N 
ATOM      4  C   UNL d   1     -54.752 -99.669 -44.365  0.00  0.00     0.285 A 
ATOM      5  N   UNL d   1     -54.747-101.178 -43.719  0.00  0.00    -0.220 NA
ATOM      6  C   UNL d   1     -54.729-100.520 -43.225  0.00  0.00     0.182 A 
ATOM      7  N   UNL d   1     -54.791-100.393 -45.676  0.00  0.00    -0.239 NA
ATOM      8  C   UNL d   1     -54.788-101.615 -45.156  0.00  0.00     0.037 A 
ATOM      9  C   UNL d   1     -54.803-101.195 -45.862  0.00  0.00     0.083 A 
ATOM     10  O   UNL d   1     -54.754 -98.907 -44.693  0.00  0.00    -0.265 OA
ATOM     11  C   UNL d   1     -54.795-102.436 -45.166  0.00  0.00     0.003 A 
ATOM     12  C   UNL d   1     -54.824-101.595 -46.576  0.00  0.00     0.019 A 
ATOM     13  C   UNL d   1     -54.816-102.836 -45.881  0.00  0.00     0.000 A 
ATOM     14  C   UNL d   1     -54.831-102.407 -46.586  0.00  0.00     0.002 A 
ENDROOT
BRANCH   6  15
ATOM     15  S   UNL d   1     -54.713-102.869 -41.837  0.00  0.00    -0.044 SA
BRANCH  15  16
ATOM     16  C   UNL d   1     -54.868-102.873 -40.920  0.00  0.00     0.099 C 
BRANCH  16  17
ATOM     17  C   UNL d   1     -55.008-102.068 -40.474  0.00  0.00     0.272 C 
ATOM     18  N   UNL d   1     -55.055-102.049 -39.553  0.00  0.00    -0.267 N 
ATOM     19  C   UNL d   1     -55.191-101.266 -39.117  0.00  0.00     0.110 A 
ATOM     20  C   UNL d   1     -54.962-102.835 -39.086  0.00  0.00     0.110 A 
ATOM     21  C   UNL d   1     -55.239-101.242 -38.188  0.00  0.00     0.142 A 
ATOM     22  O   UNL d   1     -55.148-102.021 -37.712  0.00  0.00    -0.300 OA
ATOM     23  C   UNL d   1     -55.008-102.826 -38.159  0.00  0.00     0.142 A 
ATOM     24  O   UNL d   1     -55.101-101.281 -40.946  0.00  0.00    -0.266 OA
ENDBRANCH  16  17
ENDBRANCH  15  16
ENDBRANCH   6  15
BRANCH   3  25
ATOM     25  C   UNL d   1     -54.711 -99.020 -42.991  0.00  0.00     0.085 C 
ATOM     26  C   UNL d   1     -55.250 -98.992 -42.242  0.00  0.00     0.021 C 
ENDBRANCH   3  25
TORSDOF 4
ENDMDL
