MODEL 1
REMARK VINA RESULT:      18.2      0.000      0.000
REMARK  3 active torsions:
REMARK  status: ('A' for Active; 'I' for Inactive)
REMARK    1  A    between atoms: N_3  and  C_1 
REMARK    2  A    between atoms: C_5  and  C_2 
REMARK       I    between atoms: C_4  and  N_3 
REMARK    3  A    between atoms: C_10  and  C_4 
ROOT
ATOM      1  N   UNL d   1      58.176  49.585  50.494  0.00  0.00    -0.201 NA
ATOM      2  C   UNL d   1      58.697  49.649  51.133  0.00  0.00     0.280 C 
ATOM      3  O   UNL d   1      58.405  49.707  51.901  0.00  0.00    -0.265 OA
ENDROOT
BRANCH   1   4
ATOM      4  C   UNL d   1      57.363  49.578  50.629  0.00  0.00     0.119 A 
ATOM      5  C   UNL d   1      56.777  49.440  50.061  0.00  0.00     0.084 A 
ATOM      6  C   UNL d   1      56.036  49.485  50.440  0.00  0.00     0.014 A 
ATOM      7  C   UNL d   1      56.173  49.651  51.238  0.00  0.00     0.037 A 
ATOM      8  S   UNL d   1      56.989  49.708  51.350  0.00  0.00    -0.067 SA
BRANCH   5   9
ATOM      9  C   UNL d   1      56.898  49.283  49.260  0.00  0.00     0.299 C 
ATOM     10  O   UNL d   1      57.487  49.697  48.846  0.00  0.00    -0.264 OA
ATOM     11  N   UNL d   1      56.435  48.719  48.871  0.00  0.00    -0.102 N 
ENDBRANCH   5   9
ENDBRANCH   1   4
BRANCH   2  12
ATOM     12  C   UNL d   1      59.507  49.655  50.994  0.00  0.00     0.058 A 
ATOM     13  C   UNL d   1      59.786  49.658  50.219  0.00  0.00     0.005 A 
ATOM     14  C   UNL d   1      60.605  49.664  50.086  0.00  0.00     0.000 A 
ATOM     15  C   UNL d   1      61.131  49.668  50.718  0.00  0.00     0.000 A 
ATOM     16  C   UNL d   1      60.840  49.665  51.490  0.00  0.00     0.000 A 
ATOM     17  C   UNL d   1      60.026  49.659  51.631  0.00  0.00     0.005 A 
ENDBRANCH   2  12
TORSDOF 3
ENDMDL
