MODEL 1
REMARK VINA RESULT:      21.0      0.000      0.000
REMARK  5 active torsions:
REMARK  status: ('A' for Active; 'I' for Inactive)
REMARK    1  A    between atoms: N_2  and  C_1 
REMARK    2  A    between atoms: N_3  and  C_1 
REMARK       I    between atoms: C_6  and  N_3 
REMARK    3  A    between atoms: C_12  and  C_6 
REMARK    4  A    between atoms: O_11  and  C_12 
REMARK    5  A    between atoms: C_13  and  O_11 
ROOT
ATOM      1  C   UNL d   1      13.462  11.922  -2.366  0.00  0.00     0.209 C 
ATOM      2  S   UNL d   1      12.870  11.782  -1.819  0.00  0.00    -0.038 SA
ENDROOT
BRANCH   1   3
ATOM      3  N   UNL d   1      13.259  12.209  -3.116  0.00  0.00    -0.282 N 
ATOM      4  C   UNL d   1      13.422  12.956  -3.413  0.00  0.00     0.066 A 
ATOM      5  C   UNL d   1      13.121  13.004  -4.177  0.00  0.00     0.018 A 
ATOM      6  C   UNL d   1      13.811  13.604  -3.079  0.00  0.00     0.018 A 
ATOM      7  C   UNL d   1      13.209  13.700  -4.610  0.00  0.00     0.002 A 
ATOM      8  C   UNL d   1      12.772  12.287  -4.352  0.00  0.00     0.021 A 
ATOM      9  C   UNL d   1      13.601  14.361  -4.280  0.00  0.00     0.000 A 
ATOM     10  C   UNL d   1      13.901  14.313  -3.516  0.00  0.00     0.002 A 
ATOM     11  C   UNL d   1      12.855  11.791  -3.698  0.00  0.00     0.082 A 
ENDBRANCH   1   3
BRANCH   1  12
ATOM     12  N   UNL d   1      14.245  11.780  -2.176  0.00  0.00    -0.178 NA
ATOM     13  C   UNL d   1      14.529  11.967  -1.420  0.00  0.00     0.306 C 
ATOM     14  O   UNL d   1      15.318  11.822  -1.232  0.00  0.00    -0.263 OA
BRANCH  13  15
ATOM     15  C   UNL d   1      14.027  12.292  -0.865  0.00  0.00     0.185 C 
BRANCH  15  16
ATOM     16  O   UNL d   1      14.332  12.574  -0.153  0.00  0.00    -0.300 OA
BRANCH  16  17
ATOM     17  C   UNL d   1      14.615  13.353  -0.110  0.00  0.00     0.100 A 
ATOM     18  C   UNL d   1      15.421  13.492  -0.119  0.00  0.00     0.025 A 
ATOM     19  C   UNL d   1      15.707  14.266  -0.076  0.00  0.00     0.002 A 
ATOM     20  C   UNL d   1      15.177  14.899  -0.025  0.00  0.00     0.000 A 
ATOM     21  C   UNL d   1      14.366  14.755  -0.016  0.00  0.00     0.002 A 
ATOM     22  C   UNL d   1      14.080  13.982  -0.059  0.00  0.00     0.025 A 
ENDBRANCH  16  17
ENDBRANCH  15  16
ENDBRANCH  13  15
ENDBRANCH   1  12
TORSDOF 5
ENDMDL
