MODEL 1
REMARK VINA RESULT:      21.7      0.000      0.000
REMARK  3 active torsions:
REMARK  status: ('A' for Active; 'I' for Inactive)
REMARK    1  A    between atoms: S_9  and  C_3 
REMARK    2  A    between atoms: C_15  and  S_9 
REMARK    3  A    between atoms: C_11  and  C_15 
ROOT
ATOM      1  N   UNL d   1     -50.629  25.091  33.324  0.00  0.00    -0.263 N 
ATOM      2  C   UNL d   1     -49.804  24.971  33.337  0.00  0.00     0.202 A 
ATOM      3  C   UNL d   1     -50.982  24.337  33.321  0.00  0.00     0.202 A 
ATOM      4  N   UNL d   1     -49.652  24.163  33.341  0.00  0.00    -0.121 NA
ATOM      5  S   UNL d   1     -49.444  25.729  33.340  0.00  0.00    -0.047 SA
ATOM      6  N   UNL d   1     -50.387  23.769  33.331  0.00  0.00    -0.121 NA
ATOM      7  C   UNL d   1     -50.774  25.903  33.320  0.00  0.00     0.074 A 
ATOM      8  C   UNL d   1     -50.050  26.300  33.330  0.00  0.00     0.049 A 
ATOM      9  C   UNL d   1     -51.478  26.330  33.309  0.00  0.00     0.018 A 
ATOM     10  C   UNL d   1     -50.034  27.112  33.328  0.00  0.00     0.008 A 
ATOM     11  C   UNL d   1     -51.456  27.155  33.307  0.00  0.00     0.002 A 
ATOM     12  C   UNL d   1     -50.728  27.544  33.317  0.00  0.00     0.001 A 
ENDROOT
BRANCH   3  13
ATOM     13  S   UNL d   1     -51.787  24.192  33.309  0.00  0.00    -0.047 SA
BRANCH  13  14
ATOM     14  C   UNL d   1     -52.072  23.440  33.477  0.00  0.00     0.045 C 
BRANCH  14  15
ATOM     15  C   UNL d   1     -52.811  23.349  33.835  0.00  0.00     0.036 A 
ATOM     16  S   UNL d   1     -52.955  23.326  34.650  0.00  0.00    -0.086 SA
ATOM     17  C   UNL d   1     -53.763  23.228  34.755  0.00  0.00     0.035 A 
ATOM     18  C   UNL d   1     -54.124  23.190  34.016  0.00  0.00     0.007 A 
ATOM     19  C   UNL d   1     -53.529  23.266  33.449  0.00  0.00     0.007 A 
ENDBRANCH  14  15
ENDBRANCH  13  14
ENDBRANCH   3  13
TORSDOF 3
ENDMDL
