MODEL 1
REMARK VINA RESULT:      22.1      0.000      0.000
REMARK  1 active torsions:
REMARK  status: ('A' for Active; 'I' for Inactive)
REMARK    1  A    between atoms: C_5  and  C_8 
ROOT
ATOM      1  C   UNL d   1     -57.800 -99.069 -43.946  0.00  0.00     0.084 A 
ATOM      2  C   UNL d   1     -58.168 -99.015 -44.680  0.00  0.00     0.057 A 
ATOM      3  N   UNL d   1     -58.243 -99.001 -43.257  0.00  0.00    -0.245 NA
ATOM      4  C   UNL d   1     -58.978 -98.893 -44.734  0.00  0.00     0.199 A 
ATOM      5  C   UNL d   1     -59.426 -98.825 -44.044  0.00  0.00     0.061 A 
ATOM      6  C   UNL d   1     -59.058 -98.879 -43.310  0.00  0.00     0.085 A 
ATOM      7  C   UNL d   1     -56.540 -99.259 -44.586  0.00  0.00     0.073 A 
ATOM      8  C   UNL d   1     -56.983 -99.191 -43.898  0.00  0.00     0.023 A 
ATOM      9  C   UNL d   1     -57.721 -99.083 -45.370  0.00  0.00     0.005 A 
ATOM     10  O   UNL d   1     -59.339 -98.840 -45.473  0.00  0.00    -0.286 OA
ATOM     11  C   UNL d   1     -56.910 -99.205 -45.324  0.00  0.00     0.004 A 
ATOM     12  C   UNL d   1     -59.508 -98.810 -42.618  0.00  0.00     0.021 C 
ENDROOT
BRANCH   7  13
ATOM     13  C   UNL d   1     -55.722 -99.382 -44.544  0.00  0.00     0.419 C 
ATOM     14  F   UNL d   1     -54.982 -99.495 -44.507  0.00  0.00    -0.166 F 
ATOM     15  F   UNL d   1     -55.089 -98.801 -44.499  0.00  0.00    -0.166 F 
ATOM     16  F   UNL d   1     -55.287-100.122 -44.535  0.00  0.00    -0.166 F 
ENDBRANCH   7  13
TORSDOF 1
ENDMDL
MODEL 2
REMARK VINA RESULT:      24.5      2.348      3.216
REMARK  1 active torsions:
REMARK  status: ('A' for Active; 'I' for Inactive)
REMARK    1  A    between atoms: C_5  and  C_8 
ROOT
ATOM      1  C   UNL d   1     -56.796 -98.783 -43.922  0.00  0.00     0.084 A 
ATOM      2  C   UNL d   1     -56.574 -98.771 -44.714  0.00  0.00     0.057 A 
ATOM      3  N   UNL d   1     -56.222 -98.791 -43.334  0.00  0.00    -0.245 NA
ATOM      4  C   UNL d   1     -55.782 -98.767 -44.928  0.00  0.00     0.199 A 
ATOM      5  C   UNL d   1     -55.203 -98.775 -44.339  0.00  0.00     0.061 A 
ATOM      6  C   UNL d   1     -55.424 -98.787 -43.547  0.00  0.00     0.085 A 
ATOM      7  C   UNL d   1     -58.171 -98.779 -44.301  0.00  0.00     0.073 A 
ATOM      8  C   UNL d   1     -57.597 -98.787 -43.714  0.00  0.00     0.023 A 
ATOM      9  C   UNL d   1     -57.152 -98.763 -45.303  0.00  0.00     0.005 A 
ATOM     10  O   UNL d   1     -55.567 -98.755 -45.723  0.00  0.00    -0.286 OA
ATOM     11  C   UNL d   1     -57.948 -98.767 -45.099  0.00  0.00     0.004 A 
ATOM     12  C   UNL d   1     -54.843 -98.795 -42.956  0.00  0.00     0.021 C 
ENDROOT
BRANCH   7  13
ATOM     13  C   UNL d   1     -58.974 -98.782 -44.099  0.00  0.00     0.419 C 
ATOM     14  F   UNL d   1     -59.700 -98.786 -43.914  0.00  0.00    -0.166 F 
ATOM     15  F   UNL d   1     -59.662 -98.759 -44.615  0.00  0.00    -0.166 F 
ATOM     16  F   UNL d   1     -59.334 -98.811 -43.320  0.00  0.00    -0.166 F 
ENDBRANCH   7  13
TORSDOF 1
ENDMDL
