MODEL 1
REMARK VINA RESULT:      57.9      0.000      0.000
REMARK  3 active torsions:
REMARK  status: ('A' for Active; 'I' for Inactive)
REMARK    1  A    between atoms: C_2  and  C_1 
REMARK       I    between atoms: N_7  and  C_2 
REMARK    2  A    between atoms: C_9  and  N_7 
REMARK    3  A    between atoms: O_13  and  C_11 
ROOT
ATOM      1  C   UNL d   1     -46.934  31.639  35.696  0.00  0.00     0.280 C 
ATOM      2  N   UNL d   1     -46.718  30.909  36.003  0.00  0.00    -0.208 NA
ATOM      3  O   UNL d   1     -46.573  32.325  35.971  0.00  0.00    -0.265 OA
ENDROOT
BRANCH   1   4
ATOM      4  C   UNL d   1     -47.514  31.686  35.109  0.00  0.00     0.065 A 
ATOM      5  C   UNL d   1     -47.587  32.275  34.542  0.00  0.00     0.011 A 
ATOM      6  C   UNL d   1     -48.241  32.107  34.067  0.00  0.00     0.030 A 
ATOM      7  C   UNL d   1     -47.134  32.949  34.400  0.00  0.00     0.001 A 
ATOM      8  C   UNL d   1     -48.443  32.613  33.449  0.00  0.00     0.006 A 
ATOM      9  S   UNL d   1     -48.588  31.401  34.337  0.00  0.00    -0.086 SA
ATOM     10  C   UNL d   1     -47.991  33.288  33.306  0.00  0.00     0.001 A 
ATOM     11  C   UNL d   1     -47.336  33.456  33.781  0.00  0.00     0.000 A 
ATOM     12  C   UNL d   1     -48.144  31.132  34.982  0.00  0.00     0.040 A 
ENDBRANCH   1   4
BRANCH   2  13
ATOM     13  C   UNL d   1     -47.083  30.214  35.724  0.00  0.00     0.087 A 
ATOM     14  C   UNL d   1     -47.687  29.870  36.166  0.00  0.00     0.043 A 
ATOM     15  C   UNL d   1     -48.048  29.177  35.886  0.00  0.00     0.096 A 
ATOM     16  C   UNL d   1     -47.803  28.840  35.170  0.00  0.00     0.024 A 
ATOM     17  C   UNL d   1     -47.194  29.197  34.736  0.00  0.00     0.004 A 
ATOM     18  C   UNL d   1     -46.834  29.882  35.010  0.00  0.00     0.019 A 
BRANCH  15  19
ATOM     19  O   UNL d   1     -48.651  28.833  36.327  0.00  0.00    -0.328 OA
ATOM     20  C   UNL d   1     -48.985  28.116  36.091  0.00  0.00     0.181 C 
ENDBRANCH  15  19
ENDBRANCH   2  13
TORSDOF 3
ENDMDL
MODEL 2
REMARK VINA RESULT:      59.0      1.128      3.455
REMARK  3 active torsions:
REMARK  status: ('A' for Active; 'I' for Inactive)
REMARK    1  A    between atoms: C_2  and  C_1 
REMARK       I    between atoms: N_7  and  C_2 
REMARK    2  A    between atoms: C_9  and  N_7 
REMARK    3  A    between atoms: O_13  and  C_11 
ROOT
ATOM      1  C   UNL d   1     -46.853  31.490  35.910  0.00  0.00     0.280 C 
ATOM      2  N   UNL d   1     -46.866  32.256  35.615  0.00  0.00    -0.208 NA
ATOM      3  O   UNL d   1     -46.576  31.345  36.670  0.00  0.00    -0.265 OA
ENDROOT
BRANCH   1   4
ATOM      4  C   UNL d   1     -47.119  30.863  35.441  0.00  0.00     0.065 A 
ATOM      5  C   UNL d   1     -47.485  30.178  35.707  0.00  0.00     0.011 A 
ATOM      6  C   UNL d   1     -47.660  29.700  35.056  0.00  0.00     0.030 A 
ATOM      7  C   UNL d   1     -47.683  29.929  36.468  0.00  0.00     0.001 A 
ATOM      8  C   UNL d   1     -48.032  28.973  35.166  0.00  0.00     0.006 A 
ATOM      9  S   UNL d   1     -47.400  30.088  34.368  0.00  0.00    -0.086 SA
ATOM     10  C   UNL d   1     -48.230  28.723  35.927  0.00  0.00     0.001 A 
ATOM     11  C   UNL d   1     -48.055  29.201  36.577  0.00  0.00     0.000 A 
ATOM     12  C   UNL d   1     -47.064  30.809  34.596  0.00  0.00     0.040 A 
ENDBRANCH   1   4
BRANCH   2  13
ATOM     13  C   UNL d   1     -47.147  32.404  34.845  0.00  0.00     0.087 A 
ATOM     14  C   UNL d   1     -47.915  32.683  34.742  0.00  0.00     0.043 A 
ATOM     15  C   UNL d   1     -48.192  32.829  33.973  0.00  0.00     0.096 A 
ATOM     16  C   UNL d   1     -47.700  32.695  33.322  0.00  0.00     0.024 A 
ATOM     17  C   UNL d   1     -46.929  32.413  33.440  0.00  0.00     0.004 A 
ATOM     18  C   UNL d   1     -46.652  32.268  34.199  0.00  0.00     0.019 A 
BRANCH  15  19
ATOM     19  O   UNL d   1     -48.959  33.108  33.871  0.00  0.00    -0.328 OA
ATOM     20  C   UNL d   1     -49.120  33.688  33.306  0.00  0.00     0.181 C 
ENDBRANCH  15  19
ENDBRANCH   2  13
TORSDOF 3
ENDMDL
