MODEL 1
REMARK VINA RESULT:      -3.3      0.000      0.000
REMARK  4 active torsions:
REMARK  status: ('A' for Active; 'I' for Inactive)
REMARK    1  A    between atoms: C_8  and  N_1 
REMARK    2  A    between atoms: C_6  and  C_5 
REMARK    3  A    between atoms: C_7  and  C_6 
REMARK       I    between atoms: N_10  and  C_7 
REMARK    4  A    between atoms: C_13  and  N_10 
ROOT
ATOM      1  N   UNL d   1      32.931  21.061 -21.631  0.00  0.00    -0.236 N 
ATOM      2  C   UNL d   1      33.102  20.410 -21.155  0.00  0.00     0.298 A 
ATOM      3  C   UNL d   1      32.961  20.825 -22.413  0.00  0.00     0.274 A 
ATOM      4  S   UNL d   1      33.240  19.766 -21.654  0.00  0.00    -0.022 SA
ATOM      5  C   UNL d   1      33.152  20.023 -22.434  0.00  0.00     0.095 A 
ATOM      6  O   UNL d   1      33.133  20.397 -20.330  0.00  0.00    -0.259 OA
ATOM      7  O   UNL d   1      32.826  21.300 -23.073  0.00  0.00    -0.266 OA
ENDROOT
BRANCH   5   8
ATOM      8  C   UNL d   1      33.241  19.557 -23.111  0.00  0.00     0.074 C 
BRANCH   8   9
ATOM      9  C   UNL d   1      32.988  18.778 -23.105  0.00  0.00     0.280 C 
ATOM     10  N   UNL d   1      32.637  18.452 -23.776  0.00  0.00    -0.208 NA
ATOM     11  O   UNL d   1      33.084  18.319 -22.425  0.00  0.00    -0.265 OA
BRANCH  10  12
ATOM     12  C   UNL d   1      32.381  17.668 -23.772  0.00  0.00     0.085 A 
ATOM     13  C   UNL d   1      31.575  17.496 -23.796  0.00  0.00     0.019 A 
ATOM     14  C   UNL d   1      31.319  16.710 -23.793  0.00  0.00     0.002 A 
ATOM     15  C   UNL d   1      31.864  16.093 -23.765  0.00  0.00     0.000 A 
ATOM     16  C   UNL d   1      32.680  16.279 -23.741  0.00  0.00     0.002 A 
ATOM     17  C   UNL d   1      32.927  17.054 -23.745  0.00  0.00     0.019 A 
ENDBRANCH  10  12
ENDBRANCH   8   9
ENDBRANCH   5   8
BRANCH   1  18
ATOM     18  C   UNL d   1      32.758  21.823 -21.365  0.00  0.00     0.070 A 
ATOM     19  C   UNL d   1      32.149  21.944 -20.819  0.00  0.00     0.018 A 
ATOM     20  C   UNL d   1      31.980  22.707 -20.557  0.00  0.00     0.002 A 
ATOM     21  C   UNL d   1      32.412  23.345 -20.834  0.00  0.00     0.000 A 
ATOM     22  C   UNL d   1      33.024  23.225 -21.382  0.00  0.00     0.002 A 
ATOM     23  C   UNL d   1      33.195  22.465 -21.646  0.00  0.00     0.018 A 
ENDBRANCH   1  18
TORSDOF 4
ENDMDL
MODEL 2
REMARK VINA RESULT:      -3.0      1.088      5.142
REMARK  4 active torsions:
REMARK  status: ('A' for Active; 'I' for Inactive)
REMARK    1  A    between atoms: C_8  and  N_1 
REMARK    2  A    between atoms: C_6  and  C_5 
REMARK    3  A    between atoms: C_7  and  C_6 
REMARK       I    between atoms: N_10  and  C_7 
REMARK    4  A    between atoms: C_13  and  N_10 
ROOT
ATOM      1  N   UNL d   1      32.267  17.910 -23.817  0.00  0.00    -0.236 N 
ATOM      2  C   UNL d   1      32.344  18.619 -24.229  0.00  0.00     0.298 A 
ATOM      3  C   UNL d   1      32.590  18.007 -23.072  0.00  0.00     0.274 A 
ATOM      4  S   UNL d   1      32.719  19.159 -23.729  0.00  0.00    -0.022 SA
ATOM      5  C   UNL d   1      32.872  18.780 -23.011  0.00  0.00     0.095 A 
ATOM      6  O   UNL d   1      32.094  18.770 -25.002  0.00  0.00    -0.259 OA
ATOM      7  O   UNL d   1      32.630  17.437 -22.479  0.00  0.00    -0.266 OA
ENDROOT
BRANCH   5   8
ATOM      8  C   UNL d   1      33.241  19.118 -22.353  0.00  0.00     0.074 C 
BRANCH   8   9
ATOM      9  C   UNL d   1      33.114  19.907 -22.177  0.00  0.00     0.280 C 
ATOM     10  N   UNL d   1      32.892  20.130 -21.414  0.00  0.00    -0.208 NA
ATOM     11  O   UNL d   1      33.210  20.481 -22.763  0.00  0.00    -0.265 OA
BRANCH  10  12
ATOM     12  C   UNL d   1      32.764  20.924 -21.234  0.00  0.00     0.085 A 
ATOM     13  C   UNL d   1      33.241  21.304 -20.678  0.00  0.00     0.019 A 
ATOM     14  C   UNL d   1      33.113  22.100 -20.497  0.00  0.00     0.002 A 
ATOM     15  C   UNL d   1      32.510  22.521 -20.869  0.00  0.00     0.000 A 
ATOM     16  C   UNL d   1      32.032  22.126 -21.431  0.00  0.00     0.002 A 
ATOM     17  C   UNL d   1      32.163  21.342 -21.605  0.00  0.00     0.019 A 
ENDBRANCH  10  12
ENDBRANCH   8   9
ENDBRANCH   5   8
BRANCH   1  18
ATOM     18  C   UNL d   1      31.924  17.217 -24.105  0.00  0.00     0.070 A 
ATOM     19  C   UNL d   1      32.324  16.756 -24.663  0.00  0.00     0.018 A 
ATOM     20  C   UNL d   1      31.976  16.065 -24.947  0.00  0.00     0.002 A 
ATOM     21  C   UNL d   1      31.237  15.833 -24.681  0.00  0.00     0.000 A 
ATOM     22  C   UNL d   1      30.834  16.295 -24.121  0.00  0.00     0.002 A 
ATOM     23  C   UNL d   1      31.179  16.985 -23.835  0.00  0.00     0.018 A 
ENDBRANCH   1  18
TORSDOF 4
ENDMDL
MODEL 3
REMARK VINA RESULT:      -1.3      2.840      5.575
REMARK  4 active torsions:
REMARK  status: ('A' for Active; 'I' for Inactive)
REMARK    1  A    between atoms: C_8  and  N_1 
REMARK    2  A    between atoms: C_6  and  C_5 
REMARK    3  A    between atoms: C_7  and  C_6 
REMARK       I    between atoms: N_10  and  C_7 
REMARK    4  A    between atoms: C_13  and  N_10 
ROOT
ATOM      1  N   UNL d   1      29.635  16.129 -23.667  0.00  0.00    -0.236 N 
ATOM      2  C   UNL d   1      30.154  15.834 -23.100  0.00  0.00     0.298 A 
ATOM      3  C   UNL d   1      30.074  16.461 -24.273  0.00  0.00     0.274 A 
ATOM      4  S   UNL d   1      30.923  15.987 -23.362  0.00  0.00    -0.022 SA
ATOM      5  C   UNL d   1      30.873  16.375 -24.089  0.00  0.00     0.095 A 
ATOM      6  O   UNL d   1      29.951  15.453 -22.396  0.00  0.00    -0.259 OA
ATOM      7  O   UNL d   1      29.776  16.820 -24.952  0.00  0.00    -0.266 OA
ENDROOT
BRANCH   5   8
ATOM      8  C   UNL d   1      31.512  16.631 -24.548  0.00  0.00     0.074 C 
BRANCH   8   9
ATOM      9  C   UNL d   1      32.007  17.217 -24.263  0.00  0.00     0.280 C 
ATOM     10  N   UNL d   1      31.744  17.998 -24.222  0.00  0.00    -0.208 NA
ATOM     11  O   UNL d   1      32.772  17.026 -24.016  0.00  0.00    -0.265 OA
BRANCH  10  12
ATOM     12  C   UNL d   1      32.242  18.590 -23.936  0.00  0.00     0.085 A 
ATOM     13  C   UNL d   1      32.310  18.715 -23.124  0.00  0.00     0.019 A 
ATOM     14  C   UNL d   1      32.809  19.309 -22.837  0.00  0.00     0.002 A 
ATOM     15  C   UNL d   1      33.241  19.779 -23.358  0.00  0.00     0.000 A 
ATOM     16  C   UNL d   1      33.164  19.643 -24.180  0.00  0.00     0.002 A 
ATOM     17  C   UNL d   1      32.671  19.057 -24.457  0.00  0.00     0.019 A 
ENDBRANCH  10  12
ENDBRANCH   8   9
ENDBRANCH   5   8
BRANCH   1  18
ATOM     18  C   UNL d   1      28.811  16.097 -23.632  0.00  0.00     0.070 A 
ATOM     19  C   UNL d   1      28.390  16.675 -23.216  0.00  0.00     0.018 A 
ATOM     20  C   UNL d   1      27.567  16.638 -23.184  0.00  0.00     0.002 A 
ATOM     21  C   UNL d   1      27.165  16.034 -23.562  0.00  0.00     0.000 A 
ATOM     22  C   UNL d   1      27.586  15.453 -23.981  0.00  0.00     0.002 A 
ATOM     23  C   UNL d   1      28.407  15.487 -24.014  0.00  0.00     0.018 A 
ENDBRANCH   1  18
TORSDOF 4
ENDMDL
MODEL 4
REMARK VINA RESULT:      -1.2      1.103      4.985
REMARK  4 active torsions:
REMARK  status: ('A' for Active; 'I' for Inactive)
REMARK    1  A    between atoms: C_8  and  N_1 
REMARK    2  A    between atoms: C_6  and  C_5 
REMARK    3  A    between atoms: C_7  and  C_6 
REMARK       I    between atoms: N_10  and  C_7 
REMARK    4  A    between atoms: C_13  and  N_10 
ROOT
ATOM      1  N   UNL d   1      32.234  17.644 -23.541  0.00  0.00    -0.236 N 
ATOM      2  C   UNL d   1      32.725  17.576 -22.883  0.00  0.00     0.298 A 
ATOM      3  C   UNL d   1      32.363  18.375 -23.886  0.00  0.00     0.274 A 
ATOM      4  S   UNL d   1      33.162  18.275 -22.824  0.00  0.00    -0.022 SA
ATOM      5  C   UNL d   1      32.938  18.770 -23.446  0.00  0.00     0.095 A 
ATOM      6  O   UNL d   1      32.778  16.929 -22.371  0.00  0.00    -0.259 OA
ATOM      7  O   UNL d   1      31.988  18.671 -24.557  0.00  0.00    -0.266 OA
ENDROOT
BRANCH   5   8
ATOM      8  C   UNL d   1      33.237  19.526 -23.596  0.00  0.00     0.074 C 
BRANCH   8   9
ATOM      9  C   UNL d   1      33.184  20.106 -23.021  0.00  0.00     0.280 C 
ATOM     10  N   UNL d   1      33.107  20.898 -23.238  0.00  0.00    -0.208 NA
ATOM     11  O   UNL d   1      33.208  19.898 -22.222  0.00  0.00    -0.265 OA
BRANCH  10  12
ATOM     12  C   UNL d   1      33.053  21.484 -22.661  0.00  0.00     0.085 A 
ATOM     13  C   UNL d   1      32.811  22.246 -22.866  0.00  0.00     0.019 A 
ATOM     14  C   UNL d   1      32.757  22.833 -22.287  0.00  0.00     0.002 A 
ATOM     15  C   UNL d   1      32.945  22.665 -21.503  0.00  0.00     0.000 A 
ATOM     16  C   UNL d   1      33.189  21.889 -21.306  0.00  0.00     0.002 A 
ATOM     17  C   UNL d   1      33.240  21.315 -21.880  0.00  0.00     0.019 A 
ENDBRANCH  10  12
ENDBRANCH   8   9
ENDBRANCH   5   8
BRANCH   1  18
ATOM     18  C   UNL d   1      31.701  17.074 -23.809  0.00  0.00     0.070 A 
ATOM     19  C   UNL d   1      31.918  16.554 -24.414  0.00  0.00     0.018 A 
ATOM     20  C   UNL d   1      31.382  15.986 -24.677  0.00  0.00     0.002 A 
ATOM     21  C   UNL d   1      30.637  15.934 -24.344  0.00  0.00     0.000 A 
ATOM     22  C   UNL d   1      30.417  16.455 -23.736  0.00  0.00     0.002 A 
ATOM     23  C   UNL d   1      30.950  17.023 -23.471  0.00  0.00     0.018 A 
ENDBRANCH   1  18
TORSDOF 4
ENDMDL
