MODEL 1
REMARK VINA RESULT:      46.3      0.000      0.000
REMARK  3 active torsions:
REMARK  status: ('A' for Active; 'I' for Inactive)
REMARK    1  A    between atoms: C_4  and  C_1 
REMARK       I    between atoms: N_7  and  C_4 
REMARK    2  A    between atoms: C_9  and  N_7 
REMARK    3  A    between atoms: N_8  and  C_11 
ROOT
ATOM      1  C   UNL d   1      13.607  12.233  -2.675  0.00  0.00     0.263 C 
ATOM      2  N   UNL d   1      13.800  13.002  -2.893  0.00  0.00    -0.210 NA
ATOM      3  O   UNL d   1      13.098  11.779  -3.143  0.00  0.00    -0.270 OA
ENDROOT
BRANCH   1   4
ATOM      4  C   UNL d   1      14.021  12.108  -1.968  0.00  0.00     0.113 A 
ATOM      5  C   UNL d   1      14.981  11.936  -0.949  0.00  0.00     0.025 A 
ATOM      6  C   UNL d   1      14.342  12.001  -1.366  0.00  0.00     0.074 A 
ATOM      7  C   UNL d   1      15.812  11.954  -0.944  0.00  0.00     0.002 C 
ATOM      8  C   UNL d   1      14.988  11.782  -0.135  0.00  0.00     0.002 C 
ATOM      9  C   UNL d   1      14.211  11.846  -0.564  0.00  0.00     0.012 C 
ATOM     10  C   UNL d   1      14.459  12.136  -2.065  0.00  0.00    -0.023 A 
ATOM     11  C   UNL d   1      13.522  11.943  -1.155  0.00  0.00     0.172 A 
ATOM     12  C   UNL d   1      14.264  12.256  -2.718  0.00  0.00    -0.018 A 
ATOM     13  C   UNL d   1      13.308  12.049  -1.741  0.00  0.00     0.024 A 
ATOM     14  O   UNL d   1      13.139  11.798  -0.435  0.00  0.00    -0.291 OA
ENDBRANCH   1   4
BRANCH   2  15
ATOM     15  C   UNL d   1      13.478  13.322  -3.590  0.00  0.00     0.100 A 
ATOM     16  C   UNL d   1      13.559  14.130  -3.735  0.00  0.00     0.082 A 
ATOM     17  C   UNL d   1      13.241  14.446  -4.424  0.00  0.00     0.019 A 
ATOM     18  C   UNL d   1      12.843  13.961  -4.969  0.00  0.00     0.002 A 
ATOM     19  C   UNL d   1      12.769  13.154  -4.811  0.00  0.00     0.002 A 
ATOM     20  C   UNL d   1      13.085  12.835  -4.124  0.00  0.00     0.021 A 
BRANCH  16  21
ATOM     21  N   UNL d   1      13.955  14.612  -3.193  0.00  0.00    -0.302 N 
ATOM     22  C   UNL d   1      14.759  14.794  -3.213  0.00  0.00     0.080 A 
ATOM     23  C   UNL d   1      14.925  15.292  -2.568  0.00  0.00     0.021 A 
ATOM     24  C   UNL d   1      14.217  15.413  -2.157  0.00  0.00     0.021 A 
ATOM     25  C   UNL d   1      13.616  14.992  -2.542  0.00  0.00     0.080 A 
ENDBRANCH  16  21
ENDBRANCH   2  15
TORSDOF 3
ENDMDL
