MODEL 1
REMARK VINA RESULT:      81.5      0.000      0.000
REMARK  7 active torsions:
REMARK  status: ('A' for Active; 'I' for Inactive)
REMARK    1  A    between atoms: S_10  and  C_5 
REMARK    2  A    between atoms: C_11  and  N_8 
REMARK    3  A    between atoms: C_15  and  S_10 
REMARK    4  A    between atoms: C_19  and  C_11 
REMARK    5  A    between atoms: C_14  and  C_15 
REMARK    6  A    between atoms: C_17  and  C_14 
REMARK    7  A    between atoms: C_20  and  C_19 
ROOT
ATOM      1  C   UNL d   1      60.337  49.297  50.503  0.00  0.00     0.174 A 
ATOM      2  C   UNL d   1      60.493  49.242  51.311  0.00  0.00     0.159 A 
ATOM      3  N   UNL d   1      59.545  49.480  50.404  0.00  0.00    -0.203 NA
ATOM      4  N   UNL d   1      60.954  49.170  49.946  0.00  0.00    -0.239 N 
ATOM      5  C   UNL d   1      59.238  49.531  51.177  0.00  0.00     0.181 A 
ATOM      6  C   UNL d   1      61.692  48.996  50.188  0.00  0.00     0.358 A 
ATOM      7  N   UNL d   1      61.854  48.939  51.027  0.00  0.00    -0.152 NA
ATOM      8  N   UNL d   1      59.794  49.392  51.693  0.00  0.00    -0.279 N 
ATOM      9  C   UNL d   1      61.269  49.059  51.578  0.00  0.00     0.302 A 
ATOM     10  O   UNL d   1      62.286  48.874  49.619  0.00  0.00    -0.244 OA
ATOM     11  O   UNL d   1      61.451  48.998  52.381  0.00  0.00    -0.263 OA
ATOM     12  C   UNL d   1      60.823  49.219  49.132  0.00  0.00     0.105 C 
ENDROOT
BRANCH   5  13
ATOM     13  S   UNL d   1      58.443  49.707  51.365  0.00  0.00    -0.046 SA
BRANCH  13  14
ATOM     14  C   UNL d   1      57.864  49.702  50.782  0.00  0.00     0.080 C 
BRANCH  14  15
ATOM     15  C   UNL d   1      57.181  49.238  50.874  0.00  0.00     0.202 C 
ATOM     16  O   UNL d   1      56.847  49.174  51.610  0.00  0.00    -0.286 OA
BRANCH  15  17
ATOM     17  C   UNL d   1      56.854  48.853  50.222  0.00  0.00     0.040 A 
ATOM     18  C   UNL d   1      56.998  48.064  50.089  0.00  0.00     0.003 A 
ATOM     19  C   UNL d   1      56.672  47.679  49.438  0.00  0.00     0.000 A 
ATOM     20  C   UNL d   1      56.185  48.097  48.901  0.00  0.00     0.000 A 
ATOM     21  C   UNL d   1      56.048  48.893  49.049  0.00  0.00     0.000 A 
ATOM     22  C   UNL d   1      56.375  49.273  49.698  0.00  0.00     0.003 A 
ENDBRANCH  15  17
ENDBRANCH  14  15
ENDBRANCH  13  14
ENDBRANCH   5  13
BRANCH   8  23
ATOM     23  C   UNL d   1      59.678  49.398  52.536  0.00  0.00     0.082 C 
BRANCH  23  24
ATOM     24  C   UNL d   1      58.926  49.379  52.870  0.00  0.00     0.019 C 
BRANCH  24  25
ATOM     25  C   UNL d   1      58.820  49.269  53.647  0.00  0.00     0.002 C 
ATOM     26  C   UNL d   1      58.066  49.109  53.939  0.00  0.00     0.000 C 
ATOM     27  C   UNL d   1      59.431  49.309  54.155  0.00  0.00     0.000 C 
ENDBRANCH  24  25
ENDBRANCH  23  24
ENDBRANCH   8  23
TORSDOF 7
ENDMDL
