MODEL 1
REMARK VINA RESULT:      -3.8      0.000      0.000
REMARK  6 active torsions:
REMARK  status: ('A' for Active; 'I' for Inactive)
REMARK       I    between atoms: C_2  and  N_1 
REMARK    1  A    between atoms: C_3  and  C_2 
REMARK    2  A    between atoms: C_12  and  C_4 
REMARK       I    between atoms: C_5  and  N_8 
REMARK    3  A    between atoms: C_6  and  C_5 
REMARK       I    between atoms: N_9  and  C_6 
REMARK    4  A    between atoms: N_8  and  C_12 
REMARK    5  A    between atoms: C_19  and  N_9 
REMARK    6  A    between atoms: C_21  and  C_19 
ROOT
ATOM      1  C   UNL d   1      58.035   0.366  31.760  0.00  0.00     0.337 C 
ATOM      2  N   UNL d   1      58.439   0.110  31.094  0.00  0.00    -0.199 NA
ATOM      3  O   UNL d   1      58.451   0.682  32.394  0.00  0.00    -0.260 OA
ENDROOT
BRANCH   2   4
ATOM      4  C   UNL d   1      58.023  -0.207  30.459  0.00  0.00     0.146 C 
BRANCH   4   5
ATOM      5  C   UNL d   1      58.402  -0.298  29.724  0.00  0.00     0.190 A 
ATOM      6  N   UNL d   1      58.611  -1.020  29.389  0.00  0.00    -0.250 N 
ATOM      7  C   UNL d   1      58.520  -1.802  29.649  0.00  0.00     0.272 C 
ATOM      8  C   UNL d   1      58.971  -0.852  28.663  0.00  0.00     0.112 A 
ATOM      9  O   UNL d   1      58.158  -1.953  30.377  0.00  0.00    -0.266 OA
ATOM     10  C   UNL d   1      58.980  -0.037  28.559  0.00  0.00     0.144 A 
ATOM     11  O   UNL d   1      58.623   0.301  29.227  0.00  0.00    -0.285 OA
BRANCH   7  12
ATOM     12  C   UNL d   1      58.788  -2.427  29.188  0.00  0.00     0.086 A 
ATOM     13  S   UNL d   1      59.543  -2.607  28.894  0.00  0.00    -0.082 SA
ATOM     14  C   UNL d   1      59.479  -3.318  28.457  0.00  0.00     0.036 A 
ATOM     15  C   UNL d   1      58.691  -3.562  28.491  0.00  0.00     0.008 A 
ATOM     16  C   UNL d   1      58.264  -3.019  28.937  0.00  0.00     0.012 A 
ENDBRANCH   7  12
ENDBRANCH   4   5
ENDBRANCH   2   4
BRANCH   1  17
ATOM     17  C   UNL d   1      57.211   0.309  31.799  0.00  0.00     0.337 C 
ATOM     18  N   UNL d   1      56.848  -0.117  32.403  0.00  0.00    -0.202 NA
ATOM     19  O   UNL d   1      56.751   0.682  31.228  0.00  0.00    -0.260 OA
BRANCH  18  20
ATOM     20  C   UNL d   1      56.030  -0.171  32.438  0.00  0.00     0.102 C 
BRANCH  20  21
ATOM     21  C   UNL d   1      55.614  -0.001  33.149  0.00  0.00     0.019 A 
ATOM     22  C   UNL d   1      55.854  -0.358  33.845  0.00  0.00     0.002 A 
ATOM     23  C   UNL d   1      55.442  -0.189  34.548  0.00  0.00     0.000 A 
ATOM     24  C   UNL d   1      54.808   0.323  34.543  0.00  0.00     0.000 A 
ATOM     25  C   UNL d   1      54.572   0.682  33.822  0.00  0.00     0.000 A 
ATOM     26  C   UNL d   1      54.987   0.511  33.124  0.00  0.00     0.002 A 
ENDBRANCH  20  21
ENDBRANCH  18  20
ENDBRANCH   1  17
TORSDOF 6
ENDMDL
MODEL 2
REMARK VINA RESULT:      -3.7      1.550      1.863
REMARK  6 active torsions:
REMARK  status: ('A' for Active; 'I' for Inactive)
REMARK       I    between atoms: C_2  and  N_1 
REMARK    1  A    between atoms: C_3  and  C_2 
REMARK    2  A    between atoms: C_12  and  C_4 
REMARK       I    between atoms: C_5  and  N_8 
REMARK    3  A    between atoms: C_6  and  C_5 
REMARK       I    between atoms: N_9  and  C_6 
REMARK    4  A    between atoms: N_8  and  C_12 
REMARK    5  A    between atoms: C_19  and  N_9 
REMARK    6  A    between atoms: C_21  and  C_19 
ROOT
ATOM      1  C   UNL d   1      56.936  -0.716  31.564  0.00  0.00     0.337 C 
ATOM      2  N   UNL d   1      57.454  -0.710  30.929  0.00  0.00    -0.199 NA
ATOM      3  O   UNL d   1      56.587  -1.421  31.801  0.00  0.00    -0.260 OA
ENDROOT
BRANCH   2   4
ATOM      4  C   UNL d   1      57.803  -0.004  30.691  0.00  0.00     0.146 C 
BRANCH   4   5
ATOM      5  C   UNL d   1      57.951   0.131  29.884  0.00  0.00     0.190 A 
ATOM      6  N   UNL d   1      58.682   0.039  29.518  0.00  0.00    -0.250 N 
ATOM      7  C   UNL d   1      59.424  -0.192  29.807  0.00  0.00     0.272 C 
ATOM      8  C   UNL d   1      58.577   0.229  28.721  0.00  0.00     0.112 A 
ATOM      9  O   UNL d   1      59.514  -0.380  30.608  0.00  0.00    -0.266 OA
ATOM     10  C   UNL d   1      57.790   0.435  28.604  0.00  0.00     0.144 A 
ATOM     11  O   UNL d   1      57.406   0.370  29.336  0.00  0.00    -0.285 OA
BRANCH   7  12
ATOM     12  C   UNL d   1      60.072  -0.236  29.303  0.00  0.00     0.086 A 
ATOM     13  S   UNL d   1      60.563   0.355  28.989  0.00  0.00    -0.082 SA
ATOM     14  C   UNL d   1      61.133  -0.023  28.507  0.00  0.00     0.036 A 
ATOM     15  C   UNL d   1      60.984  -0.834  28.533  0.00  0.00     0.008 A 
ATOM     16  C   UNL d   1      60.334  -0.970  29.019  0.00  0.00     0.012 A 
ENDBRANCH   7  12
ENDBRANCH   4   5
ENDBRANCH   2   4
BRANCH   1  17
ATOM     17  C   UNL d   1      56.760  -0.017  31.970  0.00  0.00     0.337 C 
ATOM     18  N   UNL d   1      56.210  -0.013  32.582  0.00  0.00    -0.202 NA
ATOM     19  O   UNL d   1      57.139   0.682  31.758  0.00  0.00    -0.260 OA
BRANCH  18  20
ATOM     20  C   UNL d   1      56.038   0.681  32.982  0.00  0.00     0.102 C 
BRANCH  20  21
ATOM     21  C   UNL d   1      55.582   0.675  33.689  0.00  0.00     0.019 A 
ATOM     22  C   UNL d   1      54.766   0.672  33.634  0.00  0.00     0.002 A 
ATOM     23  C   UNL d   1      54.314   0.666  34.332  0.00  0.00     0.000 A 
ATOM     24  C   UNL d   1      54.680   0.663  35.061  0.00  0.00     0.000 A 
ATOM     25  C   UNL d   1      55.518   0.666  35.103  0.00  0.00     0.000 A 
ATOM     26  C   UNL d   1      55.964   0.672  34.403  0.00  0.00     0.002 A 
ENDBRANCH  20  21
ENDBRANCH  18  20
ENDBRANCH   1  17
TORSDOF 6
ENDMDL
