MODEL 1
REMARK VINA RESULT:      -9.4      0.000      0.000
REMARK  5 active torsions:
REMARK  status: ('A' for Active; 'I' for Inactive)
REMARK       I    between atoms: C_6  and  N_1 
REMARK    1  A    between atoms: C_7  and  C_3 
REMARK    2  A    between atoms: C_8  and  C_4 
REMARK    3  A    between atoms: C_11  and  C_6 
REMARK    4  A    between atoms: C_9  and  C_17 
REMARK    5  A    between atoms: C_17  and  C_11 
ROOT
ATOM      1  N   UNL d   1      52.678  32.678  53.365  0.00  0.00    -0.195 N 
ATOM      2  N   UNL d   1      51.975  32.685  52.954  0.00  0.00    -0.163 NA
ATOM      3  C   UNL d   1      51.739  33.447  52.961  0.00  0.00     0.103 A 
ATOM      4  C   UNL d   1      52.864  33.404  53.613  0.00  0.00     0.088 A 
ATOM      5  C   UNL d   1      52.305  33.904  53.380  0.00  0.00     0.040 A 
ATOM      6  C   UNL d   1      53.127  31.999  53.499  0.00  0.00     0.281 C 
ATOM      7  O   UNL d   1      53.836  32.046  53.923  0.00  0.00    -0.265 OA
ENDROOT
BRANCH   4   8
ATOM      8  C   UNL d   1      53.578  33.505  54.050  0.00  0.00     0.018 A 
ATOM      9  C   UNL d   1      53.519  33.547  54.879  0.00  0.00     0.002 A 
ATOM     10  C   UNL d   1      54.213  33.644  55.285  0.00  0.00     0.007 A 
ATOM     11  C   UNL d   1      54.929  33.698  54.936  0.00  0.00     0.035 A 
ATOM     12  C   UNL d   1      54.976  33.655  54.104  0.00  0.00     0.007 A 
ATOM     13 BR   UNL d   1      55.627  33.800  55.422  0.00  0.00    -0.049 Br
ATOM     14  C   UNL d   1      54.263  33.554  53.666  0.00  0.00     0.002 A 
ENDBRANCH   4   8
BRANCH   6  15
ATOM     15  C   UNL d   1      52.846  31.246  53.190  0.00  0.00     0.069 C 
BRANCH  15  16
ATOM     16  C   UNL d   1      53.238  30.546  53.416  0.00  0.00     0.075 C 
BRANCH  16  17
ATOM     17  C   UNL d   1      52.937  29.813  53.204  0.00  0.00     0.211 C 
ATOM     18  O   UNL d   1      52.660  29.295  53.797  0.00  0.00    -0.644 OA
ATOM     19  O   UNL d   1      52.908  29.585  52.411  0.00  0.00    -0.644 OA
ENDBRANCH  16  17
ENDBRANCH  15  16
ENDBRANCH   6  15
BRANCH   3  20
ATOM     20  C   UNL d   1      51.069  33.819  52.639  0.00  0.00     0.019 A 
ATOM     21  C   UNL d   1      51.021  33.963  51.837  0.00  0.00     0.002 A 
ATOM     22  C   UNL d   1      50.356  34.332  51.521  0.00  0.00     0.007 A 
ATOM     23  C   UNL d   1      49.737  34.556  52.019  0.00  0.00     0.035 A 
ATOM     24  C   UNL d   1      49.778  34.413  52.837  0.00  0.00     0.007 A 
ATOM     25 BR   UNL d   1      49.011  34.954  51.706  0.00  0.00    -0.049 Br
ATOM     26  C   UNL d   1      50.450  34.042  53.137  0.00  0.00     0.002 A 
ENDBRANCH   3  20
TORSDOF 5
ENDMDL
MODEL 2
REMARK VINA RESULT:      -8.4      1.495      2.959
REMARK  5 active torsions:
REMARK  status: ('A' for Active; 'I' for Inactive)
REMARK       I    between atoms: C_6  and  N_1 
REMARK    1  A    between atoms: C_7  and  C_3 
REMARK    2  A    between atoms: C_8  and  C_4 
REMARK    3  A    between atoms: C_11  and  C_6 
REMARK    4  A    between atoms: C_9  and  C_17 
REMARK    5  A    between atoms: C_17  and  C_11 
ROOT
ATOM      1  N   UNL d   1      53.033  32.589  53.673  0.00  0.00    -0.195 N 
ATOM      2  N   UNL d   1      52.659  33.294  53.516  0.00  0.00    -0.163 NA
ATOM      3  C   UNL d   1      51.988  33.093  53.134  0.00  0.00     0.103 A 
ATOM      4  C   UNL d   1      52.610  31.980  53.399  0.00  0.00     0.088 A 
ATOM      5  C   UNL d   1      51.958  32.257  53.060  0.00  0.00     0.040 A 
ATOM      6  C   UNL d   1      53.757  32.527  54.065  0.00  0.00     0.281 C 
ATOM      7  O   UNL d   1      54.095  31.784  54.200  0.00  0.00    -0.265 OA
ENDROOT
BRANCH   4   8
ATOM      8  C   UNL d   1      52.913  31.202  53.512  0.00  0.00     0.018 A 
ATOM      9  C   UNL d   1      52.683  30.794  54.200  0.00  0.00     0.002 A 
ATOM     10  C   UNL d   1      52.982  30.048  54.293  0.00  0.00     0.007 A 
ATOM     11  C   UNL d   1      53.473  29.696  53.771  0.00  0.00     0.035 A 
ATOM     12  C   UNL d   1      53.697  30.114  53.084  0.00  0.00     0.007 A 
ATOM     13 BR   UNL d   1      53.755  28.903  53.928  0.00  0.00    -0.049 Br
ATOM     14  C   UNL d   1      53.395  30.893  52.971  0.00  0.00     0.002 A 
ENDBRANCH   4   8
BRANCH   6  15
ATOM     15  C   UNL d   1      54.149  33.247  54.330  0.00  0.00     0.069 C 
BRANCH  15  16
ATOM     16  C   UNL d   1      54.793  33.184  54.854  0.00  0.00     0.075 C 
BRANCH  16  17
ATOM     17  C   UNL d   1      55.145  33.858  55.164  0.00  0.00     0.211 C 
ATOM     18  O   UNL d   1      55.817  34.181  54.788  0.00  0.00    -0.644 OA
ATOM     19  O   UNL d   1      54.840  34.216  55.842  0.00  0.00    -0.644 OA
ENDBRANCH  16  17
ENDBRANCH  15  16
ENDBRANCH   6  15
BRANCH   3  20
ATOM     20  C   UNL d   1      51.370  33.554  52.826  0.00  0.00     0.019 A 
ATOM     21  C   UNL d   1      51.436  33.895  52.087  0.00  0.00     0.002 A 
ATOM     22  C   UNL d   1      50.820  34.352  51.785  0.00  0.00     0.007 A 
ATOM     23  C   UNL d   1      50.136  34.463  52.232  0.00  0.00     0.035 A 
ATOM     24  C   UNL d   1      50.060  34.119  52.985  0.00  0.00     0.007 A 
ATOM     25 BR   UNL d   1      49.460  34.949  51.931  0.00  0.00    -0.049 Br
ATOM     26  C   UNL d   1      50.685  33.665  53.273  0.00  0.00     0.002 A 
ENDBRANCH   3  20
TORSDOF 5
ENDMDL
MODEL 3
REMARK VINA RESULT:      -7.3      2.254      4.728
REMARK  5 active torsions:
REMARK  status: ('A' for Active; 'I' for Inactive)
REMARK       I    between atoms: C_6  and  N_1 
REMARK    1  A    between atoms: C_7  and  C_3 
REMARK    2  A    between atoms: C_8  and  C_4 
REMARK    3  A    between atoms: C_11  and  C_6 
REMARK    4  A    between atoms: C_9  and  C_17 
REMARK    5  A    between atoms: C_17  and  C_11 
ROOT
ATOM      1  N   UNL d   1      52.189  33.595  53.279  0.00  0.00    -0.195 N 
ATOM      2  N   UNL d   1      52.754  33.071  53.544  0.00  0.00    -0.163 NA
ATOM      3  C   UNL d   1      52.504  32.355  53.300  0.00  0.00     0.103 A 
ATOM      4  C   UNL d   1      51.617  33.215  52.889  0.00  0.00     0.088 A 
ATOM      5  C   UNL d   1      51.780  32.446  52.883  0.00  0.00     0.040 A 
ATOM      6  C   UNL d   1      52.219  34.410  53.405  0.00  0.00     0.281 C 
ATOM      7  O   UNL d   1      51.618  34.898  53.114  0.00  0.00    -0.265 OA
ENDROOT
BRANCH   4   8
ATOM      8  C   UNL d   1      50.981  33.669  52.572  0.00  0.00     0.018 A 
ATOM      9  C   UNL d   1      50.325  33.809  53.064  0.00  0.00     0.002 A 
ATOM     10  C   UNL d   1      49.723  34.246  52.746  0.00  0.00     0.007 A 
ATOM     11  C   UNL d   1      49.730  34.541  52.003  0.00  0.00     0.035 A 
ATOM     12  C   UNL d   1      50.394  34.394  51.518  0.00  0.00     0.007 A 
ATOM     13 BR   UNL d   1      49.062  34.996  51.725  0.00  0.00    -0.049 Br
ATOM     14  C   UNL d   1      51.030  33.940  51.835  0.00  0.00     0.002 A 
ENDBRANCH   4   8
BRANCH   6  15
ATOM     15  C   UNL d   1      52.884  34.739  53.843  0.00  0.00     0.069 C 
BRANCH  15  16
ATOM     16  C   UNL d   1      52.891  35.555  54.010  0.00  0.00     0.075 C 
BRANCH  16  17
ATOM     17  C   UNL d   1      53.269  35.839  54.681  0.00  0.00     0.211 C 
ATOM     18  O   UNL d   1      53.244  36.656  54.851  0.00  0.00    -0.644 OA
ATOM     19  O   UNL d   1      53.673  35.326  55.184  0.00  0.00    -0.644 OA
ENDBRANCH  16  17
ENDBRANCH  15  16
ENDBRANCH   6  15
BRANCH   3  20
ATOM     20  C   UNL d   1      52.830  31.597  53.393  0.00  0.00     0.019 A 
ATOM     21  C   UNL d   1      53.411  31.461  53.950  0.00  0.00     0.002 A 
ATOM     22  C   UNL d   1      53.732  30.708  54.039  0.00  0.00     0.007 A 
ATOM     23  C   UNL d   1      53.464  30.090  53.563  0.00  0.00     0.035 A 
ATOM     24  C   UNL d   1      52.873  30.219  52.993  0.00  0.00     0.007 A 
ATOM     25 BR   UNL d   1      53.793  29.271  53.638  0.00  0.00    -0.049 Br
ATOM     26  C   UNL d   1      52.562  30.978  52.916  0.00  0.00     0.002 A 
ENDBRANCH   3  20
TORSDOF 5
ENDMDL
