MODEL 1
REMARK VINA RESULT:      -3.0      0.000      0.000
REMARK  3 active torsions:
REMARK  status: ('A' for Active; 'I' for Inactive)
REMARK    1  A    between atoms: S_15  and  C_3 
REMARK    2  A    between atoms: C_5  and  C_14 
REMARK    3  A    between atoms: C_14  and  S_15 
ROOT
ATOM      1  N   UNL d   1      58.173  -0.576  29.781  0.00  0.00    -0.263 N 
ATOM      2  C   UNL d   1      58.304  -0.036  29.156  0.00  0.00     0.202 A 
ATOM      3  C   UNL d   1      57.739  -0.169  30.354  0.00  0.00     0.202 A 
ATOM      4  N   UNL d   1      57.936   0.679  29.388  0.00  0.00    -0.121 NA
ATOM      5  S   UNL d   1      58.743  -0.412  28.552  0.00  0.00    -0.047 SA
ATOM      6  N   UNL d   1      57.603   0.613  30.087  0.00  0.00    -0.121 NA
ATOM      7  C   UNL d   1      58.534  -1.278  29.555  0.00  0.00     0.074 A 
ATOM      8  C   UNL d   1      58.881  -1.178  28.806  0.00  0.00     0.049 A 
ATOM      9  C   UNL d   1      58.594  -2.008  29.936  0.00  0.00     0.018 A 
ATOM     10  C   UNL d   1      59.280  -1.811  28.456  0.00  0.00     0.008 A 
ATOM     11  C   UNL d   1      58.995  -2.647  29.587  0.00  0.00     0.002 A 
ATOM     12  C   UNL d   1      59.343  -2.547  28.837  0.00  0.00     0.001 A 
ENDROOT
BRANCH   3  13
ATOM     13  S   UNL d   1      57.457  -0.493  31.128  0.00  0.00    -0.048 SA
BRANCH  13  14
ATOM     14  C   UNL d   1      56.941  -0.058  31.588  0.00  0.00     0.042 C 
BRANCH  14  15
ATOM     15  C   UNL d   1      56.780  -0.314  32.344  0.00  0.00     0.051 A 
ATOM     16  C   UNL d   1      56.301  -0.911  32.652  0.00  0.00     0.127 A 
ATOM     17  O   UNL d   1      56.359  -0.910  33.460  0.00  0.00    -0.211 OA
ATOM     18  C   UNL d   1      55.809  -1.458  32.177  0.00  0.00     0.029 C 
ATOM     19  N   UNL d   1      56.853  -0.339  33.666  0.00  0.00    -0.126 NA
ATOM     20  C   UNL d   1      57.131   0.049  32.990  0.00  0.00     0.111 A 
ATOM     21  C   UNL d   1      57.658   0.681  32.954  0.00  0.00     0.023 C 
ENDBRANCH  14  15
ENDBRANCH  13  14
ENDBRANCH   3  13
TORSDOF 3
ENDMDL
MODEL 2
REMARK VINA RESULT:      -1.8      1.679      4.235
REMARK  3 active torsions:
REMARK  status: ('A' for Active; 'I' for Inactive)
REMARK    1  A    between atoms: S_15  and  C_3 
REMARK    2  A    between atoms: C_5  and  C_14 
REMARK    3  A    between atoms: C_14  and  S_15 
ROOT
ATOM      1  N   UNL d   1      57.449   0.228  32.431  0.00  0.00    -0.263 N 
ATOM      2  C   UNL d   1      57.848   0.541  33.097  0.00  0.00     0.202 A 
ATOM      3  C   UNL d   1      58.006   0.195  31.822  0.00  0.00     0.202 A 
ATOM      4  N   UNL d   1      58.635   0.682  32.850  0.00  0.00    -0.121 NA
ATOM      5  S   UNL d   1      57.314   0.592  33.740  0.00  0.00    -0.047 SA
ATOM      6  N   UNL d   1      58.739   0.483  32.107  0.00  0.00    -0.121 NA
ATOM      7  C   UNL d   1      56.677   0.090  32.672  0.00  0.00     0.074 A 
ATOM      8  C   UNL d   1      56.595   0.311  33.469  0.00  0.00     0.049 A 
ATOM      9  C   UNL d   1      56.025  -0.213  32.265  0.00  0.00     0.018 A 
ATOM     10  C   UNL d   1      55.863   0.225  33.841  0.00  0.00     0.008 A 
ATOM     11  C   UNL d   1      55.287  -0.302  32.637  0.00  0.00     0.002 A 
ATOM     12  C   UNL d   1      55.204  -0.081  33.435  0.00  0.00     0.001 A 
ENDROOT
BRANCH   3  13
ATOM     13  S   UNL d   1      57.865  -0.096  30.998  0.00  0.00    -0.048 SA
BRANCH  13  14
ATOM     14  C   UNL d   1      58.488  -0.151  30.473  0.00  0.00     0.042 C 
BRANCH  14  15
ATOM     15  C   UNL d   1      58.374  -0.543  29.768  0.00  0.00     0.051 A 
ATOM     16  C   UNL d   1      58.252  -1.336  29.572  0.00  0.00     0.127 A 
ATOM     17  O   UNL d   1      58.172  -1.403  28.769  0.00  0.00    -0.211 OA
ATOM     18  C   UNL d   1      58.217  -1.996  30.145  0.00  0.00     0.029 C 
ATOM     19  N   UNL d   1      58.238  -0.687  28.459  0.00  0.00    -0.126 NA
ATOM     20  C   UNL d   1      58.365  -0.132  29.060  0.00  0.00     0.111 A 
ATOM     21  C   UNL d   1      58.464   0.682  28.979  0.00  0.00     0.023 C 
ENDBRANCH  14  15
ENDBRANCH  13  14
ENDBRANCH   3  13
TORSDOF 3
ENDMDL
MODEL 3
REMARK VINA RESULT:      -1.1      1.907      4.040
REMARK  3 active torsions:
REMARK  status: ('A' for Active; 'I' for Inactive)
REMARK    1  A    between atoms: S_15  and  C_3 
REMARK    2  A    between atoms: C_5  and  C_14 
REMARK    3  A    between atoms: C_14  and  S_15 
ROOT
ATOM      1  N   UNL d   1      58.102  -0.533  30.158  0.00  0.00    -0.263 N 
ATOM      2  C   UNL d   1      58.146   0.294  30.042  0.00  0.00     0.202 A 
ATOM      3  C   UNL d   1      58.588  -0.874  29.584  0.00  0.00     0.202 A 
ATOM      4  N   UNL d   1      58.664   0.410  29.395  0.00  0.00    -0.121 NA
ATOM      5  S   UNL d   1      57.664   0.679  30.608  0.00  0.00    -0.047 SA
ATOM      6  N   UNL d   1      58.928  -0.266  29.119  0.00  0.00    -0.121 NA
ATOM      7  C   UNL d   1      57.594  -0.648  30.792  0.00  0.00     0.074 A 
ATOM      8  C   UNL d   1      57.327   0.091  31.066  0.00  0.00     0.049 A 
ATOM      9  C   UNL d   1      57.333  -1.338  31.164  0.00  0.00     0.018 A 
ATOM     10  C   UNL d   1      56.806   0.122  31.706  0.00  0.00     0.008 A 
ATOM     11  C   UNL d   1      56.808  -1.310  31.808  0.00  0.00     0.002 A 
ATOM     12  C   UNL d   1      56.541  -0.571  32.083  0.00  0.00     0.001 A 
ENDROOT
BRANCH   3  13
ATOM     13  S   UNL d   1      58.734  -1.739  29.466  0.00  0.00    -0.048 SA
BRANCH  13  14
ATOM     14  C   UNL d   1      59.229  -1.991  28.867  0.00  0.00     0.042 C 
BRANCH  14  15
ATOM     15  C   UNL d   1      59.424  -2.781  28.827  0.00  0.00     0.051 A 
ATOM     16  C   UNL d   1      58.994  -3.464  28.654  0.00  0.00     0.127 A 
ATOM     17  O   UNL d   1      59.485  -4.107  28.697  0.00  0.00    -0.211 OA
ATOM     18  C   UNL d   1      58.142  -3.487  28.455  0.00  0.00     0.029 C 
ATOM     19  N   UNL d   1      60.200  -3.852  28.889  0.00  0.00    -0.126 NA
ATOM     20  C   UNL d   1      60.190  -3.029  28.976  0.00  0.00     0.111 A 
ATOM     21  C   UNL d   1      60.820  -2.537  29.175  0.00  0.00     0.023 C 
ENDBRANCH  14  15
ENDBRANCH  13  14
ENDBRANCH   3  13
TORSDOF 3
ENDMDL
MODEL 4
REMARK VINA RESULT:      -1.1      9.191      9.376
REMARK  3 active torsions:
REMARK  status: ('A' for Active; 'I' for Inactive)
REMARK    1  A    between atoms: S_15  and  C_3 
REMARK    2  A    between atoms: C_5  and  C_14 
REMARK    3  A    between atoms: C_14  and  S_15 
ROOT
ATOM      1  N   UNL d   1      58.116  -9.794  30.964  0.00  0.00    -0.263 N 
ATOM      2  C   UNL d   1      57.296  -9.776  30.803  0.00  0.00     0.202 A 
ATOM      3  C   UNL d   1      58.190  -9.799  31.787  0.00  0.00     0.202 A 
ATOM      4  N   UNL d   1      56.913  -9.772  31.547  0.00  0.00    -0.121 NA
ATOM      5  S   UNL d   1      57.177  -9.770  29.974  0.00  0.00    -0.047 SA
ATOM      6  N   UNL d   1      57.426  -9.785  32.129  0.00  0.00    -0.121 NA
ATOM      7  C   UNL d   1      58.493  -9.799  30.235  0.00  0.00     0.074 A 
ATOM      8  C   UNL d   1      57.920  -9.784  29.631  0.00  0.00     0.049 A 
ATOM      9  C   UNL d   1      59.293  -9.814  30.035  0.00  0.00     0.018 A 
ATOM     10  C   UNL d   1      58.163  -9.786  28.842  0.00  0.00     0.008 A 
ATOM     11  C   UNL d   1      59.541  -9.816  29.241  0.00  0.00     0.002 A 
ATOM     12  C   UNL d   1      58.969  -9.802  28.637  0.00  0.00     0.001 A 
ENDROOT
BRANCH   3  13
ATOM     13  S   UNL d   1      58.947  -9.817  32.246  0.00  0.00    -0.048 SA
BRANCH  13  14
ATOM     14  C   UNL d   1      58.994  -9.441  32.969  0.00  0.00     0.042 C 
BRANCH  14  15
ATOM     15  C   UNL d   1      59.682  -9.506  33.400  0.00  0.00     0.051 A 
ATOM     16  C   UNL d   1      60.482  -9.501  33.199  0.00  0.00     0.127 A 
ATOM     17  O   UNL d   1      60.928  -9.588  33.869  0.00  0.00    -0.211 OA
ATOM     18  C   UNL d   1      60.796  -9.414  32.386  0.00  0.00     0.029 C 
ATOM     19  N   UNL d   1      60.438  -9.648  34.478  0.00  0.00    -0.126 NA
ATOM     20  C   UNL d   1      59.656  -9.600  34.214  0.00  0.00     0.111 A 
ATOM     21  C   UNL d   1      58.970  -9.637  34.668  0.00  0.00     0.023 C 
ENDBRANCH  14  15
ENDBRANCH  13  14
ENDBRANCH   3  13
TORSDOF 3
ENDMDL
MODEL 5
REMARK VINA RESULT:      -0.3      2.214      4.360
REMARK  3 active torsions:
REMARK  status: ('A' for Active; 'I' for Inactive)
REMARK    1  A    between atoms: S_15  and  C_3 
REMARK    2  A    between atoms: C_5  and  C_14 
REMARK    3  A    between atoms: C_14  and  S_15 
ROOT
ATOM      1  N   UNL d   1      57.360  -0.031  32.023  0.00  0.00    -0.263 N 
ATOM      2  C   UNL d   1      56.644  -0.402  31.802  0.00  0.00     0.202 A 
ATOM      3  C   UNL d   1      57.836  -0.025  31.348  0.00  0.00     0.202 A 
ATOM      4  N   UNL d   1      56.727  -0.603  30.994  0.00  0.00    -0.121 NA
ATOM      5  S   UNL d   1      56.131  -0.428  32.463  0.00  0.00    -0.047 SA
ATOM      6  N   UNL d   1      57.420  -0.387  30.718  0.00  0.00    -0.121 NA
ATOM      7  C   UNL d   1      57.281   0.167  32.816  0.00  0.00     0.074 A 
ATOM      8  C   UNL d   1      56.531  -0.075  33.084  0.00  0.00     0.049 A 
ATOM      9  C   UNL d   1      57.798   0.541  33.339  0.00  0.00     0.018 A 
ATOM     10  C   UNL d   1      56.317   0.063  33.869  0.00  0.00     0.008 A 
ATOM     11  C   UNL d   1      57.585   0.682  34.131  0.00  0.00     0.002 A 
ATOM     12  C   UNL d   1      56.836   0.440  34.399  0.00  0.00     0.001 A 
ENDROOT
BRANCH   3  13
ATOM     13  S   UNL d   1      58.655   0.307  31.286  0.00  0.00    -0.048 SA
BRANCH  13  14
ATOM     14  C   UNL d   1      58.900   0.658  30.590  0.00  0.00     0.042 C 
BRANCH  14  15
ATOM     15  C   UNL d   1      59.695   0.660  30.412  0.00  0.00     0.051 A 
ATOM     16  C   UNL d   1      60.381   0.657  30.872  0.00  0.00     0.127 A 
ATOM     17  O   UNL d   1      61.028   0.662  30.386  0.00  0.00    -0.211 OA
ATOM     18  C   UNL d   1      60.400   0.649  31.747  0.00  0.00     0.029 C 
ATOM     19  N   UNL d   1      60.774   0.668  29.645  0.00  0.00    -0.126 NA
ATOM     20  C   UNL d   1      59.947   0.667  29.632  0.00  0.00     0.111 A 
ATOM     21  C   UNL d   1      59.455   0.673  28.972  0.00  0.00     0.023 C 
ENDBRANCH  14  15
ENDBRANCH  13  14
ENDBRANCH   3  13
TORSDOF 3
ENDMDL
