MODEL 1
REMARK VINA RESULT:      -7.7      0.000      0.000
REMARK  5 active torsions:
REMARK  status: ('A' for Active; 'I' for Inactive)
REMARK    1  A    between atoms: N_3  and  S_1 
REMARK    2  A    between atoms: C_5  and  S_1 
REMARK    3  A    between atoms: C_2  and  C_6 
REMARK       I    between atoms: N_4  and  C_2 
REMARK    4  A    between atoms: C_11  and  N_3 
REMARK    5  A    between atoms: O_18  and  C_14 
ROOT
ATOM      1  C   UNL d   1     -49.955  12.880  22.679  0.00  0.00     0.058 A 
ATOM      2  C   UNL d   1     -49.240  12.669  23.024  0.00  0.00     0.025 A 
ATOM      3  C   UNL d   1     -48.681  12.233  22.602  0.00  0.00     0.094 A 
ATOM      4  C   UNL d   1     -50.118  12.650  21.893  0.00  0.00     0.005 A 
ATOM      5  C   UNL d   1     -49.559  12.214  21.472  0.00  0.00     0.002 A 
ATOM      6  C   UNL d   1     -48.841  12.003  21.819  0.00  0.00     0.020 A 
ENDROOT
BRANCH   3   7
ATOM      7  N   UNL d   1     -47.966  12.023  22.948  0.00  0.00    -0.158 NA
BRANCH   7   8
ATOM      8  S   UNL d   1     -47.289  12.470  22.816  0.00  0.00     0.285 S 
ATOM      9  O   UNL d   1     -47.272  12.677  23.614  0.00  0.00    -0.198 OA
ATOM     10  O   UNL d   1     -47.298  12.271  22.023  0.00  0.00    -0.198 OA
BRANCH   8  11
ATOM     11  C   UNL d   1     -46.611  12.920  22.689  0.00  0.00     0.107 A 
ATOM     12  C   UNL d   1     -45.929  12.565  22.370  0.00  0.00     0.037 A 
ATOM     13  C   UNL d   1     -45.259  13.017  22.247  0.00  0.00     0.095 A 
ATOM     14  C   UNL d   1     -45.259  13.818  22.436  0.00  0.00     0.024 A 
ATOM     15  C   UNL d   1     -45.924  14.172  22.749  0.00  0.00     0.003 A 
ATOM     16  C   UNL d   1     -46.603  13.723  22.876  0.00  0.00     0.013 A 
BRANCH  13  17
ATOM     17  O   UNL d   1     -44.573  12.663  21.927  0.00  0.00    -0.328 OA
ATOM     18  C   UNL d   1     -44.047  13.115  21.453  0.00  0.00     0.181 C 
ENDBRANCH  13  17
ENDBRANCH   8  11
ENDBRANCH   7   8
ENDBRANCH   3   7
BRANCH   1  19
ATOM     19  C   UNL d   1     -50.508  13.314  23.107  0.00  0.00     0.265 C 
ATOM     20  N   UNL d   1     -50.510  14.141  23.053  0.00  0.00    -0.268 N 
ATOM     21  C   UNL d   1     -51.064  14.579  23.482  0.00  0.00     0.110 A 
ATOM     22  C   UNL d   1     -49.962  14.522  22.575  0.00  0.00     0.110 A 
ATOM     23  C   UNL d   1     -51.064  15.400  23.427  0.00  0.00     0.142 A 
ATOM     24  O   UNL d   1     -50.515  15.781  22.948  0.00  0.00    -0.300 OA
ATOM     25  C   UNL d   1     -49.962  15.352  22.520  0.00  0.00     0.142 A 
ATOM     26  O   UNL d   1     -51.056  12.933  23.584  0.00  0.00    -0.267 OA
ENDBRANCH   1  19
TORSDOF 5
ENDMDL
MODEL 2
REMARK VINA RESULT:      -7.1      1.495      1.894
REMARK  5 active torsions:
REMARK  status: ('A' for Active; 'I' for Inactive)
REMARK    1  A    between atoms: N_3  and  S_1 
REMARK    2  A    between atoms: C_5  and  S_1 
REMARK    3  A    between atoms: C_2  and  C_6 
REMARK       I    between atoms: N_4  and  C_2 
REMARK    4  A    between atoms: C_11  and  N_3 
REMARK    5  A    between atoms: O_18  and  C_14 
ROOT
ATOM      1  C   UNL d   1     -48.705  13.767  22.539  0.00  0.00     0.058 A 
ATOM      2  C   UNL d   1     -48.230  13.429  23.117  0.00  0.00     0.025 A 
ATOM      3  C   UNL d   1     -48.014  12.633  23.073  0.00  0.00     0.094 A 
ATOM      4  C   UNL d   1     -48.972  13.302  21.899  0.00  0.00     0.005 A 
ATOM      5  C   UNL d   1     -48.756  12.507  21.855  0.00  0.00     0.002 A 
ATOM      6  C   UNL d   1     -48.279  12.168  22.437  0.00  0.00     0.020 A 
ENDROOT
BRANCH   3   7
ATOM      7  N   UNL d   1     -47.539  12.296  23.652  0.00  0.00    -0.158 NA
BRANCH   7   8
ATOM      8  S   UNL d   1     -46.768  12.071  23.483  0.00  0.00     0.285 S 
ATOM      9  O   UNL d   1     -47.018  11.291  23.384  0.00  0.00    -0.198 OA
ATOM     10  O   UNL d   1     -46.510  12.840  23.578  0.00  0.00    -0.198 OA
BRANCH   8  11
ATOM     11  C   UNL d   1     -45.996  11.840  23.312  0.00  0.00     0.107 A 
ATOM     12  C   UNL d   1     -45.707  11.112  23.592  0.00  0.00     0.037 A 
ATOM     13  C   UNL d   1     -44.939  10.889  23.419  0.00  0.00     0.095 A 
ATOM     14  C   UNL d   1     -44.455  11.382  22.971  0.00  0.00     0.024 A 
ATOM     15  C   UNL d   1     -44.732  12.098  22.694  0.00  0.00     0.003 A 
ATOM     16  C   UNL d   1     -45.505  12.329  22.864  0.00  0.00     0.013 A 
BRANCH  13  17
ATOM     17  O   UNL d   1     -44.646  10.158  23.698  0.00  0.00    -0.328 OA
ATOM     18  C   UNL d   1     -43.948   9.829  23.366  0.00  0.00     0.181 C 
ENDBRANCH  13  17
ENDBRANCH   8  11
ENDBRANCH   7   8
ENDBRANCH   3   7
BRANCH   1  19
ATOM     19  C   UNL d   1     -48.915  14.561  22.590  0.00  0.00     0.265 C 
ATOM     20  N   UNL d   1     -49.625  14.774  22.961  0.00  0.00    -0.268 N 
ATOM     21  C   UNL d   1     -49.838  15.571  23.013  0.00  0.00     0.110 A 
ATOM     22  C   UNL d   1     -50.113  14.194  23.275  0.00  0.00     0.110 A 
ATOM     23  C   UNL d   1     -50.544  15.780  23.382  0.00  0.00     0.142 A 
ATOM     24  O   UNL d   1     -51.031  15.199  23.696  0.00  0.00    -0.300 OA
ATOM     25  C   UNL d   1     -50.826  14.406  23.648  0.00  0.00     0.142 A 
ATOM     26  O   UNL d   1     -48.427  15.141  22.275  0.00  0.00    -0.267 OA
ENDBRANCH   1  19
TORSDOF 5
ENDMDL
MODEL 3
REMARK VINA RESULT:      -6.9      1.263      2.087
REMARK  5 active torsions:
REMARK  status: ('A' for Active; 'I' for Inactive)
REMARK    1  A    between atoms: N_3  and  S_1 
REMARK    2  A    between atoms: C_5  and  S_1 
REMARK    3  A    between atoms: C_2  and  C_6 
REMARK       I    between atoms: N_4  and  C_2 
REMARK    4  A    between atoms: C_11  and  N_3 
REMARK    5  A    between atoms: O_18  and  C_14 
ROOT
ATOM      1  C   UNL d   1     -49.363  14.258  22.823  0.00  0.00     0.058 A 
ATOM      2  C   UNL d   1     -48.620  14.295  23.169  0.00  0.00     0.025 A 
ATOM      3  C   UNL d   1     -47.965  14.553  22.738  0.00  0.00     0.094 A 
ATOM      4  C   UNL d   1     -49.458  14.485  22.025  0.00  0.00     0.005 A 
ATOM      5  C   UNL d   1     -48.804  14.742  21.593  0.00  0.00     0.002 A 
ATOM      6  C   UNL d   1     -48.058  14.778  21.943  0.00  0.00     0.020 A 
ENDROOT
BRANCH   3   7
ATOM      7  N   UNL d   1     -47.222  14.589  23.085  0.00  0.00    -0.158 NA
BRANCH   7   8
ATOM      8  S   UNL d   1     -46.663  14.004  22.942  0.00  0.00     0.285 S 
ATOM      9  O   UNL d   1     -46.449  14.382  22.241  0.00  0.00    -0.198 OA
ATOM     10  O   UNL d   1     -46.869  13.622  23.635  0.00  0.00    -0.198 OA
BRANCH   8  11
ATOM     11  C   UNL d   1     -46.102  13.419  22.795  0.00  0.00     0.107 A 
ATOM     12  C   UNL d   1     -45.414  13.601  22.364  0.00  0.00     0.037 A 
ATOM     13  C   UNL d   1     -44.861  13.016  22.221  0.00  0.00     0.095 A 
ATOM     14  C   UNL d   1     -44.983  12.252  22.501  0.00  0.00     0.024 A 
ATOM     15  C   UNL d   1     -45.656  12.067  22.925  0.00  0.00     0.003 A 
ATOM     16  C   UNL d   1     -46.218  12.651  23.072  0.00  0.00     0.013 A 
BRANCH  13  17
ATOM     17  O   UNL d   1     -44.169  13.196  21.789  0.00  0.00    -0.328 OA
ATOM     18  C   UNL d   1     -43.660  12.579  21.532  0.00  0.00     0.181 C 
ENDBRANCH  13  17
ENDBRANCH   8  11
ENDBRANCH   7   8
ENDBRANCH   3   7
BRANCH   1  19
ATOM     19  C   UNL d   1     -50.010  14.000  23.260  0.00  0.00     0.265 C 
ATOM     20  N   UNL d   1     -50.213  13.197  23.258  0.00  0.00    -0.268 N 
ATOM     21  C   UNL d   1     -50.864  12.936  23.697  0.00  0.00     0.110 A 
ATOM     22  C   UNL d   1     -49.768  12.663  22.821  0.00  0.00     0.110 A 
ATOM     23  C   UNL d   1     -51.062  12.137  23.693  0.00  0.00     0.142 A 
ATOM     24  O   UNL d   1     -50.616  11.604  23.256  0.00  0.00    -0.300 OA
ATOM     25  C   UNL d   1     -49.970  11.856  22.818  0.00  0.00     0.142 A 
ATOM     26  O   UNL d   1     -50.456  14.534  23.696  0.00  0.00    -0.267 OA
ENDBRANCH   1  19
TORSDOF 5
ENDMDL
MODEL 4
REMARK VINA RESULT:      -6.1      9.185     10.524
REMARK  5 active torsions:
REMARK  status: ('A' for Active; 'I' for Inactive)
REMARK    1  A    between atoms: N_3  and  S_1 
REMARK    2  A    between atoms: C_5  and  S_1 
REMARK    3  A    between atoms: C_2  and  C_6 
REMARK       I    between atoms: N_4  and  C_2 
REMARK    4  A    between atoms: C_11  and  N_3 
REMARK    5  A    between atoms: O_18  and  C_14 
ROOT
ATOM      1  C   UNL d   1     -39.638  14.292  17.980  0.00  0.00     0.058 A 
ATOM      2  C   UNL d   1     -39.304  14.811  18.522  0.00  0.00     0.025 A 
ATOM      3  C   UNL d   1     -39.768  15.370  18.912  0.00  0.00     0.094 A 
ATOM      4  C   UNL d   1     -40.457  14.330  17.823  0.00  0.00     0.005 A 
ATOM      5  C   UNL d   1     -40.922  14.890  18.214  0.00  0.00     0.002 A 
ATOM      6  C   UNL d   1     -40.584  15.410  18.757  0.00  0.00     0.020 A 
ENDROOT
BRANCH   3   7
ATOM      7  N   UNL d   1     -39.433  15.889  19.453  0.00  0.00    -0.158 NA
BRANCH   7   8
ATOM      8  S   UNL d   1     -39.325  15.666  20.237  0.00  0.00     0.285 S 
ATOM      9  O   UNL d   1     -38.512  15.610  20.108  0.00  0.00    -0.198 OA
ATOM     10  O   UNL d   1     -40.129  15.720  20.374  0.00  0.00    -0.198 OA
BRANCH   8  11
ATOM     11  C   UNL d   1     -39.212  15.443  21.021  0.00  0.00     0.107 A 
ATOM     12  C   UNL d   1     -38.820  14.731  21.200  0.00  0.00     0.037 A 
ATOM     13  C   UNL d   1     -38.712  14.515  21.981  0.00  0.00     0.095 A 
ATOM     14  C   UNL d   1     -38.989  14.999  22.587  0.00  0.00     0.024 A 
ATOM     15  C   UNL d   1     -39.375  15.698  22.419  0.00  0.00     0.003 A 
ATOM     16  C   UNL d   1     -39.487  15.922  21.634  0.00  0.00     0.013 A 
BRANCH  13  17
ATOM     17  O   UNL d   1     -38.318  13.802  22.164  0.00  0.00    -0.328 OA
ATOM     18  C   UNL d   1     -38.619  13.295  22.762  0.00  0.00     0.181 C 
ENDBRANCH  13  17
ENDBRANCH   8  11
ENDBRANCH   7   8
ENDBRANCH   3   7
BRANCH   1  19
ATOM     19  C   UNL d   1     -39.169  13.737  17.595  0.00  0.00     0.265 C 
ATOM     20  N   UNL d   1     -38.796  13.938  16.883  0.00  0.00    -0.268 N 
ATOM     21  C   UNL d   1     -38.324  13.382  16.495  0.00  0.00     0.110 A 
ATOM     22  C   UNL d   1     -38.897  14.688  16.565  0.00  0.00     0.110 A 
ATOM     23  C   UNL d   1     -37.955  13.585  15.787  0.00  0.00     0.142 A 
ATOM     24  O   UNL d   1     -38.057  14.335  15.471  0.00  0.00    -0.300 OA
ATOM     25  C   UNL d   1     -38.524  14.893  15.850  0.00  0.00     0.142 A 
ATOM     26  O   UNL d   1     -39.067  12.987  17.913  0.00  0.00    -0.267 OA
ENDBRANCH   1  19
TORSDOF 5
ENDMDL
MODEL 5
REMARK VINA RESULT:      -6.1      9.255     10.582
REMARK  5 active torsions:
REMARK  status: ('A' for Active; 'I' for Inactive)
REMARK    1  A    between atoms: N_3  and  S_1 
REMARK    2  A    between atoms: C_5  and  S_1 
REMARK    3  A    between atoms: C_2  and  C_6 
REMARK       I    between atoms: N_4  and  C_2 
REMARK    4  A    between atoms: C_11  and  N_3 
REMARK    5  A    between atoms: O_18  and  C_14 
ROOT
ATOM      1  C   UNL d   1     -39.590  14.259  17.882  0.00  0.00     0.058 A 
ATOM      2  C   UNL d   1     -39.223  14.666  18.492  0.00  0.00     0.025 A 
ATOM      3  C   UNL d   1     -39.645  15.203  18.956  0.00  0.00     0.094 A 
ATOM      4  C   UNL d   1     -40.401  14.388  17.728  0.00  0.00     0.005 A 
ATOM      5  C   UNL d   1     -40.823  14.924  18.192  0.00  0.00     0.002 A 
ATOM      6  C   UNL d   1     -40.453  15.333  18.805  0.00  0.00     0.020 A 
ENDROOT
BRANCH   3   7
ATOM      7  N   UNL d   1     -39.277  15.610  19.566  0.00  0.00    -0.158 NA
BRANCH   7   8
ATOM      8  S   UNL d   1     -39.218  15.279  20.316  0.00  0.00     0.285 S 
ATOM      9  O   UNL d   1     -40.002  15.487  20.468  0.00  0.00    -0.198 OA
ATOM     10  O   UNL d   1     -38.441  15.069  20.175  0.00  0.00    -0.198 OA
BRANCH   8  11
ATOM     11  C   UNL d   1     -39.164  14.949  21.068  0.00  0.00     0.107 A 
ATOM     12  C   UNL d   1     -39.160  15.439  21.740  0.00  0.00     0.037 A 
ATOM     13  C   UNL d   1     -39.106  15.105  22.484  0.00  0.00     0.095 A 
ATOM     14  C   UNL d   1     -39.057  14.287  22.569  0.00  0.00     0.024 A 
ATOM     15  C   UNL d   1     -39.061  13.800  21.914  0.00  0.00     0.003 A 
ATOM     16  C   UNL d   1     -39.115  14.130  21.161  0.00  0.00     0.013 A 
BRANCH  13  17
ATOM     17  O   UNL d   1     -39.101  15.595  23.161  0.00  0.00    -0.328 OA
ATOM     18  C   UNL d   1     -38.372  15.832  23.505  0.00  0.00     0.181 C 
ENDBRANCH  13  17
ENDBRANCH   8  11
ENDBRANCH   7   8
ENDBRANCH   3   7
BRANCH   1  19
ATOM     19  C   UNL d   1     -39.162  13.726  17.424  0.00  0.00     0.265 C 
ATOM     20  N   UNL d   1     -38.764  13.992  16.748  0.00  0.00    -0.268 N 
ATOM     21  C   UNL d   1     -38.334  13.458  16.287  0.00  0.00     0.110 A 
ATOM     22  C   UNL d   1     -38.799  14.785  16.538  0.00  0.00     0.110 A 
ATOM     23  C   UNL d   1     -37.940  13.726  15.616  0.00  0.00     0.142 A 
ATOM     24  O   UNL d   1     -37.975  14.519  15.407  0.00  0.00    -0.300 OA
ATOM     25  C   UNL d   1     -38.400  15.055  15.860  0.00  0.00     0.142 A 
ATOM     26  O   UNL d   1     -39.128  12.933  17.634  0.00  0.00    -0.267 OA
ENDBRANCH   1  19
TORSDOF 5
ENDMDL
MODEL 6
REMARK VINA RESULT:      -5.8      1.798      4.973
REMARK  5 active torsions:
REMARK  status: ('A' for Active; 'I' for Inactive)
REMARK    1  A    between atoms: N_3  and  S_1 
REMARK    2  A    between atoms: C_5  and  S_1 
REMARK    3  A    between atoms: C_2  and  C_6 
REMARK       I    between atoms: N_4  and  C_2 
REMARK    4  A    between atoms: C_11  and  N_3 
REMARK    5  A    between atoms: O_18  and  C_14 
ROOT
ATOM      1  C   UNL d   1     -45.932  12.184  22.972  0.00  0.00     0.058 A 
ATOM      2  C   UNL d   1     -46.429  12.749  23.301  0.00  0.00     0.025 A 
ATOM      3  C   UNL d   1     -46.510  13.494  22.954  0.00  0.00     0.094 A 
ATOM      4  C   UNL d   1     -45.503  12.365  22.278  0.00  0.00     0.005 A 
ATOM      5  C   UNL d   1     -45.584  13.109  21.931  0.00  0.00     0.002 A 
ATOM      6  C   UNL d   1     -46.084  13.675  22.263  0.00  0.00     0.020 A 
ENDROOT
BRANCH   3   7
ATOM      7  N   UNL d   1     -47.007  14.058  23.283  0.00  0.00    -0.158 NA
BRANCH   7   8
ATOM      8  S   UNL d   1     -47.756  14.190  22.972  0.00  0.00     0.285 S 
ATOM      9  O   UNL d   1     -47.433  14.715  22.423  0.00  0.00    -0.198 OA
ATOM     10  O   UNL d   1     -48.084  13.672  23.512  0.00  0.00    -0.198 OA
BRANCH   8  11
ATOM     11  C   UNL d   1     -48.504  14.326  22.657  0.00  0.00     0.107 A 
ATOM     12  C   UNL d   1     -48.829  13.791  22.109  0.00  0.00     0.037 A 
ATOM     13  C   UNL d   1     -49.573  13.933  21.799  0.00  0.00     0.095 A 
ATOM     14  C   UNL d   1     -49.998  14.599  22.029  0.00  0.00     0.024 A 
ATOM     15  C   UNL d   1     -49.685  15.128  22.566  0.00  0.00     0.003 A 
ATOM     16  C   UNL d   1     -48.936  14.992  22.882  0.00  0.00     0.013 A 
BRANCH  13  17
ATOM     17  O   UNL d   1     -49.902  13.397  21.249  0.00  0.00    -0.328 OA
ATOM     18  C   UNL d   1     -50.516  12.874  21.484  0.00  0.00     0.181 C 
ENDBRANCH  13  17
ENDBRANCH   8  11
ENDBRANCH   7   8
ENDBRANCH   3   7
BRANCH   1  19
ATOM     19  C   UNL d   1     -45.857  11.445  23.324  0.00  0.00     0.265 C 
ATOM     20  N   UNL d   1     -45.118  11.068  23.335  0.00  0.00    -0.268 N 
ATOM     21  C   UNL d   1     -45.042  10.325  23.689  0.00  0.00     0.110 A 
ATOM     22  C   UNL d   1     -44.467  11.434  22.995  0.00  0.00     0.110 A 
ATOM     23  C   UNL d   1     -44.307   9.954  23.698  0.00  0.00     0.142 A 
ATOM     24  O   UNL d   1     -43.656  10.321  23.358  0.00  0.00    -0.300 OA
ATOM     25  C   UNL d   1     -43.725  11.058  23.005  0.00  0.00     0.142 A 
ATOM     26  O   UNL d   1     -46.508  11.079  23.664  0.00  0.00    -0.267 OA
ENDBRANCH   1  19
TORSDOF 5
ENDMDL
MODEL 7
REMARK VINA RESULT:      -5.5      8.102     10.253
REMARK  5 active torsions:
REMARK  status: ('A' for Active; 'I' for Inactive)
REMARK    1  A    between atoms: N_3  and  S_1 
REMARK    2  A    between atoms: C_5  and  S_1 
REMARK    3  A    between atoms: C_2  and  C_6 
REMARK       I    between atoms: N_4  and  C_2 
REMARK    4  A    between atoms: C_11  and  N_3 
REMARK    5  A    between atoms: O_18  and  C_14 
ROOT
ATOM      1  C   UNL d   1     -38.980  14.314  17.174  0.00  0.00     0.058 A 
ATOM      2  C   UNL d   1     -38.617  14.526  17.879  0.00  0.00     0.025 A 
ATOM      3  C   UNL d   1     -38.303  13.952  18.382  0.00  0.00     0.094 A 
ATOM      4  C   UNL d   1     -39.032  13.508  16.963  0.00  0.00     0.005 A 
ATOM      5  C   UNL d   1     -38.718  12.933  17.465  0.00  0.00     0.002 A 
ATOM      6  C   UNL d   1     -38.354  13.149  18.173  0.00  0.00     0.020 A 
ENDROOT
BRANCH   3   7
ATOM      7  N   UNL d   1     -37.940  14.165  19.086  0.00  0.00    -0.158 NA
BRANCH   7   8
ATOM      8  S   UNL d   1     -38.352  14.138  19.796  0.00  0.00     0.285 S 
ATOM      9  O   UNL d   1     -38.331  13.313  19.775  0.00  0.00    -0.198 OA
ATOM     10  O   UNL d   1     -38.379  14.954  19.825  0.00  0.00    -0.198 OA
BRANCH   8  11
ATOM     11  C   UNL d   1     -38.766  14.105  20.507  0.00  0.00     0.107 A 
ATOM     12  C   UNL d   1     -39.538  14.411  20.555  0.00  0.00     0.037 A 
ATOM     13  C   UNL d   1     -39.944  14.375  21.264  0.00  0.00     0.095 A 
ATOM     14  C   UNL d   1     -39.590  14.039  21.927  0.00  0.00     0.024 A 
ATOM     15  C   UNL d   1     -38.833  13.737  21.887  0.00  0.00     0.003 A 
ATOM     16  C   UNL d   1     -38.419  13.770  21.176  0.00  0.00     0.013 A 
BRANCH  13  17
ATOM     17  O   UNL d   1     -40.719  14.682  21.315  0.00  0.00    -0.328 OA
ATOM     18  C   UNL d   1     -41.368  14.239  21.018  0.00  0.00     0.181 C 
ENDBRANCH  13  17
ENDBRANCH   8  11
ENDBRANCH   7   8
ENDBRANCH   3   7
BRANCH   1  19
ATOM     19  C   UNL d   1     -39.291  14.893  16.679  0.00  0.00     0.265 C 
ATOM     20  N   UNL d   1     -40.084  15.119  16.758  0.00  0.00    -0.268 N 
ATOM     21  C   UNL d   1     -40.397  15.700  16.261  0.00  0.00     0.110 A 
ATOM     22  C   UNL d   1     -40.555  14.765  17.329  0.00  0.00     0.110 A 
ATOM     23  C   UNL d   1     -41.186  15.922  16.342  0.00  0.00     0.142 A 
ATOM     24  O   UNL d   1     -41.656  15.567  16.914  0.00  0.00    -0.300 OA
ATOM     25  C   UNL d   1     -41.352  14.990  17.411  0.00  0.00     0.142 A 
ATOM     26  O   UNL d   1     -38.819  15.246  16.107  0.00  0.00    -0.267 OA
ENDBRANCH   1  19
TORSDOF 5
ENDMDL
MODEL 8
REMARK VINA RESULT:      -5.0      8.937     10.148
REMARK  5 active torsions:
REMARK  status: ('A' for Active; 'I' for Inactive)
REMARK    1  A    between atoms: N_3  and  S_1 
REMARK    2  A    between atoms: C_5  and  S_1 
REMARK    3  A    between atoms: C_2  and  C_6 
REMARK       I    between atoms: N_4  and  C_2 
REMARK    4  A    between atoms: C_11  and  N_3 
REMARK    5  A    between atoms: O_18  and  C_14 
ROOT
ATOM      1  C   UNL d   1     -39.616  14.578  21.191  0.00  0.00     0.058 A 
ATOM      2  C   UNL d   1     -39.195  14.425  20.503  0.00  0.00     0.025 A 
ATOM      3  C   UNL d   1     -39.093  15.012  19.932  0.00  0.00     0.094 A 
ATOM      4  C   UNL d   1     -39.945  15.335  21.315  0.00  0.00     0.005 A 
ATOM      5  C   UNL d   1     -39.844  15.922  20.744  0.00  0.00     0.002 A 
ATOM      6  C   UNL d   1     -39.420  15.767  20.053  0.00  0.00     0.020 A 
ENDROOT
BRANCH   3   7
ATOM      7  N   UNL d   1     -38.672  14.859  19.244  0.00  0.00    -0.158 NA
BRANCH   7   8
ATOM      8  S   UNL d   1     -39.017  14.971  18.507  0.00  0.00     0.285 S 
ATOM      9  O   UNL d   1     -39.100  14.154  18.423  0.00  0.00    -0.198 OA
ATOM     10  O   UNL d   1     -38.939  15.781  18.581  0.00  0.00    -0.198 OA
BRANCH   8  11
ATOM     11  C   UNL d   1     -39.364  15.078  17.768  0.00  0.00     0.107 A 
ATOM     12  C   UNL d   1     -40.191  15.120  17.697  0.00  0.00     0.037 A 
ATOM     13  C   UNL d   1     -40.529  15.227  16.960  0.00  0.00     0.095 A 
ATOM     14  C   UNL d   1     -40.053  15.292  16.292  0.00  0.00     0.024 A 
ATOM     15  C   UNL d   1     -39.240  15.251  16.354  0.00  0.00     0.003 A 
ATOM     16  C   UNL d   1     -38.893  15.144  17.093  0.00  0.00     0.013 A 
BRANCH  13  17
ATOM     17  O   UNL d   1     -41.360  15.270  16.886  0.00  0.00    -0.328 OA
ATOM     18  C   UNL d   1     -41.707  15.758  16.297  0.00  0.00     0.181 C 
ENDBRANCH  13  17
ENDBRANCH   8  11
ENDBRANCH   7   8
ENDBRANCH   3   7
BRANCH   1  19
ATOM     19  C   UNL d   1     -39.713  13.987  21.756  0.00  0.00     0.265 C 
ATOM     20  N   UNL d   1     -39.152  13.900  22.360  0.00  0.00    -0.268 N 
ATOM     21  C   UNL d   1     -39.248  13.308  22.928  0.00  0.00     0.110 A 
ATOM     22  C   UNL d   1     -38.504  14.403  22.392  0.00  0.00     0.110 A 
ATOM     23  C   UNL d   1     -38.689  13.224  23.526  0.00  0.00     0.142 A 
ATOM     24  O   UNL d   1     -38.041  13.727  23.558  0.00  0.00    -0.300 OA
ATOM     25  C   UNL d   1     -37.940  14.318  22.997  0.00  0.00     0.142 A 
ATOM     26  O   UNL d   1     -40.361  13.485  21.724  0.00  0.00    -0.267 OA
ENDBRANCH   1  19
TORSDOF 5
ENDMDL
MODEL 9
REMARK VINA RESULT:      -5.0      8.500     10.221
REMARK  5 active torsions:
REMARK  status: ('A' for Active; 'I' for Inactive)
REMARK    1  A    between atoms: N_3  and  S_1 
REMARK    2  A    between atoms: C_5  and  S_1 
REMARK    3  A    between atoms: C_2  and  C_6 
REMARK       I    between atoms: N_4  and  C_2 
REMARK    4  A    between atoms: C_11  and  N_3 
REMARK    5  A    between atoms: O_18  and  C_14 
ROOT
ATOM      1  C   UNL d   1     -40.590  14.893  19.797  0.00  0.00     0.058 A 
ATOM      2  C   UNL d   1     -40.271  14.350  19.271  0.00  0.00     0.025 A 
ATOM      3  C   UNL d   1     -40.332  14.466  18.456  0.00  0.00     0.094 A 
ATOM      4  C   UNL d   1     -40.981  15.571  19.505  0.00  0.00     0.005 A 
ATOM      5  C   UNL d   1     -41.043  15.687  18.691  0.00  0.00     0.002 A 
ATOM      6  C   UNL d   1     -40.721  15.140  18.163  0.00  0.00     0.020 A 
ENDROOT
BRANCH   3   7
ATOM      7  N   UNL d   1     -40.012  13.923  17.930  0.00  0.00    -0.158 NA
BRANCH   7   8
ATOM      8  S   UNL d   1     -39.492  14.164  17.342  0.00  0.00     0.285 S 
ATOM      9  O   UNL d   1     -40.127  14.275  16.827  0.00  0.00    -0.198 OA
ATOM     10  O   UNL d   1     -38.856  14.057  17.846  0.00  0.00    -0.198 OA
BRANCH   8  11
ATOM     11  C   UNL d   1     -38.973  14.407  16.750  0.00  0.00     0.107 A 
ATOM     12  C   UNL d   1     -38.715  13.865  16.174  0.00  0.00     0.037 A 
ATOM     13  C   UNL d   1     -38.201  14.113  15.589  0.00  0.00     0.095 A 
ATOM     14  C   UNL d   1     -37.940  14.893  15.569  0.00  0.00     0.024 A 
ATOM     15  C   UNL d   1     -38.189  15.430  16.131  0.00  0.00     0.003 A 
ATOM     16  C   UNL d   1     -38.708  15.187  16.724  0.00  0.00     0.013 A 
BRANCH  13  17
ATOM     17  O   UNL d   1     -37.940  13.571  15.009  0.00  0.00    -0.328 OA
ATOM     18  C   UNL d   1     -38.305  13.553  14.253  0.00  0.00     0.181 C 
ENDBRANCH  13  17
ENDBRANCH   8  11
ENDBRANCH   7   8
ENDBRANCH   3   7
BRANCH   1  19
ATOM     19  C   UNL d   1     -40.525  14.770  20.608  0.00  0.00     0.265 C 
ATOM     20  N   UNL d   1     -39.871  15.071  21.018  0.00  0.00    -0.268 N 
ATOM     21  C   UNL d   1     -39.804  14.948  21.833  0.00  0.00     0.110 A 
ATOM     22  C   UNL d   1     -39.292  15.490  20.614  0.00  0.00     0.110 A 
ATOM     23  C   UNL d   1     -39.153  15.249  22.237  0.00  0.00     0.142 A 
ATOM     24  O   UNL d   1     -38.575  15.668  21.832  0.00  0.00    -0.300 OA
ATOM     25  C   UNL d   1     -38.634  15.793  21.023  0.00  0.00     0.142 A 
ATOM     26  O   UNL d   1     -41.104  14.351  21.012  0.00  0.00    -0.267 OA
ENDBRANCH   1  19
TORSDOF 5
ENDMDL
