MODEL 1
REMARK VINA RESULT:      -4.1      0.000      0.000
REMARK  7 active torsions:
REMARK  status: ('A' for Active; 'I' for Inactive)
REMARK    1  A    between atoms: C_11  and  C_1 
REMARK    2  A    between atoms: C_15  and  N_3 
REMARK    3  A    between atoms: C_7  and  S_12 
REMARK    4  A    between atoms: C_13  and  C_11 
REMARK    5  A    between atoms: S_12  and  C_13 
REMARK    6  A    between atoms: C_20  and  C_15 
REMARK    7  A    between atoms: O_19  and  C_20 
ROOT
ATOM      1  C   UNL d   1      58.767   0.223  30.013  0.00  0.00     0.057 A 
ATOM      2  C   UNL d   1      58.942  -0.342  29.451  0.00  0.00     0.067 A 
ATOM      3  N   UNL d   1      59.730  -0.235  29.255  0.00  0.00    -0.303 N 
ATOM      4  C   UNL d   1      59.432   0.662  30.153  0.00  0.00     0.022 A 
ATOM      5  C   UNL d   1      60.014   0.376  29.688  0.00  0.00     0.064 A 
ATOM      6  C   UNL d   1      58.426  -0.908  29.145  0.00  0.00     0.019 C 
ATOM      7  C   UNL d   1      60.804   0.674  29.659  0.00  0.00     0.019 C 
ENDROOT
BRANCH   1   8
ATOM      8  C   UNL d   1      58.021   0.324  30.375  0.00  0.00     0.203 C 
ATOM      9  O   UNL d   1      57.396   0.621  29.931  0.00  0.00    -0.286 OA
BRANCH   8  10
ATOM     10  C   UNL d   1      57.911   0.128  31.166  0.00  0.00     0.079 C 
BRANCH  10  11
ATOM     11  S   UNL d   1      57.163  -0.093  31.442  0.00  0.00    -0.056 SA
BRANCH  11  12
ATOM     12  C   UNL d   1      56.642  -0.379  32.024  0.00  0.00     0.164 A 
ATOM     13  S   UNL d   1      56.256   0.095  32.584  0.00  0.00    -0.039 SA
ATOM     14  C   UNL d   1      55.787  -0.411  33.061  0.00  0.00     0.134 A 
ATOM     15  C   UNL d   1      55.302  -0.173  33.697  0.00  0.00     0.030 C 
ATOM     16  N   UNL d   1      55.891  -1.195  32.787  0.00  0.00    -0.140 NA
ATOM     17  N   UNL d   1      56.424  -1.165  32.143  0.00  0.00    -0.134 NA
ENDBRANCH  11  12
ENDBRANCH  10  11
ENDBRANCH   8  10
ENDBRANCH   1   8
BRANCH   3  18
ATOM     18  C   UNL d   1      60.187  -0.673  28.702  0.00  0.00     0.107 C 
BRANCH  18  19
ATOM     19  C   UNL d   1      60.552  -1.381  28.951  0.00  0.00     0.135 C 
BRANCH  19  20
ATOM     20  O   UNL d   1      61.031  -1.803  28.455  0.00  0.00    -0.325 OA
ATOM     21  C   UNL d   1      61.087  -2.484  28.534  0.00  0.00     0.182 C 
ENDBRANCH  19  20
ENDBRANCH  18  19
ENDBRANCH   3  18
TORSDOF 7
ENDMDL
MODEL 2
REMARK VINA RESULT:      -3.9      1.619      5.315
REMARK  7 active torsions:
REMARK  status: ('A' for Active; 'I' for Inactive)
REMARK    1  A    between atoms: C_11  and  C_1 
REMARK    2  A    between atoms: C_15  and  N_3 
REMARK    3  A    between atoms: C_7  and  S_12 
REMARK    4  A    between atoms: C_13  and  C_11 
REMARK    5  A    between atoms: S_12  and  C_13 
REMARK    6  A    between atoms: C_20  and  C_15 
REMARK    7  A    between atoms: O_19  and  C_20 
ROOT
ATOM      1  C   UNL d   1      56.852  -0.472  31.797  0.00  0.00     0.057 A 
ATOM      2  C   UNL d   1      56.819  -0.041  32.488  0.00  0.00     0.067 A 
ATOM      3  N   UNL d   1      56.346  -0.468  33.003  0.00  0.00    -0.303 N 
ATOM      4  C   UNL d   1      56.410  -1.144  31.890  0.00  0.00     0.022 A 
ATOM      5  C   UNL d   1      56.105  -1.133  32.627  0.00  0.00     0.064 A 
ATOM      6  C   UNL d   1      57.190   0.680  32.637  0.00  0.00     0.019 C 
ATOM      7  C   UNL d   1      55.607  -1.731  32.956  0.00  0.00     0.019 C 
ENDROOT
BRANCH   1   8
ATOM      8  C   UNL d   1      57.276  -0.249  31.112  0.00  0.00     0.203 C 
ATOM      9  O   UNL d   1      57.014   0.394  30.671  0.00  0.00    -0.286 OA
BRANCH   8  10
ATOM     10  C   UNL d   1      57.946  -0.665  30.881  0.00  0.00     0.079 C 
BRANCH  10  11
ATOM     11  S   UNL d   1      58.445  -0.361  30.296  0.00  0.00    -0.056 SA
BRANCH  11  12
ATOM     12  C   UNL d   1      59.162  -0.331  29.874  0.00  0.00     0.164 A 
ATOM     13  S   UNL d   1      59.404  -0.897  29.318  0.00  0.00    -0.039 SA
ATOM     14  C   UNL d   1      60.153  -0.657  29.026  0.00  0.00     0.134 A 
ATOM     15  C   UNL d   1      60.607  -1.061  28.455  0.00  0.00     0.030 C 
ATOM     16  N   UNL d   1      60.364   0.056  29.409  0.00  0.00    -0.140 NA
ATOM     17  N   UNL d   1      59.742   0.251  29.934  0.00  0.00    -0.134 NA
ENDBRANCH  11  12
ENDBRANCH  10  11
ENDBRANCH   8  10
ENDBRANCH   1   8
BRANCH   3  18
ATOM     18  C   UNL d   1      56.132  -0.269  33.792  0.00  0.00     0.107 C 
BRANCH  18  19
ATOM     19  C   UNL d   1      55.476   0.230  33.918  0.00  0.00     0.135 C 
BRANCH  19  20
ATOM     20  O   UNL d   1      55.167   0.337  34.657  0.00  0.00    -0.325 OA
ATOM     21  C   UNL d   1      54.571   0.673  34.732  0.00  0.00     0.182 C 
ENDBRANCH  19  20
ENDBRANCH  18  19
ENDBRANCH   3  18
TORSDOF 7
ENDMDL
MODEL 3
REMARK VINA RESULT:      -2.7      1.366      1.617
REMARK  7 active torsions:
REMARK  status: ('A' for Active; 'I' for Inactive)
REMARK    1  A    between atoms: C_11  and  C_1 
REMARK    2  A    between atoms: C_15  and  N_3 
REMARK    3  A    between atoms: C_7  and  S_12 
REMARK    4  A    between atoms: C_13  and  C_11 
REMARK    5  A    between atoms: S_12  and  C_13 
REMARK    6  A    between atoms: C_20  and  C_15 
REMARK    7  A    between atoms: O_19  and  C_20 
ROOT
ATOM      1  C   UNL d   1      58.008   0.137  30.726  0.00  0.00     0.057 A 
ATOM      2  C   UNL d   1      58.022  -0.596  30.370  0.00  0.00     0.067 A 
ATOM      3  N   UNL d   1      58.339  -0.483  29.623  0.00  0.00    -0.303 N 
ATOM      4  C   UNL d   1      58.309   0.681  30.209  0.00  0.00     0.022 A 
ATOM      5  C   UNL d   1      58.508   0.295  29.539  0.00  0.00     0.064 A 
ATOM      6  C   UNL d   1      57.767  -1.308  30.699  0.00  0.00     0.019 C 
ATOM      7  C   UNL d   1      58.844   0.654  28.851  0.00  0.00     0.019 C 
ENDROOT
BRANCH   1   8
ATOM      8  C   UNL d   1      57.728   0.290  31.499  0.00  0.00     0.203 C 
ATOM      9  O   UNL d   1      58.267   0.471  32.092  0.00  0.00    -0.286 OA
BRANCH   8  10
ATOM     10  C   UNL d   1      56.923   0.260  31.664  0.00  0.00     0.079 C 
BRANCH  10  11
ATOM     11  S   UNL d   1      56.652   0.360  32.439  0.00  0.00    -0.056 SA
BRANCH  11  12
ATOM     12  C   UNL d   1      56.054   0.462  33.009  0.00  0.00     0.164 A 
ATOM     13  S   UNL d   1      56.186   0.506  33.826  0.00  0.00    -0.039 SA
ATOM     14  C   UNL d   1      55.440   0.609  34.195  0.00  0.00     0.134 A 
ATOM     15  C   UNL d   1      55.306   0.681  35.016  0.00  0.00     0.030 C 
ATOM     16  N   UNL d   1      54.855   0.626  33.598  0.00  0.00    -0.140 NA
ATOM     17  N   UNL d   1      55.247   0.534  32.863  0.00  0.00    -0.134 NA
ENDBRANCH  11  12
ENDBRANCH  10  11
ENDBRANCH   8  10
ENDBRANCH   1   8
BRANCH   3  18
ATOM     18  C   UNL d   1      58.475  -1.062  29.028  0.00  0.00     0.107 C 
BRANCH  18  19
ATOM     19  C   UNL d   1      59.045  -1.654  29.165  0.00  0.00     0.135 C 
BRANCH  19  20
ATOM     20  O   UNL d   1      59.255  -2.176  28.583  0.00  0.00    -0.325 OA
ATOM     21  C   UNL d   1      59.705  -2.677  28.722  0.00  0.00     0.182 C 
ENDBRANCH  19  20
ENDBRANCH  18  19
ENDBRANCH   3  18
TORSDOF 7
ENDMDL
