MODEL 1
REMARK VINA RESULT:     -10.1      0.000      0.000
REMARK  4 active torsions:
REMARK  status: ('A' for Active; 'I' for Inactive)
REMARK    1  A    between atoms: N_2  and  S_1 
REMARK    2  A    between atoms: C_3  and  S_1 
REMARK    3  A    between atoms: C_17  and  N_4 
REMARK    4  A    between atoms: C_16  and  C_17 
ROOT
ATOM      1  N   UNL d   1      53.185  34.076  53.951  0.00  0.00    -0.226 N 
ATOM      2  N   UNL d   1      53.907  32.604  53.857  0.00  0.00    -0.300 N 
ATOM      3  C   UNL d   1      53.106  33.541  54.580  0.00  0.00     0.111 A 
ATOM      4  C   UNL d   1      53.623  33.875  53.281  0.00  0.00     0.111 A 
ATOM      5  C   UNL d   1      53.984  33.134  53.239  0.00  0.00     0.100 A 
ATOM      6  C   UNL d   1      53.475  32.795  54.526  0.00  0.00     0.100 A 
ENDROOT
BRANCH   1   7
ATOM      7  S   UNL d   1      52.822  34.811  54.003  0.00  0.00     0.272 S 
ATOM      8  O   UNL d   1      52.461  35.541  54.055  0.00  0.00    -0.200 OA
ATOM      9  O   UNL d   1      53.413  35.067  54.506  0.00  0.00    -0.200 OA
BRANCH   7  10
ATOM     10  C   UNL d   1      52.226  34.552  53.495  0.00  0.00     0.106 A 
ATOM     11  C   UNL d   1      51.550  34.179  53.809  0.00  0.00     0.043 A 
ATOM     12  C   UNL d   1      50.948  33.918  53.296  0.00  0.00     0.141 A 
ATOM     13  F   UNL d   1      50.277  33.548  53.601  0.00  0.00    -0.204 F 
ATOM     14  C   UNL d   1      51.028  34.032  52.474  0.00  0.00     0.030 A 
ATOM     15  C   UNL d   1      51.694  34.399  52.176  0.00  0.00     0.003 A 
ATOM     16  C   UNL d   1      52.296  34.660  52.689  0.00  0.00     0.013 A 
ENDBRANCH   7  10
ENDBRANCH   1   7
BRANCH   2  17
ATOM     17  C   UNL d   1      54.272  31.867  53.805  0.00  0.00     0.080 C 
BRANCH  17  18
ATOM     18  C   UNL d   1      53.822  31.194  53.657  0.00  0.00     0.020 A 
ATOM     19  C   UNL d   1      53.777  30.609  54.228  0.00  0.00     0.028 A 
ATOM     20  C   UNL d   1      53.328  29.929  54.091  0.00  0.00     0.119 A 
ATOM     21  O   UNL d   1      53.179  29.256  54.551  0.00  0.00    -0.300 OA
ATOM     22  C   UNL d   1      52.928  29.849  53.374  0.00  0.00     0.119 A 
ATOM     23  C   UNL d   1      52.682  28.757  54.113  0.00  0.00     0.304 A 
ATOM     24  O   UNL d   1      52.526  29.124  53.382  0.00  0.00    -0.300 OA
ATOM     25  C   UNL d   1      52.974  30.440  52.797  0.00  0.00     0.026 A 
ATOM     26  C   UNL d   1      53.422  31.113  52.940  0.00  0.00     0.004 A 
ENDBRANCH  17  18
ENDBRANCH   2  17
TORSDOF 4
ENDMDL
MODEL 2
REMARK VINA RESULT:      -9.0      1.587      2.306
REMARK  4 active torsions:
REMARK  status: ('A' for Active; 'I' for Inactive)
REMARK    1  A    between atoms: N_2  and  S_1 
REMARK    2  A    between atoms: C_3  and  S_1 
REMARK    3  A    between atoms: C_17  and  N_4 
REMARK    4  A    between atoms: C_16  and  C_17 
ROOT
ATOM      1  N   UNL d   1      53.016  33.762  53.621  0.00  0.00    -0.226 N 
ATOM      2  N   UNL d   1      52.667  32.252  53.080  0.00  0.00    -0.300 N 
ATOM      3  C   UNL d   1      52.359  33.359  53.927  0.00  0.00     0.111 A 
ATOM      4  C   UNL d   1      53.494  33.409  53.048  0.00  0.00     0.111 A 
ATOM      5  C   UNL d   1      53.315  32.650  52.780  0.00  0.00     0.100 A 
ATOM      6  C   UNL d   1      52.186  32.592  53.649  0.00  0.00     0.100 A 
ENDROOT
BRANCH   1   7
ATOM      7  S   UNL d   1      53.186  34.517  53.895  0.00  0.00     0.272 S 
ATOM      8  O   UNL d   1      53.354  35.268  54.168  0.00  0.00    -0.200 OA
ATOM      9  O   UNL d   1      52.657  34.831  53.358  0.00  0.00    -0.200 OA
BRANCH   7  10
ATOM     10  C   UNL d   1      53.720  34.200  54.438  0.00  0.00     0.106 A 
ATOM     11  C   UNL d   1      54.527  34.142  54.236  0.00  0.00     0.043 A 
ATOM     12  C   UNL d   1      55.066  33.822  54.784  0.00  0.00     0.141 A 
ATOM     13  F   UNL d   1      55.865  33.761  54.590  0.00  0.00    -0.204 F 
ATOM     14  C   UNL d   1      54.794  33.563  55.529  0.00  0.00     0.030 A 
ATOM     15  C   UNL d   1      54.002  33.625  55.717  0.00  0.00     0.003 A 
ATOM     16  C   UNL d   1      53.462  33.945  55.169  0.00  0.00     0.013 A 
ENDBRANCH   7  10
ENDBRANCH   1   7
BRANCH   2  17
ATOM     17  C   UNL d   1      52.497  31.493  52.805  0.00  0.00     0.080 C 
BRANCH  17  18
ATOM     18  C   UNL d   1      52.855  30.838  53.151  0.00  0.00     0.020 A 
ATOM     19  C   UNL d   1      52.442  30.403  53.707  0.00  0.00     0.028 A 
ATOM     20  C   UNL d   1      52.793  29.744  54.062  0.00  0.00     0.119 A 
ATOM     21  O   UNL d   1      52.521  29.204  54.630  0.00  0.00    -0.300 OA
ATOM     22  C   UNL d   1      53.561  29.532  53.848  0.00  0.00     0.119 A 
ATOM     23  C   UNL d   1      53.128  28.656  54.767  0.00  0.00     0.304 A 
ATOM     24  O   UNL d   1      53.774  28.859  54.282  0.00  0.00    -0.300 OA
ATOM     25  C   UNL d   1      53.978  29.973  53.286  0.00  0.00     0.026 A 
ATOM     26  C   UNL d   1      53.624  30.627  52.938  0.00  0.00     0.004 A 
ENDBRANCH  17  18
ENDBRANCH   2  17
TORSDOF 4
ENDMDL
MODEL 3
REMARK VINA RESULT:      -8.4      2.192      4.544
REMARK  4 active torsions:
REMARK  status: ('A' for Active; 'I' for Inactive)
REMARK    1  A    between atoms: N_2  and  S_1 
REMARK    2  A    between atoms: C_3  and  S_1 
REMARK    3  A    between atoms: C_17  and  N_4 
REMARK    4  A    between atoms: C_16  and  C_17 
ROOT
ATOM      1  N   UNL d   1      52.629  32.501  53.154  0.00  0.00    -0.226 N 
ATOM      2  N   UNL d   1      51.793  33.905  52.995  0.00  0.00    -0.300 N 
ATOM      3  C   UNL d   1      52.014  32.673  53.683  0.00  0.00     0.111 A 
ATOM      4  C   UNL d   1      52.823  33.029  52.550  0.00  0.00     0.111 A 
ATOM      5  C   UNL d   1      52.400  33.733  52.475  0.00  0.00     0.100 A 
ATOM      6  C   UNL d   1      51.593  33.388  53.597  0.00  0.00     0.100 A 
ENDROOT
BRANCH   1   7
ATOM      7  S   UNL d   1      53.044  31.797  53.239  0.00  0.00     0.272 S 
ATOM      8  O   UNL d   1      53.455  31.097  53.323  0.00  0.00    -0.200 OA
ATOM      9  O   UNL d   1      52.479  31.411  52.791  0.00  0.00    -0.200 OA
BRANCH   7  10
ATOM     10  C   UNL d   1      53.613  32.187  53.690  0.00  0.00     0.106 A 
ATOM     11  C   UNL d   1      53.549  32.189  54.522  0.00  0.00     0.043 A 
ATOM     12  C   UNL d   1      54.124  32.583  54.978  0.00  0.00     0.141 A 
ATOM     13  F   UNL d   1      54.066  32.589  55.800  0.00  0.00    -0.204 F 
ATOM     14  C   UNL d   1      54.758  32.970  54.598  0.00  0.00     0.030 A 
ATOM     15  C   UNL d   1      54.812  32.962  53.784  0.00  0.00     0.003 A 
ATOM     16  C   UNL d   1      54.236  32.568  53.328  0.00  0.00     0.013 A 
ENDBRANCH   7  10
ENDBRANCH   1   7
BRANCH   2  17
ATOM     17  C   UNL d   1      51.377  34.612  52.910  0.00  0.00     0.080 C 
BRANCH  17  18
ATOM     18  C   UNL d   1      50.621  34.609  52.585  0.00  0.00     0.020 A 
ATOM     19  C   UNL d   1      50.530  34.465  51.785  0.00  0.00     0.028 A 
ATOM     20  C   UNL d   1      49.776  34.459  51.448  0.00  0.00     0.119 A 
ATOM     21  O   UNL d   1      49.511  34.334  50.672  0.00  0.00    -0.300 OA
ATOM     22  C   UNL d   1      49.119  34.600  51.927  0.00  0.00     0.119 A 
ATOM     23  C   UNL d   1      48.684  34.398  50.674  0.00  0.00     0.304 A 
ATOM     24  O   UNL d   1      48.440  34.563  51.453  0.00  0.00    -0.300 OA
ATOM     25  C   UNL d   1      49.211  34.745  52.736  0.00  0.00     0.026 A 
ATOM     26  C   UNL d   1      49.965  34.749  53.064  0.00  0.00     0.004 A 
ENDBRANCH  17  18
ENDBRANCH   2  17
TORSDOF 4
ENDMDL
MODEL 4
REMARK VINA RESULT:      -7.8      2.409      4.576
REMARK  4 active torsions:
REMARK  status: ('A' for Active; 'I' for Inactive)
REMARK    1  A    between atoms: N_2  and  S_1 
REMARK    2  A    between atoms: C_3  and  S_1 
REMARK    3  A    between atoms: C_17  and  N_4 
REMARK    4  A    between atoms: C_16  and  C_17 
ROOT
ATOM      1  N   UNL d   1      52.631  34.489  53.836  0.00  0.00    -0.226 N 
ATOM      2  N   UNL d   1      51.300  33.957  53.035  0.00  0.00    -0.300 N 
ATOM      3  C   UNL d   1      52.572  34.606  53.016  0.00  0.00     0.111 A 
ATOM      4  C   UNL d   1      52.027  34.109  54.249  0.00  0.00     0.111 A 
ATOM      5  C   UNL d   1      51.360  33.843  53.842  0.00  0.00     0.100 A 
ATOM      6  C   UNL d   1      51.894  34.333  52.615  0.00  0.00     0.100 A 
ENDROOT
BRANCH   1   7
ATOM      7  S   UNL d   1      53.299  34.758  54.231  0.00  0.00     0.272 S 
ATOM      8  O   UNL d   1      53.963  35.024  54.623  0.00  0.00    -0.200 OA
ATOM      9  O   UNL d   1      52.978  35.508  54.263  0.00  0.00    -0.200 OA
BRANCH   7  10
ATOM     10  C   UNL d   1      53.623  34.000  54.198  0.00  0.00     0.106 A 
ATOM     11  C   UNL d   1      53.593  33.509  54.872  0.00  0.00     0.043 A 
ATOM     12  C   UNL d   1      53.920  32.744  54.839  0.00  0.00     0.141 A 
ATOM     13  F   UNL d   1      53.893  32.255  55.501  0.00  0.00    -0.204 F 
ATOM     14  C   UNL d   1      54.274  32.476  54.133  0.00  0.00     0.030 A 
ATOM     15  C   UNL d   1      54.298  32.964  53.479  0.00  0.00     0.003 A 
ATOM     16  C   UNL d   1      53.971  33.729  53.512  0.00  0.00     0.013 A 
ENDBRANCH   7  10
ENDBRANCH   1   7
BRANCH   2  17
ATOM     17  C   UNL d   1      50.629  33.687  52.638  0.00  0.00     0.080 C 
BRANCH  17  18
ATOM     18  C   UNL d   1      50.019  34.209  52.459  0.00  0.00     0.020 A 
ATOM     19  C   UNL d   1      49.654  34.622  53.064  0.00  0.00     0.028 A 
ATOM     20  C   UNL d   1      49.040  35.148  52.895  0.00  0.00     0.119 A 
ATOM     21  O   UNL d   1      48.573  35.635  53.378  0.00  0.00    -0.300 OA
ATOM     22  C   UNL d   1      48.801  35.252  52.112  0.00  0.00     0.119 A 
ATOM     23  C   UNL d   1      48.042  36.041  52.886  0.00  0.00     0.304 A 
ATOM     24  O   UNL d   1      48.184  35.804  52.100  0.00  0.00    -0.300 OA
ATOM     25  C   UNL d   1      49.171  34.835  51.501  0.00  0.00     0.026 A 
ATOM     26  C   UNL d   1      49.781  34.313  51.676  0.00  0.00     0.004 A 
ENDBRANCH  17  18
ENDBRANCH   2  17
TORSDOF 4
ENDMDL
