MODEL 1
REMARK VINA RESULT:      -3.8      0.000      0.000
REMARK  5 active torsions:
REMARK  status: ('A' for Active; 'I' for Inactive)
REMARK    1  A    between atoms: N_4  and  C_2 
REMARK    2  A    between atoms: S_8  and  C_3 
REMARK    3  A    between atoms: C_11  and  S_8 
REMARK    4  A    between atoms: C_9  and  C_11 
REMARK    5  A    between atoms: C_10  and  C_9 
ROOT
ATOM      1  N   UNL d   1     -41.586-123.003 -50.884  0.00  0.00    -0.203 NA
ATOM      2  C   UNL d   1     -41.689-122.601 -50.173  0.00  0.00     0.152 A 
ATOM      3  C   UNL d   1     -41.328-122.594 -51.562  0.00  0.00     0.196 A 
ATOM      4  C   UNL d   1     -41.533-121.789 -50.141  0.00  0.00     0.057 A 
ATOM      5  N   UNL d   1     -41.175-121.785 -51.523  0.00  0.00    -0.221 NA
ATOM      6  C   UNL d   1     -41.278-121.383 -50.812  0.00  0.00     0.087 A 
ATOM      7  C   UNL d   1     -41.124-120.571 -50.770  0.00  0.00     0.021 C 
ENDROOT
BRANCH   3   8
ATOM      8  S   UNL d   1     -41.225-123.003 -52.278  0.00  0.00    -0.045 SA
BRANCH   8   9
ATOM      9  C   UNL d   1     -41.322-122.603 -52.995  0.00  0.00     0.080 C 
BRANCH   9  10
ATOM     10  C   UNL d   1     -41.380-123.030 -53.698  0.00  0.00     0.202 C 
ATOM     11  O   UNL d   1     -41.133-123.817 -53.719  0.00  0.00    -0.286 OA
BRANCH  10  12
ATOM     12  C   UNL d   1     -41.683-122.667 -54.372  0.00  0.00     0.040 A 
ATOM     13  C   UNL d   1     -41.171-122.467 -54.990  0.00  0.00     0.004 A 
ATOM     14  C   UNL d   1     -41.469-122.103 -55.668  0.00  0.00     0.011 A 
ATOM     15  C   UNL d   1     -42.277-121.942 -55.720  0.00  0.00     0.058 A 
ATOM     16  C   UNL d   1     -42.785-122.142 -55.102  0.00  0.00     0.011 A 
ATOM     17 CL   UNL d   1     -42.580-121.576 -56.398  0.00  0.00    -0.082 Cl
ATOM     18  C   UNL d   1     -42.481-122.506 -54.428  0.00  0.00     0.004 A 
ENDBRANCH  10  12
ENDBRANCH   9  10
ENDBRANCH   8   9
ENDBRANCH   3   8
BRANCH   2  19
ATOM     19  N   UNL d   1     -41.945-123.003 -49.499  0.00  0.00    -0.285 N 
ATOM     20  C   UNL d   1     -41.436-123.100 -48.865  0.00  0.00     0.108 A 
ATOM     21  C   UNL d   1     -41.695-123.503 -48.193  0.00  0.00     0.142 A 
ATOM     22  O   UNL d   1     -42.465-123.804 -48.165  0.00  0.00    -0.300 OA
ATOM     23  C   UNL d   1     -42.971-123.703 -48.806  0.00  0.00     0.142 A 
ATOM     24  C   UNL d   1     -42.715-123.304 -49.471  0.00  0.00     0.108 A 
ENDBRANCH   2  19
TORSDOF 5
ENDMDL
MODEL 2
REMARK VINA RESULT:      -2.9      1.269      1.958
REMARK  5 active torsions:
REMARK  status: ('A' for Active; 'I' for Inactive)
REMARK    1  A    between atoms: N_4  and  C_2 
REMARK    2  A    between atoms: S_8  and  C_3 
REMARK    3  A    between atoms: C_11  and  S_8 
REMARK    4  A    between atoms: C_9  and  C_11 
REMARK    5  A    between atoms: C_10  and  C_9 
ROOT
ATOM      1  N   UNL d   1     -41.776-122.815 -49.607  0.00  0.00    -0.203 NA
ATOM      2  C   UNL d   1     -42.258-123.146 -49.027  0.00  0.00     0.152 A 
ATOM      3  C   UNL d   1     -42.029-122.801 -50.401  0.00  0.00     0.196 A 
ATOM      4  C   UNL d   1     -42.992-123.462 -49.241  0.00  0.00     0.057 A 
ATOM      5  N   UNL d   1     -42.761-123.118 -50.607  0.00  0.00    -0.221 NA
ATOM      6  C   UNL d   1     -43.242-123.448 -50.027  0.00  0.00     0.087 A 
ATOM      7  C   UNL d   1     -43.977-123.767 -50.232  0.00  0.00     0.021 C 
ENDROOT
BRANCH   3   8
ATOM      8  S   UNL d   1     -41.540-122.467 -50.984  0.00  0.00    -0.045 SA
BRANCH   8   9
ATOM      9  C   UNL d   1     -41.727-122.572 -51.783  0.00  0.00     0.080 C 
BRANCH   9  10
ATOM     10  C   UNL d   1     -41.482-122.012 -52.338  0.00  0.00     0.202 C 
ATOM     11  O   UNL d   1     -41.126-121.313 -52.082  0.00  0.00    -0.286 OA
BRANCH  10  12
ATOM     12  C   UNL d   1     -41.596-122.158 -53.140  0.00  0.00     0.040 A 
ATOM     13  C   UNL d   1     -41.183-122.777 -53.502  0.00  0.00     0.004 A 
ATOM     14  C   UNL d   1     -41.293-122.927 -54.306  0.00  0.00     0.011 A 
ATOM     15  C   UNL d   1     -41.815-122.457 -54.740  0.00  0.00     0.058 A 
ATOM     16  C   UNL d   1     -42.225-121.841 -54.375  0.00  0.00     0.011 A 
ATOM     17 CL   UNL d   1     -41.928-122.605 -55.546  0.00  0.00    -0.082 Cl
ATOM     18  C   UNL d   1     -42.111-121.695 -53.572  0.00  0.00     0.004 A 
ENDBRANCH  10  12
ENDBRANCH   9  10
ENDBRANCH   8   9
ENDBRANCH   3   8
BRANCH   2  19
ATOM     19  N   UNL d   1     -42.011-123.162 -48.239  0.00  0.00    -0.285 N 
ATOM     20  C   UNL d   1     -42.401-122.706 -47.681  0.00  0.00     0.108 A 
ATOM     21  C   UNL d   1     -42.152-122.725 -46.895  0.00  0.00     0.142 A 
ATOM     22  O   UNL d   1     -41.512-123.201 -46.677  0.00  0.00    -0.300 OA
ATOM     23  C   UNL d   1     -41.124-123.657 -47.243  0.00  0.00     0.142 A 
ATOM     24  C   UNL d   1     -41.371-123.638 -48.021  0.00  0.00     0.108 A 
ENDBRANCH   2  19
TORSDOF 5
ENDMDL
MODEL 3
REMARK VINA RESULT:      -2.4      2.316      5.343
REMARK  5 active torsions:
REMARK  status: ('A' for Active; 'I' for Inactive)
REMARK    1  A    between atoms: N_4  and  C_2 
REMARK    2  A    between atoms: S_8  and  C_3 
REMARK    3  A    between atoms: C_11  and  S_8 
REMARK    4  A    between atoms: C_9  and  C_11 
REMARK    5  A    between atoms: C_10  and  C_9 
ROOT
ATOM      1  N   UNL d   1     -41.877-122.781 -52.680  0.00  0.00    -0.203 NA
ATOM      2  C   UNL d   1     -41.733-122.146 -53.185  0.00  0.00     0.152 A 
ATOM      3  C   UNL d   1     -41.769-122.693 -51.858  0.00  0.00     0.196 A 
ATOM      4  C   UNL d   1     -41.481-121.425 -52.868  0.00  0.00     0.057 A 
ATOM      5  N   UNL d   1     -41.519-121.971 -51.549  0.00  0.00    -0.221 NA
ATOM      6  C   UNL d   1     -41.375-121.338 -52.055  0.00  0.00     0.087 A 
ATOM      7  C   UNL d   1     -41.123-120.613 -51.746  0.00  0.00     0.021 C 
ENDROOT
BRANCH   3   8
ATOM      8  S   UNL d   1     -41.916-123.335 -51.352  0.00  0.00    -0.045 SA
BRANCH   8   9
ATOM      9  C   UNL d   1     -41.793-123.250 -50.538  0.00  0.00     0.080 C 
BRANCH   9  10
ATOM     10  C   UNL d   1     -42.350-123.547 -50.007  0.00  0.00     0.202 C 
ATOM     11  O   UNL d   1     -43.077-123.817 -50.286  0.00  0.00    -0.286 OA
BRANCH  10  12
ATOM     12  C   UNL d   1     -42.173-123.570 -49.203  0.00  0.00     0.040 A 
ATOM     13  C   UNL d   1     -42.785-123.673 -48.656  0.00  0.00     0.004 A 
ATOM     14  C   UNL d   1     -42.613-123.697 -47.849  0.00  0.00     0.011 A 
ATOM     15  C   UNL d   1     -41.831-123.618 -47.598  0.00  0.00     0.058 A 
ATOM     16  C   UNL d   1     -41.224-123.516 -48.146  0.00  0.00     0.011 A 
ATOM     17 CL   UNL d   1     -41.656-123.642 -46.790  0.00  0.00    -0.082 Cl
ATOM     18  C   UNL d   1     -41.401-123.493 -48.950  0.00  0.00     0.004 A 
ENDBRANCH  10  12
ENDBRANCH   9  10
ENDBRANCH   8   9
ENDBRANCH   3   8
BRANCH   2  19
ATOM     19  N   UNL d   1     -41.838-122.229 -53.999  0.00  0.00    -0.285 N 
ATOM     20  C   UNL d   1     -42.481-121.876 -54.365  0.00  0.00     0.108 A 
ATOM     21  C   UNL d   1     -42.583-121.961 -55.179  0.00  0.00     0.142 A 
ATOM     22  O   UNL d   1     -42.037-122.401 -55.619  0.00  0.00    -0.300 OA
ATOM     23  C   UNL d   1     -41.394-122.753 -55.245  0.00  0.00     0.142 A 
ATOM     24  C   UNL d   1     -41.293-122.669 -54.439  0.00  0.00     0.108 A 
ENDBRANCH   2  19
TORSDOF 5
ENDMDL
