MODEL 1
REMARK VINA RESULT:      16.1      0.000      0.000
REMARK  5 active torsions:
REMARK  status: ('A' for Active; 'I' for Inactive)
REMARK    1  A    between atoms: N_5  and  C_1 
REMARK    2  A    between atoms: C_8  and  C_2 
REMARK       I    between atoms: C_7  and  N_5 
REMARK    3  A    between atoms: C_9  and  C_7 
REMARK    4  A    between atoms: O_16  and  C_8 
REMARK    5  A    between atoms: C_20  and  O_16 
ROOT
ATOM      1  C   UNL d   1      46.390 -17.811  43.988  0.00  0.00     0.119 A 
ATOM      2  C   UNL d   1      46.443 -18.350  43.357  0.00  0.00     0.088 A 
ATOM      3  S   UNL d   1      46.432 -18.220  44.697  0.00  0.00    -0.068 SA
ATOM      4  C   UNL d   1      46.520 -19.127  43.693  0.00  0.00     0.013 A 
ATOM      5  C   UNL d   1      46.511 -19.026  44.521  0.00  0.00     0.031 A 
ATOM      6  C   UNL d   1      46.599 -19.933  43.545  0.00  0.00     0.001 A 
ATOM      7  C   UNL d   1      46.587 -19.795  44.879  0.00  0.00     0.006 A 
ATOM      8  C   UNL d   1      46.639 -20.330  44.264  0.00  0.00     0.001 A 
ENDROOT
BRANCH   1   9
ATOM      9  N   UNL d   1      46.306 -16.957  43.926  0.00  0.00    -0.201 NA
ATOM     10  C   UNL d   1      45.754 -16.558  44.413  0.00  0.00     0.286 C 
ATOM     11  O   UNL d   1      45.282 -16.946  44.955  0.00  0.00    -0.265 OA
BRANCH  10  12
ATOM     12  C   UNL d   1      45.668 -15.722  44.354  0.00  0.00     0.087 A 
ATOM     13  S   UNL d   1      45.004 -15.393  44.679  0.00  0.00    -0.082 SA
ATOM     14  C   UNL d   1      45.053 -14.557  44.546  0.00  0.00     0.036 A 
ATOM     15  C   UNL d   1      45.738 -14.412  44.149  0.00  0.00     0.008 A 
ATOM     16  C   UNL d   1      46.119 -15.127  44.030  0.00  0.00     0.012 A 
ENDBRANCH  10  12
ENDBRANCH   1   9
BRANCH   2  17
ATOM     17  C   UNL d   1      46.425 -18.180  42.549  0.00  0.00     0.302 C 
ATOM     18  O   UNL d   1      46.647 -17.427  42.263  0.00  0.00    -0.259 OA
BRANCH  17  19
ATOM     19  O   UNL d   1      46.179 -18.772  42.002  0.00  0.00    -0.271 OA
BRANCH  19  20
ATOM     20  C   UNL d   1      46.394 -18.685  41.208  0.00  0.00     0.126 C 
ATOM     21  C   UNL d   1      45.984 -19.085  40.627  0.00  0.00     0.029 C 
ENDBRANCH  19  20
ENDBRANCH  17  19
ENDBRANCH   2  17
TORSDOF 5
ENDMDL
