MODEL 1
REMARK VINA RESULT:      -6.9      0.000      0.000
REMARK  5 active torsions:
REMARK  status: ('A' for Active; 'I' for Inactive)
REMARK    1  A    between atoms: C_7  and  N_1 
REMARK    2  A    between atoms: C_23  and  C_5 
REMARK    3  A    between atoms: C_22  and  C_6 
REMARK    4  A    between atoms: C_8  and  C_7 
REMARK       I    between atoms: N_11  and  C_8 
REMARK    5  A    between atoms: C_17  and  N_11 
ROOT
ATOM      1  C   UNL d   1     -48.668  12.787  23.578  0.00  0.00     0.148 C 
ENDROOT
BRANCH   1   2
ATOM      2  N   UNL d   1     -49.239  13.209  23.157  0.00  0.00    -0.235 N 
ATOM      3  C   UNL d   1     -49.269  14.036  23.217  0.00  0.00     0.273 A 
ATOM      4  C   UNL d   1     -49.835  14.454  22.800  0.00  0.00     0.086 A 
ATOM      5  O   UNL d   1     -48.726  14.435  23.698  0.00  0.00    -0.266 OA
ATOM      6  S   UNL d   1     -50.377  14.068  22.321  0.00  0.00    -0.077 SA
ATOM      7  C   UNL d   1     -50.352  13.248  22.258  0.00  0.00     0.086 A 
ATOM      8  C   UNL d   1     -49.786  12.813  22.673  0.00  0.00     0.273 A 
ATOM      9  O   UNL d   1     -49.758  11.991  22.613  0.00  0.00    -0.266 OA
BRANCH   4  10
ATOM     10  C   UNL d   1     -49.863  15.285  22.861  0.00  0.00     0.011 C 
ATOM     11  C   UNL d   1     -50.425  15.643  23.348  0.00  0.00     0.001 C 
ENDBRANCH   4  10
BRANCH   7  12
ATOM     12  C   UNL d   1     -50.895  12.854  21.778  0.00  0.00     0.011 C 
ATOM     13  C   UNL d   1     -51.063  13.142  21.023  0.00  0.00     0.001 C 
ENDBRANCH   7  12
ENDBRANCH   1   2
BRANCH   1  14
ATOM     14  C   UNL d   1     -47.942  12.617  23.227  0.00  0.00     0.297 C 
ATOM     15  N   UNL d   1     -47.253  12.733  23.650  0.00  0.00    -0.207 NA
ATOM     16  O   UNL d   1     -47.922  12.333  22.452  0.00  0.00    -0.264 OA
BRANCH  15  17
ATOM     17  C   UNL d   1     -46.526  12.563  23.298  0.00  0.00     0.087 A 
ATOM     18  C   UNL d   1     -46.144  13.137  22.847  0.00  0.00     0.045 A 
ATOM     19  C   UNL d   1     -45.423  12.980  22.494  0.00  0.00     0.121 A 
ATOM     20  O   UNL d   1     -44.919  13.436  22.019  0.00  0.00    -0.299 OA
ATOM     21  C   UNL d   1     -45.073  12.238  22.590  0.00  0.00     0.119 A 
ATOM     22  C   UNL d   1     -44.259  12.970  21.826  0.00  0.00     0.304 A 
ATOM     23  O   UNL d   1     -44.364  12.237  22.181  0.00  0.00    -0.300 OA
ATOM     24  C   UNL d   1     -45.463  11.665  23.045  0.00  0.00     0.028 A 
ATOM     25  C   UNL d   1     -46.185  11.826  23.397  0.00  0.00     0.021 A 
ENDBRANCH  15  17
ENDBRANCH   1  14
TORSDOF 5
ENDMDL
MODEL 2
REMARK VINA RESULT:      -6.5      8.707      9.557
REMARK  5 active torsions:
REMARK  status: ('A' for Active; 'I' for Inactive)
REMARK    1  A    between atoms: C_7  and  N_1 
REMARK    2  A    between atoms: C_23  and  C_5 
REMARK    3  A    between atoms: C_22  and  C_6 
REMARK    4  A    between atoms: C_8  and  C_7 
REMARK       I    between atoms: N_11  and  C_8 
REMARK    5  A    between atoms: C_17  and  N_11 
ROOT
ATOM      1  C   UNL d   1     -40.459  14.208  19.306  0.00  0.00     0.148 C 
ENDROOT
BRANCH   1   2
ATOM      2  N   UNL d   1     -40.278  14.413  18.527  0.00  0.00    -0.235 N 
ATOM      3  C   UNL d   1     -40.651  15.064  18.173  0.00  0.00     0.273 A 
ATOM      4  C   UNL d   1     -40.471  15.267  17.402  0.00  0.00     0.086 A 
ATOM      5  O   UNL d   1     -41.204  15.506  18.603  0.00  0.00    -0.266 OA
ATOM      6  S   UNL d   1     -39.925  14.835  16.968  0.00  0.00    -0.077 SA
ATOM      7  C   UNL d   1     -39.553  14.189  17.313  0.00  0.00     0.086 A 
ATOM      8  C   UNL d   1     -39.724  13.972  18.092  0.00  0.00     0.273 A 
ATOM      9  O   UNL d   1     -39.352  13.325  18.442  0.00  0.00    -0.266 OA
BRANCH   4  10
ATOM     10  C   UNL d   1     -40.848  15.921  17.049  0.00  0.00     0.011 C 
ATOM     11  C   UNL d   1     -41.285  15.821  16.355  0.00  0.00     0.001 C 
ENDBRANCH   4  10
BRANCH   7  12
ATOM     12  C   UNL d   1     -39.002  13.750  16.883  0.00  0.00     0.011 C 
ATOM     13  C   UNL d   1     -38.458  14.136  16.396  0.00  0.00     0.001 C 
ENDBRANCH   7  12
ENDBRANCH   1   2
BRANCH   1  14
ATOM     14  C   UNL d   1     -40.034  14.544  19.927  0.00  0.00     0.297 C 
ATOM     15  N   UNL d   1     -40.311  14.468  20.692  0.00  0.00    -0.207 NA
ATOM     16  O   UNL d   1     -39.333  14.951  19.767  0.00  0.00    -0.264 OA
BRANCH  15  17
ATOM     17  C   UNL d   1     -39.885  14.804  21.314  0.00  0.00     0.087 A 
ATOM     18  C   UNL d   1     -39.353  14.343  21.742  0.00  0.00     0.045 A 
ATOM     19  C   UNL d   1     -38.926  14.666  22.361  0.00  0.00     0.121 A 
ATOM     20  O   UNL d   1     -38.363  14.347  22.881  0.00  0.00    -0.299 OA
ATOM     21  C   UNL d   1     -39.028  15.461  22.560  0.00  0.00     0.119 A 
ATOM     22  C   UNL d   1     -38.122  14.952  23.398  0.00  0.00     0.304 A 
ATOM     23  O   UNL d   1     -38.536  15.630  23.192  0.00  0.00    -0.300 OA
ATOM     24  C   UNL d   1     -39.565  15.919  22.124  0.00  0.00     0.028 A 
ATOM     25  C   UNL d   1     -39.991  15.592  21.505  0.00  0.00     0.021 A 
ENDBRANCH  15  17
ENDBRANCH   1  14
TORSDOF 5
ENDMDL
MODEL 3
REMARK VINA RESULT:      -5.0      7.702     10.307
REMARK  5 active torsions:
REMARK  status: ('A' for Active; 'I' for Inactive)
REMARK    1  A    between atoms: C_7  and  N_1 
REMARK    2  A    between atoms: C_23  and  C_5 
REMARK    3  A    between atoms: C_22  and  C_6 
REMARK    4  A    between atoms: C_8  and  C_7 
REMARK       I    between atoms: N_11  and  C_8 
REMARK    5  A    between atoms: C_17  and  N_11 
ROOT
ATOM      1  C   UNL d   1     -39.187  15.890  19.382  0.00  0.00     0.148 C 
ENDROOT
BRANCH   1   2
ATOM      2  N   UNL d   1     -39.452  15.392  19.986  0.00  0.00    -0.235 N 
ATOM      3  C   UNL d   1     -38.905  14.949  20.426  0.00  0.00     0.273 A 
ATOM      4  C   UNL d   1     -39.168  14.456  21.023  0.00  0.00     0.086 A 
ATOM      5  O   UNL d   1     -38.096  15.008  20.259  0.00  0.00    -0.266 OA
ATOM      6  S   UNL d   1     -39.967  14.391  21.197  0.00  0.00    -0.077 SA
ATOM      7  C   UNL d   1     -40.513  14.828  20.763  0.00  0.00     0.086 A 
ATOM      8  C   UNL d   1     -40.263  15.330  20.157  0.00  0.00     0.273 A 
ATOM      9  O   UNL d   1     -40.807  15.769  19.720  0.00  0.00    -0.266 OA
BRANCH   4  10
ATOM     10  C   UNL d   1     -38.617  14.013  21.464  0.00  0.00     0.011 C 
ATOM     11  C   UNL d   1     -38.648  14.020  22.290  0.00  0.00     0.001 C 
ENDBRANCH   4  10
BRANCH   7  12
ATOM     12  C   UNL d   1     -41.318  14.767  20.932  0.00  0.00     0.011 C 
ATOM     13  C   UNL d   1     -41.654  14.026  21.076  0.00  0.00     0.001 C 
ENDBRANCH   7  12
ENDBRANCH   1   2
BRANCH   1  14
ATOM     14  C   UNL d   1     -39.151  15.611  18.608  0.00  0.00     0.297 C 
ATOM     15  N   UNL d   1     -38.464  15.707  18.176  0.00  0.00    -0.207 NA
ATOM     16  O   UNL d   1     -39.810  15.238  18.278  0.00  0.00    -0.264 OA
BRANCH  15  17
ATOM     17  C   UNL d   1     -38.427  15.429  17.401  0.00  0.00     0.087 A 
ATOM     18  C   UNL d   1     -38.193  14.652  17.254  0.00  0.00     0.045 A 
ATOM     19  C   UNL d   1     -38.153  14.366  16.489  0.00  0.00     0.121 A 
ATOM     20  O   UNL d   1     -37.942  13.627  16.177  0.00  0.00    -0.299 OA
ATOM     21  C   UNL d   1     -38.350  14.858  15.855  0.00  0.00     0.119 A 
ATOM     22  C   UNL d   1     -38.010  13.671  15.350  0.00  0.00     0.304 A 
ATOM     23  O   UNL d   1     -38.261  14.430  15.164  0.00  0.00    -0.300 OA
ATOM     24  C   UNL d   1     -38.585  15.639  16.011  0.00  0.00     0.028 A 
ATOM     25  C   UNL d   1     -38.623  15.922  16.779  0.00  0.00     0.021 A 
ENDBRANCH  15  17
ENDBRANCH   1  14
TORSDOF 5
ENDMDL
MODEL 4
REMARK VINA RESULT:      -4.8      9.233     10.314
REMARK  5 active torsions:
REMARK  status: ('A' for Active; 'I' for Inactive)
REMARK    1  A    between atoms: C_7  and  N_1 
REMARK    2  A    between atoms: C_23  and  C_5 
REMARK    3  A    between atoms: C_22  and  C_6 
REMARK    4  A    between atoms: C_8  and  C_7 
REMARK       I    between atoms: N_11  and  C_8 
REMARK    5  A    between atoms: C_17  and  N_11 
ROOT
ATOM      1  C   UNL d   1     -38.139  14.667  20.044  0.00  0.00     0.148 C 
ENDROOT
BRANCH   1   2
ATOM      2  N   UNL d   1     -38.249  14.533  20.851  0.00  0.00    -0.235 N 
ATOM      3  C   UNL d   1     -38.164  13.767  21.159  0.00  0.00     0.273 A 
ATOM      4  C   UNL d   1     -38.273  13.635  21.958  0.00  0.00     0.086 A 
ATOM      5  O   UNL d   1     -37.969  13.140  20.655  0.00  0.00    -0.266 OA
ATOM      6  S   UNL d   1     -38.466  14.250  22.466  0.00  0.00    -0.077 SA
ATOM      7  C   UNL d   1     -38.551  15.011  22.166  0.00  0.00     0.086 A 
ATOM      8  C   UNL d   1     -38.444  15.160  21.360  0.00  0.00     0.273 A 
ATOM      9  O   UNL d   1     -38.529  15.922  21.057  0.00  0.00    -0.266 OA
BRANCH   4  10
ATOM     10  C   UNL d   1     -38.187  12.865  22.265  0.00  0.00     0.011 C 
ATOM     11  C   UNL d   1     -37.993  12.757  23.061  0.00  0.00     0.001 C 
ENDBRANCH   4  10
BRANCH   7  12
ATOM     12  C   UNL d   1     -38.745  15.635  22.670  0.00  0.00     0.011 C 
ATOM     13  C   UNL d   1     -38.376  15.700  23.406  0.00  0.00     0.001 C 
ENDBRANCH   7  12
ENDBRANCH   1   2
BRANCH   1  14
ATOM     14  C   UNL d   1     -38.788  14.833  19.564  0.00  0.00     0.297 C 
ATOM     15  N   UNL d   1     -38.903  14.404  18.878  0.00  0.00    -0.207 NA
ATOM     16  O   UNL d   1     -39.313  15.431  19.783  0.00  0.00    -0.264 OA
BRANCH  15  17
ATOM     17  C   UNL d   1     -39.552  14.570  18.398  0.00  0.00     0.087 A 
ATOM     18  C   UNL d   1     -39.509  15.180  17.846  0.00  0.00     0.045 A 
ATOM     19  C   UNL d   1     -40.148  15.353  17.365  0.00  0.00     0.121 A 
ATOM     20  O   UNL d   1     -40.266  15.922  16.772  0.00  0.00    -0.299 OA
ATOM     21  C   UNL d   1     -40.844  14.913  17.431  0.00  0.00     0.119 A 
ATOM     22  C   UNL d   1     -41.037  15.826  16.477  0.00  0.00     0.304 A 
ATOM     23  O   UNL d   1     -41.381  15.205  16.888  0.00  0.00    -0.300 OA
ATOM     24  C   UNL d   1     -40.879  14.299  17.988  0.00  0.00     0.028 A 
ATOM     25  C   UNL d   1     -40.238  14.129  18.469  0.00  0.00     0.021 A 
ENDBRANCH  15  17
ENDBRANCH   1  14
TORSDOF 5
ENDMDL
MODEL 5
REMARK VINA RESULT:      -4.7      1.696      4.914
REMARK  5 active torsions:
REMARK  status: ('A' for Active; 'I' for Inactive)
REMARK    1  A    between atoms: C_7  and  N_1 
REMARK    2  A    between atoms: C_23  and  C_5 
REMARK    3  A    between atoms: C_22  and  C_6 
REMARK    4  A    between atoms: C_8  and  C_7 
REMARK       I    between atoms: N_11  and  C_8 
REMARK    5  A    between atoms: C_17  and  N_11 
ROOT
ATOM      1  C   UNL d   1     -47.481  12.563  22.218  0.00  0.00     0.148 C 
ENDROOT
BRANCH   1   2
ATOM      2  N   UNL d   1     -46.698  12.411  22.432  0.00  0.00    -0.235 N 
ATOM      3  C   UNL d   1     -46.526  11.792  22.958  0.00  0.00     0.273 A 
ATOM      4  C   UNL d   1     -45.750  11.642  23.170  0.00  0.00     0.086 A 
ATOM      5  O   UNL d   1     -47.140  11.330  23.266  0.00  0.00    -0.266 OA
ATOM      6  S   UNL d   1     -45.135  12.095  22.870  0.00  0.00    -0.077 SA
ATOM      7  C   UNL d   1     -45.301  12.709  22.349  0.00  0.00     0.086 A 
ATOM      8  C   UNL d   1     -46.079  12.873  22.126  0.00  0.00     0.273 A 
ATOM      9  O   UNL d   1     -46.248  13.488  21.604  0.00  0.00    -0.266 OA
BRANCH   4  10
ATOM     10  C   UNL d   1     -45.580  11.021  23.698  0.00  0.00     0.011 C 
ATOM     11  C   UNL d   1     -44.944  10.515  23.548  0.00  0.00     0.001 C 
ENDBRANCH   4  10
BRANCH   7  12
ATOM     12  C   UNL d   1     -44.687  13.169  22.044  0.00  0.00     0.011 C 
ATOM     13  C   UNL d   1     -44.170  12.847  21.485  0.00  0.00     0.001 C 
ENDBRANCH   7  12
ENDBRANCH   1   2
BRANCH   1  14
ATOM     14  C   UNL d   1     -47.884  13.195  22.560  0.00  0.00     0.297 C 
ATOM     15  N   UNL d   1     -48.543  13.501  22.187  0.00  0.00    -0.207 NA
ATOM     16  O   UNL d   1     -47.615  13.511  23.275  0.00  0.00    -0.264 OA
BRANCH  15  17
ATOM     17  C   UNL d   1     -48.947  14.135  22.529  0.00  0.00     0.087 A 
ATOM     18  C   UNL d   1     -49.767  14.107  22.601  0.00  0.00     0.045 A 
ATOM     19  C   UNL d   1     -50.177  14.730  22.939  0.00  0.00     0.121 A 
ATOM     20  O   UNL d   1     -50.984  14.858  23.083  0.00  0.00    -0.299 OA
ATOM     21  C   UNL d   1     -49.766  15.394  23.209  0.00  0.00     0.119 A 
ATOM     22  C   UNL d   1     -51.064  15.602  23.444  0.00  0.00     0.304 A 
ATOM     23  O   UNL d   1     -50.311  15.921  23.516  0.00  0.00    -0.300 OA
ATOM     24  C   UNL d   1     -48.940  15.414  23.133  0.00  0.00     0.028 A 
ATOM     25  C   UNL d   1     -48.533  14.788  22.795  0.00  0.00     0.021 A 
ENDBRANCH  15  17
ENDBRANCH   1  14
TORSDOF 5
ENDMDL
MODEL 6
REMARK VINA RESULT:      -4.7      7.760     10.184
REMARK  5 active torsions:
REMARK  status: ('A' for Active; 'I' for Inactive)
REMARK    1  A    between atoms: C_7  and  N_1 
REMARK    2  A    between atoms: C_23  and  C_5 
REMARK    3  A    between atoms: C_22  and  C_6 
REMARK    4  A    between atoms: C_8  and  C_7 
REMARK       I    between atoms: N_11  and  C_8 
REMARK    5  A    between atoms: C_17  and  N_11 
ROOT
ATOM      1  C   UNL d   1     -39.543  15.922  19.215  0.00  0.00     0.148 C 
ENDROOT
BRANCH   1   2
ATOM      2  N   UNL d   1     -39.673  15.581  19.956  0.00  0.00    -0.235 N 
ATOM      3  C   UNL d   1     -40.414  15.251  20.133  0.00  0.00     0.273 A 
ATOM      4  C   UNL d   1     -40.543  14.913  20.867  0.00  0.00     0.086 A 
ATOM      5  O   UNL d   1     -41.018  15.264  19.567  0.00  0.00    -0.266 OA
ATOM      6  S   UNL d   1     -39.951  14.895  21.434  0.00  0.00    -0.077 SA
ATOM      7  C   UNL d   1     -39.216  15.221  21.263  0.00  0.00     0.086 A 
ATOM      8  C   UNL d   1     -39.070  15.565  20.526  0.00  0.00     0.273 A 
ATOM      9  O   UNL d   1     -38.334  15.893  20.352  0.00  0.00    -0.266 OA
BRANCH   4  10
ATOM     10  C   UNL d   1     -41.288  14.582  21.043  0.00  0.00     0.011 C 
ATOM     11  C   UNL d   1     -41.334  13.859  21.440  0.00  0.00     0.001 C 
ENDBRANCH   4  10
BRANCH   7  12
ATOM     12  C   UNL d   1     -38.615  15.206  21.829  0.00  0.00     0.011 C 
ATOM     13  C   UNL d   1     -38.805  15.118  22.628  0.00  0.00     0.001 C 
ENDBRANCH   7  12
ENDBRANCH   1   2
BRANCH   1  14
ATOM     14  C   UNL d   1     -39.167  15.487  18.625  0.00  0.00     0.297 C 
ATOM     15  N   UNL d   1     -39.604  15.194  17.999  0.00  0.00    -0.207 NA
ATOM     16  O   UNL d   1     -38.353  15.353  18.673  0.00  0.00    -0.264 OA
BRANCH  15  17
ATOM     17  C   UNL d   1     -39.228  14.759  17.408  0.00  0.00     0.087 A 
ATOM     18  C   UNL d   1     -38.948  15.140  16.733  0.00  0.00     0.045 A 
ATOM     19  C   UNL d   1     -38.574  14.717  16.140  0.00  0.00     0.121 A 
ATOM     20  O   UNL d   1     -38.242  14.943  15.414  0.00  0.00    -0.299 OA
ATOM     21  C   UNL d   1     -38.474  13.901  16.218  0.00  0.00     0.119 A 
ATOM     22  C   UNL d   1     -37.940  14.260  15.050  0.00  0.00     0.304 A 
ATOM     23  O   UNL d   1     -38.087  13.628  15.551  0.00  0.00    -0.300 OA
ATOM     24  C   UNL d   1     -38.758  13.524  16.901  0.00  0.00     0.028 A 
ATOM     25  C   UNL d   1     -39.133  13.951  17.492  0.00  0.00     0.021 A 
ENDBRANCH  15  17
ENDBRANCH   1  14
TORSDOF 5
ENDMDL
MODEL 7
REMARK VINA RESULT:      -4.0      8.670      9.572
REMARK  5 active torsions:
REMARK  status: ('A' for Active; 'I' for Inactive)
REMARK    1  A    between atoms: C_7  and  N_1 
REMARK    2  A    between atoms: C_23  and  C_5 
REMARK    3  A    between atoms: C_22  and  C_6 
REMARK    4  A    between atoms: C_8  and  C_7 
REMARK       I    between atoms: N_11  and  C_8 
REMARK    5  A    between atoms: C_17  and  N_11 
ROOT
ATOM      1  C   UNL d   1     -40.549  14.253  19.234  0.00  0.00     0.148 C 
ENDROOT
BRANCH   1   2
ATOM      2  N   UNL d   1     -40.344  14.444  18.458  0.00  0.00    -0.235 N 
ATOM      3  C   UNL d   1     -39.786  13.982  18.052  0.00  0.00     0.273 A 
ATOM      4  C   UNL d   1     -39.583  14.172  17.283  0.00  0.00     0.086 A 
ATOM      5  O   UNL d   1     -39.438  13.332  18.428  0.00  0.00    -0.266 OA
ATOM      6  S   UNL d   1     -39.923  14.814  16.902  0.00  0.00    -0.077 SA
ATOM      7  C   UNL d   1     -40.476  15.275  17.300  0.00  0.00     0.086 A 
ATOM      8  C   UNL d   1     -40.692  15.095  18.077  0.00  0.00     0.273 A 
ATOM      9  O   UNL d   1     -41.246  15.555  18.478  0.00  0.00    -0.266 OA
BRANCH   4  10
ATOM     10  C   UNL d   1     -39.023  13.707  16.878  0.00  0.00     0.011 C 
ATOM     11  C   UNL d   1     -38.534  14.053  16.309  0.00  0.00     0.001 C 
ENDBRANCH   4  10
BRANCH   7  12
ATOM     12  C   UNL d   1     -40.822  15.922  16.923  0.00  0.00     0.011 C 
ATOM     13  C   UNL d   1     -41.382  15.802  16.327  0.00  0.00     0.001 C 
ENDBRANCH   7  12
ENDBRANCH   1   2
BRANCH   1  14
ATOM     14  C   UNL d   1     -40.123  14.574  19.862  0.00  0.00     0.297 C 
ATOM     15  N   UNL d   1     -40.404  14.493  20.624  0.00  0.00    -0.207 NA
ATOM     16  O   UNL d   1     -39.416  14.975  19.711  0.00  0.00    -0.264 OA
BRANCH  15  17
ATOM     17  C   UNL d   1     -39.977  14.815  21.253  0.00  0.00     0.087 A 
ATOM     18  C   UNL d   1     -39.456  14.341  21.680  0.00  0.00     0.045 A 
ATOM     19  C   UNL d   1     -39.028  14.650  22.306  0.00  0.00     0.121 A 
ATOM     20  O   UNL d   1     -38.475  14.317  22.826  0.00  0.00    -0.299 OA
ATOM     21  C   UNL d   1     -39.118  15.445  22.511  0.00  0.00     0.119 A 
ATOM     22  C   UNL d   1     -38.228  14.912  23.350  0.00  0.00     0.304 A 
ATOM     23  O   UNL d   1     -38.628  15.599  23.148  0.00  0.00    -0.300 OA
ATOM     24  C   UNL d   1     -39.644  15.916  22.076  0.00  0.00     0.028 A 
ATOM     25  C   UNL d   1     -40.071  15.603  21.450  0.00  0.00     0.021 A 
ENDBRANCH  15  17
ENDBRANCH   1  14
TORSDOF 5
ENDMDL
