MODEL 1
REMARK VINA RESULT:      34.2      0.000      0.000
REMARK  5 active torsions:
REMARK  status: ('A' for Active; 'I' for Inactive)
REMARK    1  A    between atoms: C_2  and  S_1 
REMARK    2  A    between atoms: N_4  and  S_1 
REMARK    3  A    between atoms: C_11  and  N_4 
REMARK    4  A    between atoms: O_13  and  C_5 
REMARK    5  A    between atoms: O_14  and  C_6 
ROOT
ATOM      1  C   UNL d   1      13.556  13.525  -3.530  0.00  0.00     0.141 A 
ATOM      2  C   UNL d   1      13.686  14.332  -3.650  0.00  0.00     0.040 A 
ATOM      3  C   UNL d   1      13.170  13.088  -4.097  0.00  0.00     0.107 A 
ATOM      4  C   UNL d   1      13.429  14.695  -4.336  0.00  0.00     0.095 A 
ATOM      5  C   UNL d   1      12.907  13.442  -4.789  0.00  0.00     0.027 A 
ATOM      6  C   UNL d   1      13.038  14.248  -4.910  0.00  0.00     0.024 A 
ATOM      7  C   UNL d   1      12.773  14.610  -5.611  0.00  0.00     0.002 C 
ENDROOT
BRANCH   1   8
ATOM      8  S   UNL d   1      13.818  13.171  -2.836  0.00  0.00     0.329 S 
ATOM      9  O   UNL d   1      13.271  13.608  -2.408  0.00  0.00    -0.186 OA
ATOM     10  O   UNL d   1      14.367  12.732  -3.254  0.00  0.00    -0.186 OA
BRANCH   8  11
ATOM     11  N   UNL d   1      14.076  12.821  -2.136  0.00  0.00    -0.316 NA
BRANCH  11  12
ATOM     12  C   UNL d   1      14.332  12.474  -1.428  0.00  0.00     0.165 A 
ATOM     13  C   UNL d   1      15.133  12.384  -1.286  0.00  0.00     0.132 A 
ATOM     14  N   UNL d   1      15.389  12.036  -0.578  0.00  0.00    -0.240 NA
ATOM     15  C   UNL d   1      14.841  11.781  -0.016  0.00  0.00     0.099 A 
ATOM     16  C   UNL d   1      14.033  11.875  -0.166  0.00  0.00     0.023 A 
ATOM     17  C   UNL d   1      13.771  12.220  -0.867  0.00  0.00     0.036 A 
ENDBRANCH  11  12
ENDBRANCH   8  11
ENDBRANCH   1   8
BRANCH   3  18
ATOM     18  O   UNL d   1      13.039  12.280  -3.976  0.00  0.00    -0.327 OA
ATOM     19  C   UNL d   1      12.785  11.804  -4.609  0.00  0.00     0.181 C 
ENDBRANCH   3  18
BRANCH   4  20
ATOM     20  O   UNL d   1      13.560  15.501  -4.457  0.00  0.00    -0.328 OA
ATOM     21  C   UNL d   1      14.272  15.845  -4.222  0.00  0.00     0.181 C 
ENDBRANCH   4  20
TORSDOF 5
ENDMDL
MODEL 2
REMARK VINA RESULT:      36.5      1.621      2.262
REMARK  5 active torsions:
REMARK  status: ('A' for Active; 'I' for Inactive)
REMARK    1  A    between atoms: C_2  and  S_1 
REMARK    2  A    between atoms: N_4  and  S_1 
REMARK    3  A    between atoms: C_11  and  N_4 
REMARK    4  A    between atoms: O_13  and  C_5 
REMARK    5  A    between atoms: O_14  and  C_6 
ROOT
ATOM      1  C   UNL d   1      13.924  13.020  -2.966  0.00  0.00     0.141 A 
ATOM      2  C   UNL d   1      13.616  13.427  -3.616  0.00  0.00     0.040 A 
ATOM      3  C   UNL d   1      13.847  12.212  -2.920  0.00  0.00     0.107 A 
ATOM      4  C   UNL d   1      13.233  13.021  -4.214  0.00  0.00     0.095 A 
ATOM      5  C   UNL d   1      13.465  11.795  -3.514  0.00  0.00     0.027 A 
ATOM      6  C   UNL d   1      13.157  12.201  -4.164  0.00  0.00     0.024 A 
ATOM      7  C   UNL d   1      12.769  11.781  -4.769  0.00  0.00     0.002 C 
ENDROOT
BRANCH   1   8
ATOM      8  S   UNL d   1      14.306  13.439  -2.371  0.00  0.00     0.329 S 
ATOM      9  O   UNL d   1      14.664  13.914  -2.937  0.00  0.00    -0.186 OA
ATOM     10  O   UNL d   1      13.955  12.971  -1.800  0.00  0.00    -0.186 OA
BRANCH   8  11
ATOM     11  N   UNL d   1      14.694  13.864  -1.780  0.00  0.00    -0.316 NA
BRANCH  11  12
ATOM     12  C   UNL d   1      15.084  14.296  -1.190  0.00  0.00     0.165 A 
ATOM     13  C   UNL d   1      15.541  13.905  -0.635  0.00  0.00     0.132 A 
ATOM     14  N   UNL d   1      15.931  14.338  -0.045  0.00  0.00    -0.240 NA
ATOM     15  C   UNL d   1      15.861  15.160  -0.014  0.00  0.00     0.099 A 
ATOM     16  C   UNL d   1      15.397  15.548  -0.578  0.00  0.00     0.023 A 
ATOM     17  C   UNL d   1      15.007  15.125  -1.168  0.00  0.00     0.036 A 
ENDBRANCH  11  12
ENDBRANCH   8  11
ENDBRANCH   1   8
BRANCH   3  18
ATOM     18  O   UNL d   1      14.156  11.806  -2.269  0.00  0.00    -0.327 OA
ATOM     19  C   UNL d   1      13.753  11.825  -1.541  0.00  0.00     0.181 C 
ENDBRANCH   3  18
BRANCH   4  20
ATOM     20  O   UNL d   1      12.925  13.427  -4.864  0.00  0.00    -0.328 OA
ATOM     21  C   UNL d   1      12.780  14.238  -4.814  0.00  0.00     0.181 C 
ENDBRANCH   4  20
TORSDOF 5
ENDMDL
