MODEL 1
REMARK VINA RESULT:      49.5      0.000      0.000
REMARK  5 active torsions:
REMARK  status: ('A' for Active; 'I' for Inactive)
REMARK    1  A    between atoms: S_5  and  C_2 
REMARK    2  A    between atoms: C_16  and  S_5 
REMARK    3  A    between atoms: N_13  and  C_10 
REMARK    4  A    between atoms: C_23  and  N_13 
REMARK    5  A    between atoms: C_18  and  C_23 
ROOT
ATOM      1  C   UNL d   1      14.156  13.088  -2.376  0.00  0.00     0.198 A 
ATOM      2  C   UNL d   1      13.771  12.917  -3.083  0.00  0.00     0.227 A 
ATOM      3  N   UNL d   1      14.231  12.387  -1.951  0.00  0.00    -0.192 N 
ATOM      4  N   UNL d   1      14.448  13.794  -2.064  0.00  0.00    -0.205 NA
ATOM      5  N   UNL d   1      13.607  12.114  -3.099  0.00  0.00    -0.115 NA
ATOM      6  N   UNL d   1      13.891  11.780  -2.399  0.00  0.00    -0.058 NA
ATOM      7  C   UNL d   1      14.599  12.391  -1.215  0.00  0.00     0.096 A 
ATOM      8  C   UNL d   1      14.891  13.097  -0.903  0.00  0.00     0.083 A 
ATOM      9  C   UNL d   1      14.818  13.800  -1.322  0.00  0.00     0.172 A 
ATOM     10  S   UNL d   1      15.230  12.934  -0.158  0.00  0.00    -0.082 SA
ATOM     11  C   UNL d   1      14.752  11.780  -0.668  0.00  0.00     0.027 A 
ATOM     12  C   UNL d   1      15.143  12.118  -0.015  0.00  0.00     0.037 A 
ENDROOT
BRANCH   2  13
ATOM     13  S   UNL d   1      13.580  13.464  -3.680  0.00  0.00     0.231 S 
ATOM     14  O   UNL d   1      12.769  13.304  -3.596  0.00  0.00    -0.215 OA
ATOM     15  O   UNL d   1      14.390  13.620  -3.759  0.00  0.00    -0.215 OA
BRANCH  13  16
ATOM     16  C   UNL d   1      13.429  14.016  -4.277  0.00  0.00     0.090 A 
ATOM     17  C   UNL d   1      13.001  14.699  -4.119  0.00  0.00     0.011 A 
ATOM     18  C   UNL d   1      12.850  15.249  -4.714  0.00  0.00     0.001 A 
ATOM     19  C   UNL d   1      13.133  15.114  -5.480  0.00  0.00     0.000 A 
ATOM     20  C   UNL d   1      13.570  14.419  -5.644  0.00  0.00     0.001 A 
ATOM     21  C   UNL d   1      13.716  13.871  -5.037  0.00  0.00     0.011 A 
ENDBRANCH  13  16
ENDBRANCH   2  13
BRANCH   9  22
ATOM     22  N   UNL d   1      15.113  14.512  -1.007  0.00  0.00    -0.223 NA
BRANCH  22  23
ATOM     23  C   UNL d   1      14.659  15.199  -1.042  0.00  0.00     0.125 C 
BRANCH  23  24
ATOM     24  C   UNL d   1      15.018  15.937  -0.959  0.00  0.00     0.119 A 
ATOM     25  O   UNL d   1      15.568  16.149  -0.385  0.00  0.00    -0.304 OA
ATOM     26  C   UNL d   1      15.779  16.941  -0.510  0.00  0.00     0.123 A 
ATOM     27  C   UNL d   1      15.359  17.219  -1.163  0.00  0.00     0.029 A 
ATOM     28  C   UNL d   1      14.888  16.598  -1.440  0.00  0.00     0.028 A 
ENDBRANCH  23  24
ENDBRANCH  22  23
ENDBRANCH   9  22
TORSDOF 5
ENDMDL
MODEL 2
REMARK VINA RESULT:      50.7      1.556      3.134
REMARK  5 active torsions:
REMARK  status: ('A' for Active; 'I' for Inactive)
REMARK    1  A    between atoms: S_5  and  C_2 
REMARK    2  A    between atoms: C_16  and  S_5 
REMARK    3  A    between atoms: N_13  and  C_10 
REMARK    4  A    between atoms: C_23  and  N_13 
REMARK    5  A    between atoms: C_18  and  C_23 
ROOT
ATOM      1  C   UNL d   1      14.187  14.922  -2.922  0.00  0.00     0.198 A 
ATOM      2  C   UNL d   1      13.905  14.726  -3.670  0.00  0.00     0.227 A 
ATOM      3  N   UNL d   1      14.431  15.708  -2.939  0.00  0.00    -0.192 N 
ATOM      4  N   UNL d   1      14.252  14.485  -2.225  0.00  0.00    -0.205 NA
ATOM      5  N   UNL d   1      13.974  15.386  -4.150  0.00  0.00    -0.115 NA
ATOM      6  N   UNL d   1      14.299  15.998  -3.703  0.00  0.00    -0.058 NA
ATOM      7  C   UNL d   1      14.741  16.057  -2.261  0.00  0.00     0.096 A 
ATOM      8  C   UNL d   1      14.806  15.619  -1.564  0.00  0.00     0.083 A 
ATOM      9  C   UNL d   1      14.564  14.834  -1.541  0.00  0.00     0.172 A 
ATOM     10  S   UNL d   1      15.134  16.110  -0.975  0.00  0.00    -0.082 SA
ATOM     11  C   UNL d   1      15.028  16.826  -2.115  0.00  0.00     0.027 A 
ATOM     12  C   UNL d   1      15.271  16.857  -1.318  0.00  0.00     0.037 A 
ENDROOT
BRANCH   2  13
ATOM     13  S   UNL d   1      13.603  13.986  -3.899  0.00  0.00     0.231 S 
ATOM     14  O   UNL d   1      13.128  13.946  -3.218  0.00  0.00    -0.215 OA
ATOM     15  O   UNL d   1      14.079  14.032  -4.576  0.00  0.00    -0.215 OA
BRANCH  13  16
ATOM     16  C   UNL d   1      13.325  13.252  -4.160  0.00  0.00     0.090 A 
ATOM     17  C   UNL d   1      13.227  13.101  -4.962  0.00  0.00     0.011 A 
ATOM     18  C   UNL d   1      12.950  12.370  -5.221  0.00  0.00     0.001 A 
ATOM     19  C   UNL d   1      12.769  11.779  -4.670  0.00  0.00     0.000 A 
ATOM     20  C   UNL d   1      12.868  11.930  -3.853  0.00  0.00     0.001 A 
ATOM     21  C   UNL d   1      13.148  12.671  -3.602  0.00  0.00     0.011 A 
ENDBRANCH  13  16
ENDBRANCH   2  13
BRANCH   9  22
ATOM     22  N   UNL d   1      14.629  14.393  -0.837  0.00  0.00    -0.223 NA
BRANCH  22  23
ATOM     23  C   UNL d   1      15.183  13.784  -0.782  0.00  0.00     0.125 C 
BRANCH  23  24
ATOM     24  C   UNL d   1      14.958  13.046  -0.490  0.00  0.00     0.119 A 
ATOM     25  O   UNL d   1      15.454  12.405  -0.353  0.00  0.00    -0.304 OA
ATOM     26  C   UNL d   1      14.994  11.780  -0.061  0.00  0.00     0.123 A 
ATOM     27  C   UNL d   1      14.211  12.035  -0.018  0.00  0.00     0.029 A 
ATOM     28  C   UNL d   1      14.189  12.818  -0.283  0.00  0.00     0.028 A 
ENDBRANCH  23  24
ENDBRANCH  22  23
ENDBRANCH   9  22
TORSDOF 5
ENDMDL
MODEL 3
REMARK VINA RESULT:      51.6      1.613      4.552
REMARK  5 active torsions:
REMARK  status: ('A' for Active; 'I' for Inactive)
REMARK    1  A    between atoms: S_5  and  C_2 
REMARK    2  A    between atoms: C_16  and  S_5 
REMARK    3  A    between atoms: N_13  and  C_10 
REMARK    4  A    between atoms: C_23  and  N_13 
REMARK    5  A    between atoms: C_18  and  C_23 
ROOT
ATOM      1  C   UNL d   1      14.936  15.325  -1.469  0.00  0.00     0.198 A 
ATOM      2  C   UNL d   1      15.074  14.962  -0.743  0.00  0.00     0.227 A 
ATOM      3  N   UNL d   1      15.201  16.103  -1.419  0.00  0.00    -0.192 N 
ATOM      4  N   UNL d   1      14.601  15.047  -2.170  0.00  0.00    -0.205 NA
ATOM      5  N   UNL d   1      15.424  15.510  -0.245  0.00  0.00    -0.115 NA
ATOM      6  N   UNL d   1      15.505  16.219  -0.658  0.00  0.00    -0.058 NA
ATOM      7  C   UNL d   1      15.132  16.603  -2.069  0.00  0.00     0.096 A 
ATOM      8  C   UNL d   1      14.797  16.325  -2.770  0.00  0.00     0.083 A 
ATOM      9  C   UNL d   1      14.531  15.549  -2.826  0.00  0.00     0.172 A 
ATOM     10  S   UNL d   1      14.799  16.946  -3.327  0.00  0.00    -0.082 SA
ATOM     11  C   UNL d   1      15.347  17.401  -2.180  0.00  0.00     0.027 A 
ATOM     12  C   UNL d   1      15.140  17.611  -2.959  0.00  0.00     0.037 A 
ENDROOT
BRANCH   2  13
ATOM     13  S   UNL d   1      14.892  14.174  -0.550  0.00  0.00     0.231 S 
ATOM     14  O   UNL d   1      14.150  14.398  -0.249  0.00  0.00    -0.215 OA
ATOM     15  O   UNL d   1      15.632  13.956  -0.851  0.00  0.00    -0.215 OA
BRANCH  13  16
ATOM     16  C   UNL d   1      14.745  13.379  -0.371  0.00  0.00     0.090 A 
ATOM     17  C   UNL d   1      15.365  12.864  -0.210  0.00  0.00     0.011 A 
ATOM     18  C   UNL d   1      15.219  12.073  -0.033  0.00  0.00     0.001 A 
ATOM     19  C   UNL d   1      14.441  11.792  -0.016  0.00  0.00     0.000 A 
ATOM     20  C   UNL d   1      13.807  12.314  -0.179  0.00  0.00     0.001 A 
ATOM     21  C   UNL d   1      13.966  13.110  -0.357  0.00  0.00     0.011 A 
ENDBRANCH  13  16
ENDBRANCH   2  13
BRANCH   9  22
ATOM     22  N   UNL d   1      14.193  15.269  -3.534  0.00  0.00    -0.223 NA
BRANCH  22  23
ATOM     23  C   UNL d   1      13.454  14.905  -3.523  0.00  0.00     0.125 C 
BRANCH  23  24
ATOM     24  C   UNL d   1      13.326  14.216  -3.958  0.00  0.00     0.119 A 
ATOM     25  O   UNL d   1      13.554  13.455  -3.744  0.00  0.00    -0.304 OA
ATOM     26  C   UNL d   1      13.313  12.935  -4.344  0.00  0.00     0.123 A 
ATOM     27  C   UNL d   1      12.935  13.376  -4.930  0.00  0.00     0.029 A 
ATOM     28  C   UNL d   1      12.943  14.167  -4.691  0.00  0.00     0.028 A 
ENDBRANCH  23  24
ENDBRANCH  22  23
ENDBRANCH   9  22
TORSDOF 5
ENDMDL
