MODEL 1
REMARK VINA RESULT:      -8.1      0.000      0.000
REMARK  3 active torsions:
REMARK  status: ('A' for Active; 'I' for Inactive)
REMARK    1  A    between atoms: N_10  and  C_3 
REMARK    2  A    between atoms: C_11  and  C_5 
REMARK    3  A    between atoms: C_13  and  N_10 
ROOT
ATOM      1  N   UNL d   1     -47.951  13.281  23.102  0.00  0.00    -0.184 N 
ATOM      2  C   UNL d   1     -48.719  13.619  23.089  0.00  0.00     0.168 A 
ATOM      3  C   UNL d   1     -47.862  12.476  23.268  0.00  0.00     0.217 A 
ATOM      4  N   UNL d   1     -47.389  14.545  22.787  0.00  0.00    -0.162 NA
ATOM      5  C   UNL d   1     -48.807  14.405  22.928  0.00  0.00     0.055 A 
ATOM      6  N   UNL d   1     -49.370  13.140  23.243  0.00  0.00    -0.227 NA
ATOM      7  C   UNL d   1     -48.514  12.016  23.417  0.00  0.00     0.066 A 
ATOM      8  C   UNL d   1     -48.145  14.878  22.774  0.00  0.00     0.104 A 
ATOM      9  C   UNL d   1     -49.285  12.346  23.407  0.00  0.00     0.087 A 
ATOM     10  C   UNL d   1     -48.600  11.229  23.593  0.00  0.00     0.006 A 
ATOM     11  C   UNL d   1     -48.243  15.674  22.611  0.00  0.00     0.023 C 
ATOM     12  C   UNL d   1     -49.826  11.755  23.576  0.00  0.00     0.019 A 
ATOM     13  C   UNL d   1     -49.393  11.056  23.692  0.00  0.00     0.002 A 
ENDROOT
BRANCH   3  14
ATOM     14  N   UNL d   1     -47.089  12.131  23.281  0.00  0.00    -0.383 NA
BRANCH  14  15
ATOM     15  C   UNL d   1     -46.319  11.784  23.293  0.00  0.00     0.134 A 
ATOM     16  C   UNL d   1     -46.206  11.043  23.681  0.00  0.00     0.032 A 
ATOM     17  C   UNL d   1     -45.444  10.692  23.696  0.00  0.00     0.003 A 
ATOM     18  C   UNL d   1     -44.783  11.079  23.322  0.00  0.00     0.000 A 
ATOM     19  C   UNL d   1     -44.911  11.818  22.939  0.00  0.00     0.003 A 
ATOM     20  C   UNL d   1     -45.677  12.172  22.923  0.00  0.00     0.032 A 
ENDBRANCH  14  15
ENDBRANCH   3  14
BRANCH   5  21
ATOM     21  C   UNL d   1     -49.559  14.736  22.915  0.00  0.00     0.004 A 
ATOM     22  C   UNL d   1     -49.878  15.062  23.599  0.00  0.00     0.000 A 
ATOM     23  C   UNL d   1     -50.626  15.392  23.590  0.00  0.00     0.000 A 
ATOM     24  C   UNL d   1     -51.063  15.399  22.891  0.00  0.00     0.000 A 
ATOM     25  C   UNL d   1     -50.755  15.080  22.212  0.00  0.00     0.000 A 
ATOM     26  C   UNL d   1     -49.995  14.745  22.225  0.00  0.00     0.000 A 
ENDBRANCH   5  21
TORSDOF 3
ENDMDL
MODEL 2
REMARK VINA RESULT:      -7.9      8.313      9.908
REMARK  3 active torsions:
REMARK  status: ('A' for Active; 'I' for Inactive)
REMARK    1  A    between atoms: N_10  and  C_3 
REMARK    2  A    between atoms: C_11  and  C_5 
REMARK    3  A    between atoms: C_13  and  N_10 
ROOT
ATOM      1  N   UNL d   1     -39.205  14.575  20.067  0.00  0.00    -0.184 N 
ATOM      2  C   UNL d   1     -39.542  14.841  19.347  0.00  0.00     0.168 A 
ATOM      3  C   UNL d   1     -39.566  14.771  20.785  0.00  0.00     0.217 A 
ATOM      4  N   UNL d   1     -38.167  13.932  19.344  0.00  0.00    -0.162 NA
ATOM      5  C   UNL d   1     -39.191  14.650  18.646  0.00  0.00     0.055 A 
ATOM      6  N   UNL d   1     -40.229  15.293  19.370  0.00  0.00    -0.227 NA
ATOM      7  C   UNL d   1     -40.243  15.218  20.791  0.00  0.00     0.066 A 
ATOM      8  C   UNL d   1     -38.499  14.194  18.635  0.00  0.00     0.104 A 
ATOM      9  C   UNL d   1     -40.587  15.488  20.075  0.00  0.00     0.087 A 
ATOM     10  C   UNL d   1     -40.713  15.493  21.393  0.00  0.00     0.006 A 
ATOM     11  C   UNL d   1     -38.149  14.005  17.920  0.00  0.00     0.023 C 
ATOM     12  C   UNL d   1     -41.259  15.921  20.254  0.00  0.00     0.019 A 
ATOM     13  C   UNL d   1     -41.335  15.922  21.082  0.00  0.00     0.002 A 
ENDROOT
BRANCH   3  14
ATOM     14  N   UNL d   1     -39.228  14.504  21.515  0.00  0.00    -0.383 NA
BRANCH  14  15
ATOM     15  C   UNL d   1     -38.888  14.238  22.240  0.00  0.00     0.134 A 
ATOM     16  C   UNL d   1     -38.354  14.743  22.655  0.00  0.00     0.032 A 
ATOM     17  C   UNL d   1     -38.012  14.485  23.377  0.00  0.00     0.003 A 
ATOM     18  C   UNL d   1     -38.200  13.717  23.693  0.00  0.00     0.000 A 
ATOM     19  C   UNL d   1     -38.735  13.224  23.268  0.00  0.00     0.003 A 
ATOM     20  C   UNL d   1     -39.079  13.482  22.542  0.00  0.00     0.032 A 
ENDBRANCH  14  15
ENDBRANCH   3  14
BRANCH   5  21
ATOM     21  C   UNL d   1     -39.521  14.910  17.941  0.00  0.00     0.004 A 
ATOM     22  C   UNL d   1     -40.101  14.465  17.567  0.00  0.00     0.000 A 
ATOM     23  C   UNL d   1     -40.432  14.721  16.865  0.00  0.00     0.000 A 
ATOM     24  C   UNL d   1     -40.182  15.432  16.529  0.00  0.00     0.000 A 
ATOM     25  C   UNL d   1     -39.610  15.877  16.891  0.00  0.00     0.000 A 
ATOM     26  C   UNL d   1     -39.276  15.614  17.605  0.00  0.00     0.000 A 
ENDBRANCH   5  21
TORSDOF 3
ENDMDL
MODEL 3
REMARK VINA RESULT:      -7.7      0.693      1.077
REMARK  3 active torsions:
REMARK  status: ('A' for Active; 'I' for Inactive)
REMARK    1  A    between atoms: N_10  and  C_3 
REMARK    2  A    between atoms: C_11  and  C_5 
REMARK    3  A    between atoms: C_13  and  N_10 
ROOT
ATOM      1  N   UNL d   1     -47.601  13.659  22.660  0.00  0.00    -0.184 N 
ATOM      2  C   UNL d   1     -48.409  13.831  22.810  0.00  0.00     0.168 A 
ATOM      3  C   UNL d   1     -47.311  12.899  22.807  0.00  0.00     0.217 A 
ATOM      4  N   UNL d   1     -47.397  14.994  22.225  0.00  0.00    -0.162 NA
ATOM      5  C   UNL d   1     -48.693  14.573  22.667  0.00  0.00     0.055 A 
ATOM      6  N   UNL d   1     -48.897  13.237  23.102  0.00  0.00    -0.227 NA
ATOM      7  C   UNL d   1     -47.806  12.323  23.095  0.00  0.00     0.066 A 
ATOM      8  C   UNL d   1     -48.192  15.164  22.373  0.00  0.00     0.104 A 
ATOM      9  C   UNL d   1     -48.614  12.487  23.248  0.00  0.00     0.087 A 
ATOM     10  C   UNL d   1     -47.685  11.544  23.290  0.00  0.00     0.006 A 
ATOM     11  C   UNL d   1     -48.488  15.913  22.230  0.00  0.00     0.023 C 
ATOM     12  C   UNL d   1     -48.971  11.806  23.532  0.00  0.00     0.019 A 
ATOM     13  C   UNL d   1     -48.385  11.218  23.557  0.00  0.00     0.002 A 
ENDROOT
BRANCH   3  14
ATOM     14  N   UNL d   1     -46.497  12.721  22.657  0.00  0.00    -0.383 NA
BRANCH  14  15
ATOM     15  C   UNL d   1     -45.685  12.547  22.504  0.00  0.00     0.134 A 
ATOM     16  C   UNL d   1     -45.300  11.947  22.956  0.00  0.00     0.032 A 
ATOM     17  C   UNL d   1     -44.493  11.769  22.810  0.00  0.00     0.003 A 
ATOM     18  C   UNL d   1     -44.060  12.189  22.209  0.00  0.00     0.000 A 
ATOM     19  C   UNL d   1     -44.457  12.785  21.765  0.00  0.00     0.003 A 
ATOM     20  C   UNL d   1     -45.269  12.965  21.911  0.00  0.00     0.032 A 
ENDBRANCH  14  15
ENDBRANCH   3  14
BRANCH   5  21
ATOM     21  C   UNL d   1     -49.483  14.742  22.813  0.00  0.00     0.004 A 
ATOM     22  C   UNL d   1     -50.043  14.644  22.221  0.00  0.00     0.000 A 
ATOM     23  C   UNL d   1     -50.831  14.811  22.363  0.00  0.00     0.000 A 
ATOM     24  C   UNL d   1     -51.064  15.079  23.108  0.00  0.00     0.000 A 
ATOM     25  C   UNL d   1     -50.518  15.178  23.698  0.00  0.00     0.000 A 
ATOM     26  C   UNL d   1     -49.718  15.008  23.549  0.00  0.00     0.000 A 
ENDBRANCH   5  21
TORSDOF 3
ENDMDL
MODEL 4
REMARK VINA RESULT:      -7.2      8.808     10.839
REMARK  3 active torsions:
REMARK  status: ('A' for Active; 'I' for Inactive)
REMARK    1  A    between atoms: N_10  and  C_3 
REMARK    2  A    between atoms: C_11  and  C_5 
REMARK    3  A    between atoms: C_13  and  N_10 
ROOT
ATOM      1  N   UNL d   1     -39.042  14.740  18.151  0.00  0.00    -0.184 N 
ATOM      2  C   UNL d   1     -39.408  14.940  18.879  0.00  0.00     0.168 A 
ATOM      3  C   UNL d   1     -39.416  14.932  17.438  0.00  0.00     0.217 A 
ATOM      4  N   UNL d   1     -37.950  14.171  18.856  0.00  0.00    -0.162 NA
ATOM      5  C   UNL d   1     -39.043  14.754  19.574  0.00  0.00     0.055 A 
ATOM      6  N   UNL d   1     -40.135  15.324  18.868  0.00  0.00    -0.227 NA
ATOM      7  C   UNL d   1     -40.134  15.310  17.445  0.00  0.00     0.066 A 
ATOM      8  C   UNL d   1     -38.311  14.368  19.573  0.00  0.00     0.104 A 
ATOM      9  C   UNL d   1     -40.507  15.514  18.168  0.00  0.00     0.087 A 
ATOM     10  C   UNL d   1     -40.625  15.564  16.850  0.00  0.00     0.006 A 
ATOM     11  C   UNL d   1     -37.948  14.182  20.282  0.00  0.00     0.023 C 
ATOM     12  C   UNL d   1     -41.217  15.887  18.001  0.00  0.00     0.019 A 
ATOM     13  C   UNL d   1     -41.287  15.916  17.174  0.00  0.00     0.002 A 
ENDROOT
BRANCH   3  14
ATOM     14  N   UNL d   1     -39.050  14.731  16.701  0.00  0.00    -0.383 NA
BRANCH  14  15
ATOM     15  C   UNL d   1     -38.681  14.531  15.969  0.00  0.00     0.134 A 
ATOM     16  C   UNL d   1     -38.310  15.136  15.514  0.00  0.00     0.032 A 
ATOM     17  C   UNL d   1     -37.942  14.944  14.785  0.00  0.00     0.003 A 
ATOM     18  C   UNL d   1     -37.940  14.141  14.501  0.00  0.00     0.000 A 
ATOM     19  C   UNL d   1     -38.314  13.546  14.966  0.00  0.00     0.003 A 
ATOM     20  C   UNL d   1     -38.685  13.739  15.699  0.00  0.00     0.032 A 
ENDBRANCH  14  15
ENDBRANCH   3  14
BRANCH   5  21
ATOM     21  C   UNL d   1     -39.402  14.950  20.286  0.00  0.00     0.004 A 
ATOM     22  C   UNL d   1     -39.221  15.659  20.658  0.00  0.00     0.000 A 
ATOM     23  C   UNL d   1     -39.576  15.858  21.368  0.00  0.00     0.000 A 
ATOM     24  C   UNL d   1     -40.119  15.341  21.713  0.00  0.00     0.000 A 
ATOM     25  C   UNL d   1     -40.302  14.639  21.352  0.00  0.00     0.000 A 
ATOM     26  C   UNL d   1     -39.940  14.441  20.631  0.00  0.00     0.000 A 
ENDBRANCH   5  21
TORSDOF 3
ENDMDL
MODEL 5
REMARK VINA RESULT:      -6.5      1.000      4.417
REMARK  3 active torsions:
REMARK  status: ('A' for Active; 'I' for Inactive)
REMARK    1  A    between atoms: N_10  and  C_3 
REMARK    2  A    between atoms: C_11  and  C_5 
REMARK    3  A    between atoms: C_13  and  N_10 
ROOT
ATOM      1  N   UNL d   1     -47.753  13.807  22.771  0.00  0.00    -0.184 N 
ATOM      2  C   UNL d   1     -47.129  13.253  22.686  0.00  0.00     0.168 A 
ATOM      3  C   UNL d   1     -48.534  13.539  22.822  0.00  0.00     0.217 A 
ATOM      4  N   UNL d   1     -46.813  14.870  22.750  0.00  0.00    -0.162 NA
ATOM      5  C   UNL d   1     -46.366  13.514  22.635  0.00  0.00     0.055 A 
ATOM      6  N   UNL d   1     -47.307  12.451  22.656  0.00  0.00    -0.227 NA
ATOM      7  C   UNL d   1     -48.694  12.744  22.791  0.00  0.00     0.066 A 
ATOM      8  C   UNL d   1     -46.198  14.325  22.666  0.00  0.00     0.104 A 
ATOM      9  C   UNL d   1     -48.075  12.183  22.706  0.00  0.00     0.087 A 
ATOM     10  C   UNL d   1     -49.386  12.322  22.827  0.00  0.00     0.006 A 
ATOM     11  C   UNL d   1     -45.423  14.581  22.614  0.00  0.00     0.023 C 
ATOM     12  C   UNL d   1     -48.402  11.432  22.692  0.00  0.00     0.019 A 
ATOM     13  C   UNL d   1     -49.224  11.523  22.768  0.00  0.00     0.002 A 
ENDROOT
BRANCH   3  14
ATOM     14  N   UNL d   1     -49.167  14.095  22.908  0.00  0.00    -0.383 NA
BRANCH  14  15
ATOM     15  C   UNL d   1     -49.797  14.650  22.990  0.00  0.00     0.134 A 
ATOM     16  C   UNL d   1     -50.425  14.648  22.426  0.00  0.00     0.032 A 
ATOM     17  C   UNL d   1     -51.055  15.197  22.500  0.00  0.00     0.003 A 
ATOM     18  C   UNL d   1     -51.064  15.757  23.143  0.00  0.00     0.000 A 
ATOM     19  C   UNL d   1     -50.432  15.748  23.698  0.00  0.00     0.003 A 
ATOM     20  C   UNL d   1     -49.797  15.196  23.624  0.00  0.00     0.032 A 
ENDBRANCH  14  15
ENDBRANCH   3  14
BRANCH   5  21
ATOM     21  C   UNL d   1     -45.755  12.972  22.552  0.00  0.00     0.004 A 
ATOM     22  C   UNL d   1     -45.306  12.959  21.865  0.00  0.00     0.000 A 
ATOM     23  C   UNL d   1     -44.696  12.420  21.778  0.00  0.00     0.000 A 
ATOM     24  C   UNL d   1     -44.532  11.887  22.386  0.00  0.00     0.000 A 
ATOM     25  C   UNL d   1     -44.971  11.893  23.067  0.00  0.00     0.000 A 
ATOM     26  C   UNL d   1     -45.589  12.442  23.151  0.00  0.00     0.000 A 
ENDBRANCH   5  21
TORSDOF 3
ENDMDL
MODEL 6
REMARK VINA RESULT:      -5.3      8.216     10.744
REMARK  3 active torsions:
REMARK  status: ('A' for Active; 'I' for Inactive)
REMARK    1  A    between atoms: N_10  and  C_3 
REMARK    2  A    between atoms: C_11  and  C_5 
REMARK    3  A    between atoms: C_13  and  N_10 
ROOT
ATOM      1  N   UNL d   1     -39.919  14.830  18.200  0.00  0.00    -0.184 N 
ATOM      2  C   UNL d   1     -39.379  14.701  17.570  0.00  0.00     0.168 A 
ATOM      3  C   UNL d   1     -39.767  14.501  18.943  0.00  0.00     0.217 A 
ATOM      4  N   UNL d   1     -40.738  15.605  17.338  0.00  0.00    -0.162 NA
ATOM      5  C   UNL d   1     -39.527  15.022  16.845  0.00  0.00     0.055 A 
ATOM      6  N   UNL d   1     -38.707  14.247  17.707  0.00  0.00    -0.227 NA
ATOM      7  C   UNL d   1     -39.099  14.056  19.062  0.00  0.00     0.066 A 
ATOM      8  C   UNL d   1     -40.207  15.477  16.718  0.00  0.00     0.104 A 
ATOM      9  C   UNL d   1     -38.554  13.921  18.438  0.00  0.00     0.087 A 
ATOM     10  C   UNL d   1     -38.806  13.670  19.714  0.00  0.00     0.006 A 
ATOM     11  C   UNL d   1     -40.349  15.799  15.980  0.00  0.00     0.023 C 
ATOM     12  C   UNL d   1     -37.941  13.457  18.721  0.00  0.00     0.019 A 
ATOM     13  C   UNL d   1     -38.102  13.302  19.521  0.00  0.00     0.002 A 
ENDROOT
BRANCH   3  14
ATOM     14  N   UNL d   1     -40.309  14.630  19.581  0.00  0.00    -0.383 NA
BRANCH  14  15
ATOM     15  C   UNL d   1     -40.851  14.754  20.216  0.00  0.00     0.134 A 
ATOM     16  C   UNL d   1     -40.960  15.534  20.519  0.00  0.00     0.032 A 
ATOM     17  C   UNL d   1     -41.497  15.666  21.150  0.00  0.00     0.003 A 
ATOM     18  C   UNL d   1     -41.934  15.016  21.487  0.00  0.00     0.000 A 
ATOM     19  C   UNL d   1     -41.815  14.243  21.174  0.00  0.00     0.003 A 
ATOM     20  C   UNL d   1     -41.275  14.110  20.540  0.00  0.00     0.032 A 
ENDBRANCH  14  15
ENDBRANCH   3  14
BRANCH   5  21
ATOM     21  C   UNL d   1     -38.999  14.895  16.229  0.00  0.00     0.004 A 
ATOM     22  C   UNL d   1     -38.469  15.484  16.011  0.00  0.00     0.000 A 
ATOM     23  C   UNL d   1     -37.942  15.361  15.398  0.00  0.00     0.000 A 
ATOM     24  C   UNL d   1     -37.941  14.641  14.996  0.00  0.00     0.000 A 
ATOM     25  C   UNL d   1     -38.461  14.055  15.204  0.00  0.00     0.000 A 
ATOM     26  C   UNL d   1     -38.995  14.183  15.828  0.00  0.00     0.000 A 
ENDBRANCH   5  21
TORSDOF 3
ENDMDL
MODEL 7
REMARK VINA RESULT:      -5.1      8.035     10.632
REMARK  3 active torsions:
REMARK  status: ('A' for Active; 'I' for Inactive)
REMARK    1  A    between atoms: N_10  and  C_3 
REMARK    2  A    between atoms: C_11  and  C_5 
REMARK    3  A    between atoms: C_13  and  N_10 
ROOT
ATOM      1  N   UNL d   1     -39.847  13.948  18.213  0.00  0.00    -0.184 N 
ATOM      2  C   UNL d   1     -39.541  14.065  17.441  0.00  0.00     0.168 A 
ATOM      3  C   UNL d   1     -40.489  14.402  18.472  0.00  0.00     0.217 A 
ATOM      4  N   UNL d   1     -38.875  12.941  18.446  0.00  0.00    -0.162 NA
ATOM      5  C   UNL d   1     -38.915  13.623  17.188  0.00  0.00     0.055 A 
ATOM      6  N   UNL d   1     -39.887  14.631  16.955  0.00  0.00    -0.227 NA
ATOM      7  C   UNL d   1     -40.819  14.957  17.980  0.00  0.00     0.066 A 
ATOM      8  C   UNL d   1     -38.574  13.056  17.686  0.00  0.00     0.104 A 
ATOM      9  C   UNL d   1     -40.519  15.080  17.206  0.00  0.00     0.087 A 
ATOM     10  C   UNL d   1     -41.438  15.473  18.075  0.00  0.00     0.006 A 
ATOM     11  C   UNL d   1     -37.940  12.612  17.422  0.00  0.00     0.023 C 
ATOM     12  C   UNL d   1     -40.960  15.668  16.845  0.00  0.00     0.019 A 
ATOM     13  C   UNL d   1     -41.535  15.912  17.392  0.00  0.00     0.002 A 
ENDROOT
BRANCH   3  14
ATOM     14  N   UNL d   1     -40.801  14.287  19.251  0.00  0.00    -0.383 NA
BRANCH  14  15
ATOM     15  C   UNL d   1     -41.108  14.173  20.028  0.00  0.00     0.134 A 
ATOM     16  C   UNL d   1     -41.754  13.642  20.143  0.00  0.00     0.032 A 
ATOM     17  C   UNL d   1     -42.065  13.523  20.914  0.00  0.00     0.003 A 
ATOM     18  C   UNL d   1     -41.732  13.936  21.581  0.00  0.00     0.000 A 
ATOM     19  C   UNL d   1     -41.088  14.462  21.452  0.00  0.00     0.003 A 
ATOM     20  C   UNL d   1     -40.774  14.582  20.677  0.00  0.00     0.032 A 
ENDBRANCH  14  15
ENDBRANCH   3  14
BRANCH   5  21
ATOM     21  C   UNL d   1     -38.615  13.737  16.432  0.00  0.00     0.004 A 
ATOM     22  C   UNL d   1     -38.686  13.147  15.866  0.00  0.00     0.000 A 
ATOM     23  C   UNL d   1     -38.389  13.257  15.112  0.00  0.00     0.000 A 
ATOM     24  C   UNL d   1     -38.014  13.966  14.919  0.00  0.00     0.000 A 
ATOM     25  C   UNL d   1     -37.940  14.554  15.472  0.00  0.00     0.000 A 
ATOM     26  C   UNL d   1     -38.243  14.438  16.237  0.00  0.00     0.000 A 
ENDBRANCH   5  21
TORSDOF 3
ENDMDL
