MODEL 1
REMARK VINA RESULT:      42.5      0.000      0.000
REMARK  5 active torsions:
REMARK  status: ('A' for Active; 'I' for Inactive)
REMARK    1  A    between atoms: C_16  and  N_2 
REMARK    2  A    between atoms: S_9  and  C_4 
REMARK    3  A    between atoms: C_17  and  S_9 
REMARK    4  A    between atoms: C_10  and  C_17 
REMARK       I    between atoms: N_12  and  C_10 
REMARK    5  A    between atoms: C_14  and  N_12 
ROOT
ATOM      1  C   UNL d   1      13.581  14.392  -4.190  0.00  0.00     0.104 A 
ATOM      2  N   UNL d   1      13.153  13.070  -3.868  0.00  0.00    -0.252 N 
ATOM      3  C   UNL d   1      13.210  13.701  -4.409  0.00  0.00     0.274 A 
ATOM      4  C   UNL d   1      13.475  13.150  -3.112  0.00  0.00     0.182 A 
ATOM      5  C   UNL d   1      13.903  14.472  -3.434  0.00  0.00     0.095 A 
ATOM      6  N   UNL d   1      13.853  13.861  -2.898  0.00  0.00    -0.222 NA
ATOM      7  S   UNL d   1      13.718  15.093  -4.598  0.00  0.00    -0.081 SA
ATOM      8  C   UNL d   1      14.238  15.222  -3.376  0.00  0.00     0.026 A 
ATOM      9  O   UNL d   1      12.888  13.621  -5.164  0.00  0.00    -0.266 OA
ATOM     10  C   UNL d   1      14.126  15.605  -4.089  0.00  0.00     0.031 A 
ATOM     11  C   UNL d   1      14.379  16.371  -4.263  0.00  0.00     0.007 C 
ENDROOT
BRANCH   4  12
ATOM     12  S   UNL d   1      13.423  12.525  -2.563  0.00  0.00    -0.044 SA
BRANCH  12  13
ATOM     13  C   UNL d   1      13.831  12.576  -1.848  0.00  0.00     0.101 C 
BRANCH  13  14
ATOM     14  C   UNL d   1      13.516  12.230  -1.167  0.00  0.00     0.286 C 
ATOM     15  N   UNL d   1      13.892  12.332  -0.440  0.00  0.00    -0.208 NA
ATOM     16  O   UNL d   1      12.825  11.781  -1.215  0.00  0.00    -0.265 OA
BRANCH  15  17
ATOM     17  C   UNL d   1      14.583  12.781  -0.393  0.00  0.00     0.085 A 
ATOM     18  C   UNL d   1      14.538  13.581  -0.231  0.00  0.00     0.019 A 
ATOM     19  C   UNL d   1      15.228  14.029  -0.184  0.00  0.00     0.002 A 
ATOM     20  C   UNL d   1      15.183  14.849  -0.017  0.00  0.00     0.000 C 
ATOM     21  C   UNL d   1      15.958  13.671  -0.301  0.00  0.00     0.000 A 
ATOM     22  C   UNL d   1      16.000  12.864  -0.464  0.00  0.00     0.002 A 
ATOM     23  C   UNL d   1      15.313  12.423  -0.510  0.00  0.00     0.019 A 
ENDBRANCH  15  17
ENDBRANCH  13  14
ENDBRANCH  12  13
ENDBRANCH   4  12
BRANCH   2  24
ATOM     24  C   UNL d   1      12.775  12.363  -4.087  0.00  0.00     0.085 C 
ATOM     25  C   UNL d   1      13.193  11.784  -4.500  0.00  0.00     0.021 C 
ENDBRANCH   2  24
TORSDOF 5
ENDMDL
MODEL 2
REMARK VINA RESULT:      45.2      1.507      2.511
REMARK  5 active torsions:
REMARK  status: ('A' for Active; 'I' for Inactive)
REMARK    1  A    between atoms: C_16  and  N_2 
REMARK    2  A    between atoms: S_9  and  C_4 
REMARK    3  A    between atoms: C_17  and  S_9 
REMARK    4  A    between atoms: C_10  and  C_17 
REMARK       I    between atoms: N_12  and  C_10 
REMARK    5  A    between atoms: C_14  and  N_12 
ROOT
ATOM      1  C   UNL d   1      14.652  15.947  -2.860  0.00  0.00     0.104 A 
ATOM      2  N   UNL d   1      14.084  15.149  -3.896  0.00  0.00    -0.252 N 
ATOM      3  C   UNL d   1      14.466  15.845  -3.646  0.00  0.00     0.274 A 
ATOM      4  C   UNL d   1      13.895  14.566  -3.343  0.00  0.00     0.182 A 
ATOM      5  C   UNL d   1      14.464  15.364  -2.307  0.00  0.00     0.095 A 
ATOM      6  N   UNL d   1      14.090  14.679  -2.540  0.00  0.00    -0.222 NA
ATOM      7  S   UNL d   1      15.022  16.564  -2.460  0.00  0.00    -0.081 SA
ATOM      8  C   UNL d   1      14.718  15.621  -1.566  0.00  0.00     0.026 A 
ATOM      9  O   UNL d   1      14.654  16.428  -4.199  0.00  0.00    -0.266 OA
ATOM     10  C   UNL d   1      15.061  16.357  -1.659  0.00  0.00     0.031 A 
ATOM     11  C   UNL d   1      15.387  16.809  -1.050  0.00  0.00     0.007 C 
ENDROOT
BRANCH   4  12
ATOM     12  S   UNL d   1      13.513  13.865  -3.582  0.00  0.00    -0.044 SA
BRANCH  12  13
ATOM     13  C   UNL d   1      13.625  13.171  -3.150  0.00  0.00     0.101 C 
BRANCH  13  14
ATOM     14  C   UNL d   1      13.280  12.465  -3.405  0.00  0.00     0.286 C 
ATOM     15  N   UNL d   1      13.361  11.779  -2.953  0.00  0.00    -0.208 NA
ATOM     16  O   UNL d   1      12.854  12.446  -4.112  0.00  0.00    -0.265 OA
BRANCH  15  17
ATOM     17  C   UNL d   1      13.788  11.799  -2.247  0.00  0.00     0.085 A 
ATOM     18  C   UNL d   1      13.391  11.782  -1.533  0.00  0.00     0.019 A 
ATOM     19  C   UNL d   1      13.817  11.802  -0.827  0.00  0.00     0.002 A 
ATOM     20  C   UNL d   1      13.411  11.785  -0.094  0.00  0.00     0.000 C 
ATOM     21  C   UNL d   1      14.637  11.839  -0.844  0.00  0.00     0.000 A 
ATOM     22  C   UNL d   1      15.034  11.855  -1.566  0.00  0.00     0.002 A 
ATOM     23  C   UNL d   1      14.608  11.836  -2.264  0.00  0.00     0.019 A 
ENDBRANCH  15  17
ENDBRANCH  13  14
ENDBRANCH  12  13
ENDBRANCH   4  12
BRANCH   2  24
ATOM     24  C   UNL d   1      13.892  15.041  -4.697  0.00  0.00     0.085 C 
ATOM     25  C   UNL d   1      13.260  15.456  -5.028  0.00  0.00     0.021 C 
ENDBRANCH   2  24
TORSDOF 5
ENDMDL
