MODEL 1
REMARK VINA RESULT:      -2.7      0.000      0.000
REMARK  1 active torsions:
REMARK  status: ('A' for Active; 'I' for Inactive)
REMARK    1  A    between atoms: C_2  and  C_3 
ROOT
ATOM      1  C   UNL d   1      46.560 -19.529  42.833  0.00  0.00     0.002 A 
ATOM      2  C   UNL d   1      46.600 -20.200  42.355  0.00  0.00     0.000 A 
ATOM      3  C   UNL d   1      46.564 -18.779  42.488  0.00  0.00     0.000 A 
ATOM      4  C   UNL d   1      46.643 -20.123  41.534  0.00  0.00     0.000 A 
ATOM      5  C   UNL d   1      46.607 -18.702  41.666  0.00  0.00     0.000 A 
ATOM      6  C   UNL d   1      46.647 -19.373  41.190  0.00  0.00     0.000 A 
ENDROOT
BRANCH   1   7
ATOM      7  C   UNL d   1      46.517 -19.602  43.656  0.00  0.00     0.021 A 
ATOM      8  C   UNL d   1      46.573 -18.988  44.201  0.00  0.00     0.099 A 
ATOM      9  N   UNL d   1      46.501 -19.309  44.955  0.00  0.00    -0.242 NA
ATOM     10  C   UNL d   1      46.400 -20.126  44.876  0.00  0.00     0.099 A 
ATOM     11  C   UNL d   1      46.410 -20.308  44.073  0.00  0.00     0.022 A 
ENDBRANCH   1   7
TORSDOF 1
ENDMDL
MODEL 2
REMARK VINA RESULT:       0.2      7.742      8.009
REMARK  1 active torsions:
REMARK  status: ('A' for Active; 'I' for Inactive)
REMARK    1  A    between atoms: C_2  and  C_3 
ROOT
ATOM      1  C   UNL d   1      44.534 -15.324  36.901  0.00  0.00     0.002 A 
ATOM      2  C   UNL d   1      44.002 -15.058  37.474  0.00  0.00     0.000 A 
ATOM      3  C   UNL d   1      44.284 -15.865  36.330  0.00  0.00     0.000 A 
ATOM      4  C   UNL d   1      43.224 -15.333  37.476  0.00  0.00     0.000 A 
ATOM      5  C   UNL d   1      43.505 -16.140  36.332  0.00  0.00     0.000 A 
ATOM      6  C   UNL d   1      42.975 -15.874  36.905  0.00  0.00     0.000 A 
ENDROOT
BRANCH   1   7
ATOM      7  C   UNL d   1      45.314 -15.051  36.895  0.00  0.00     0.021 A 
ATOM      8  C   UNL d   1      45.574 -14.319  37.169  0.00  0.00     0.099 A 
ATOM      9  N   UNL d   1      46.388 -14.279  37.058  0.00  0.00    -0.242 NA
ATOM     10  C   UNL d   1      46.634 -14.990  36.714  0.00  0.00     0.099 A 
ATOM     11  C   UNL d   1      45.970 -15.468  36.613  0.00  0.00     0.022 A 
ENDBRANCH   1   7
TORSDOF 1
ENDMDL
MODEL 3
REMARK VINA RESULT:       0.2      7.891      8.082
REMARK  1 active torsions:
REMARK  status: ('A' for Active; 'I' for Inactive)
REMARK    1  A    between atoms: C_2  and  C_3 
ROOT
ATOM      1  C   UNL d   1      45.182 -15.085  36.819  0.00  0.00     0.002 A 
ATOM      2  C   UNL d   1      45.224 -14.352  37.196  0.00  0.00     0.000 A 
ATOM      3  C   UNL d   1      45.874 -15.453  36.560  0.00  0.00     0.000 A 
ATOM      4  C   UNL d   1      45.956 -13.988  37.314  0.00  0.00     0.000 A 
ATOM      5  C   UNL d   1      46.606 -15.088  36.678  0.00  0.00     0.000 A 
ATOM      6  C   UNL d   1      46.647 -14.356  37.055  0.00  0.00     0.000 A 
ENDROOT
BRANCH   1   7
ATOM      7  C   UNL d   1      44.452 -15.453  36.699  0.00  0.00     0.021 A 
ATOM      8  C   UNL d   1      43.717 -15.157  36.924  0.00  0.00     0.099 A 
ATOM      9  N   UNL d   1      43.143 -15.701  36.698  0.00  0.00    -0.242 NA
ATOM     10  C   UNL d   1      43.523 -16.336  36.330  0.00  0.00     0.099 A 
ATOM     11  C   UNL d   1      44.333 -16.183  36.330  0.00  0.00     0.022 A 
ENDBRANCH   1   7
TORSDOF 1
ENDMDL
