MODEL 1
REMARK VINA RESULT:      51.6      0.000      0.000
REMARK  2 active torsions:
REMARK  status: ('A' for Active; 'I' for Inactive)
REMARK    1  A    between atoms: C_10  and  N_1 
REMARK    2  A    between atoms: N_11  and  C_10 
ROOT
ATOM      1  N   UNL d   1     -58.940 -98.772 -45.685  0.00  0.00    -0.175 N 
ATOM      2  N   UNL d   1     -57.839 -98.771 -45.939  0.00  0.00    -0.161 NA
ATOM      3  C   UNL d   1     -57.397 -98.767 -45.246  0.00  0.00     0.102 A 
ATOM      4  C   UNL d   1     -57.772 -98.764 -44.514  0.00  0.00     0.024 A 
ATOM      5  C   UNL d   1     -59.146 -98.768 -44.890  0.00  0.00     0.282 A 
ATOM      6  C   UNL d   1     -58.564 -98.764 -44.307  0.00  0.00     0.059 A 
ATOM      7  C   UNL d   1     -57.183 -98.760 -43.925  0.00  0.00     0.002 A 
ATOM      8  C   UNL d   1     -56.585 -98.765 -45.112  0.00  0.00     0.019 A 
ATOM      9  C   UNL d   1     -56.452 -98.761 -44.299  0.00  0.00     0.002 A 
ATOM     10  O   UNL d   1     -59.956 -98.768 -44.682  0.00  0.00    -0.265 OA
ATOM     11  C   UNL d   1     -58.782 -98.760 -43.506  0.00  0.00     0.005 A 
ATOM     12  C   UNL d   1     -57.395 -98.756 -43.137  0.00  0.00     0.000 A 
ATOM     13  C   UNL d   1     -55.941 -98.767 -45.629  0.00  0.00     0.002 A 
ATOM     14  C   UNL d   1     -55.681 -98.758 -44.010  0.00  0.00     0.000 A 
ATOM     15  C   UNL d   1     -58.193 -98.756 -42.917  0.00  0.00     0.000 A 
ATOM     16  C   UNL d   1     -55.165 -98.764 -45.333  0.00  0.00     0.000 A 
ATOM     17  C   UNL d   1     -55.037 -98.759 -44.527  0.00  0.00     0.000 A 
ENDROOT
BRANCH   1  18
ATOM     18  C   UNL d   1     -59.645 -98.775 -46.123  0.00  0.00     0.188 C 
BRANCH  18  19
ATOM     19  N   UNL d   1     -59.679 -99.180 -46.845  0.00  0.00    -0.283 N 
ATOM     20  C   UNL d   1     -59.658 -98.759 -47.550  0.00  0.00     0.108 A 
ATOM     21  C   UNL d   1     -59.691 -99.162 -48.273  0.00  0.00     0.142 A 
ATOM     22  O   UNL d   1     -59.745 -99.990 -48.278  0.00  0.00    -0.300 OA
ATOM     23  C   UNL d   1     -59.765-100.410 -47.568  0.00  0.00     0.142 A 
ATOM     24  C   UNL d   1     -59.731 -99.998 -46.839  0.00  0.00     0.108 A 
ENDBRANCH  18  19
ENDBRANCH   1  18
TORSDOF 2
ENDMDL
