MODEL 1
REMARK VINA RESULT:      70.3      0.000      0.000
REMARK  4 active torsions:
REMARK  status: ('A' for Active; 'I' for Inactive)
REMARK       I    between atoms: C_4  and  N_1 
REMARK    1  A    between atoms: C_7  and  C_3 
REMARK    2  A    between atoms: C_8  and  C_4 
REMARK    3  A    between atoms: C_10  and  C_5 
REMARK    4  A    between atoms: O_23  and  C_18 
ROOT
ATOM      1  N   UNL d   1     -55.214-101.778 -42.545  0.00  0.00    -0.194 N 
ATOM      2  N   UNL d   1     -55.278-102.239 -41.872  0.00  0.00    -0.163 NA
ATOM      3  C   UNL d   1     -55.040-101.004 -42.312  0.00  0.00     0.091 A 
ATOM      4  C   UNL d   1     -55.308-102.040 -43.346  0.00  0.00     0.286 C 
ATOM      5  C   UNL d   1     -55.144-101.747 -41.222  0.00  0.00     0.103 A 
ATOM      6  C   UNL d   1     -55.000-100.998 -41.496  0.00  0.00     0.040 A 
ATOM      7  O   UNL d   1     -55.482-102.839 -43.486  0.00  0.00    -0.265 OA
ENDROOT
BRANCH   5   8
ATOM      8  C   UNL d   1     -55.156-101.987 -40.432  0.00  0.00     0.019 A 
ATOM      9  C   UNL d   1     -55.607-102.636 -40.197  0.00  0.00     0.004 A 
ATOM     10  C   UNL d   1     -55.619-102.875 -39.407  0.00  0.00     0.024 A 
ATOM     11  C   UNL d   1     -55.174-102.459 -38.846  0.00  0.00     0.094 A 
ATOM     12  C   UNL d   1     -54.721-101.808 -39.079  0.00  0.00     0.024 A 
ATOM     13  C   UNL d   1     -54.711-101.571 -39.871  0.00  0.00     0.004 A 
BRANCH  11  14
ATOM     14  O   UNL d   1     -55.184-102.696 -38.054  0.00  0.00    -0.328 OA
ATOM     15  C   UNL d   1     -55.035-102.145 -37.455  0.00  0.00     0.181 C 
ENDBRANCH  11  14
ENDBRANCH   5   8
BRANCH   3  16
ATOM     16  C   UNL d   1     -54.930-100.361 -42.828  0.00  0.00     0.057 A 
ATOM     17  C   UNL d   1     -54.935 -99.607 -42.521  0.00  0.00     0.197 A 
ATOM     18  O   UNL d   1     -55.045 -99.475 -41.729  0.00  0.00    -0.286 OA
ATOM     19  C   UNL d   1     -54.825 -98.958 -43.036  0.00  0.00     0.042 A 
ATOM     20  C   UNL d   1     -54.711 -99.071 -43.849  0.00  0.00     0.003 A 
ATOM     21  C   UNL d   1     -54.712 -99.843 -44.124  0.00  0.00     0.000 A 
ATOM     22  C   UNL d   1     -54.817-100.468 -43.634  0.00  0.00     0.005 A 
ENDBRANCH   3  16
BRANCH   4  23
ATOM     23  C   UNL d   1     -55.228-101.520 -43.958  0.00  0.00     0.087 A 
ATOM     24  S   UNL d   1     -55.633-100.837 -44.033  0.00  0.00    -0.082 SA
ATOM     25  C   UNL d   1     -55.380-100.469 -44.748  0.00  0.00     0.036 A 
ATOM     26  C   UNL d   1     -54.807-100.962 -45.096  0.00  0.00     0.008 A 
ATOM     27  C   UNL d   1     -54.715-101.614 -44.603  0.00  0.00     0.012 A 
ENDBRANCH   4  23
TORSDOF 4
ENDMDL
