MODEL 1
REMARK VINA RESULT:      41.4      0.000      0.000
REMARK  4 active torsions:
REMARK  status: ('A' for Active; 'I' for Inactive)
REMARK    1  A    between atoms: C_2  and  S_1 
REMARK    2  A    between atoms: N_4  and  S_1 
REMARK    3  A    between atoms: C_16  and  N_4 
REMARK    4  A    between atoms: C_17  and  C_16 
ROOT
ATOM      1  S   UNL d   1      45.898 -18.127  40.541  0.00  0.00     0.287 S 
ATOM      2  O   UNL d   1      46.647 -17.781  40.578  0.00  0.00    -0.198 OA
ATOM      3  O   UNL d   1      45.147 -18.468  40.499  0.00  0.00    -0.198 OA
ENDROOT
BRANCH   1   4
ATOM      4  C   UNL d   1      46.148 -18.722  41.056  0.00  0.00     0.123 A 
ATOM      5  C   UNL d   1      46.188 -18.583  41.872  0.00  0.00     0.094 A 
ATOM      6  N   UNL d   1      45.976 -17.843  42.170  0.00  0.00    -0.243 NA
ATOM      7  C   UNL d   1      46.433 -19.163  42.384  0.00  0.00     0.018 A 
ATOM      8  C   UNL d   1      46.013 -17.699  42.964  0.00  0.00     0.099 A 
ATOM      9  C   UNL d   1      46.262 -18.293  43.479  0.00  0.00     0.021 A 
ATOM     10  C   UNL d   1      46.475 -19.029  43.204  0.00  0.00     0.003 A 
ATOM     11  C   UNL d   1      46.646 -19.909  42.089  0.00  0.00     0.002 A 
ATOM     12  C   UNL d   1      46.608 -20.046  41.293  0.00  0.00     0.001 A 
ATOM     13  C   UNL d   1      46.358 -19.452  40.778  0.00  0.00     0.015 A 
ENDBRANCH   1   4
BRANCH   1  14
ATOM     14  N   UNL d   1      45.655 -17.528  40.026  0.00  0.00    -0.157 NA
BRANCH  14  15
ATOM     15  C   UNL d   1      45.568 -17.691  39.217  0.00  0.00     0.112 C 
BRANCH  15  16
ATOM     16  C   UNL d   1      45.241 -17.140  38.717  0.00  0.00     0.022 A 
ATOM     17  C   UNL d   1      45.709 -16.716  38.172  0.00  0.00     0.028 A 
ATOM     18  C   UNL d   1      45.368 -16.171  37.682  0.00  0.00     0.119 A 
ATOM     19  O   UNL d   1      45.677 -15.688  37.112  0.00  0.00    -0.300 OA
ATOM     20  C   UNL d   1      44.542 -16.029  37.719  0.00  0.00     0.119 A 
ATOM     21  C   UNL d   1      45.056 -15.240  36.785  0.00  0.00     0.304 A 
ATOM     22  O   UNL d   1      44.368 -15.461  37.168  0.00  0.00    -0.300 OA
ATOM     23  C   UNL d   1      44.096 -16.437  38.243  0.00  0.00     0.026 A 
ATOM     24  C   UNL d   1      44.446 -17.004  38.753  0.00  0.00     0.004 A 
ENDBRANCH  15  16
ENDBRANCH  14  15
ENDBRANCH   1  14
TORSDOF 4
ENDMDL
MODEL 2
REMARK VINA RESULT:      42.9      0.721      1.181
REMARK  4 active torsions:
REMARK  status: ('A' for Active; 'I' for Inactive)
REMARK    1  A    between atoms: C_2  and  S_1 
REMARK    2  A    between atoms: N_4  and  S_1 
REMARK    3  A    between atoms: C_16  and  N_4 
REMARK    4  A    between atoms: C_17  and  C_16 
ROOT
ATOM      1  S   UNL d   1      45.879 -18.396  41.298  0.00  0.00     0.287 S 
ATOM      2  O   UNL d   1      45.113 -18.366  41.605  0.00  0.00    -0.198 OA
ATOM      3  O   UNL d   1      46.643 -18.421  40.986  0.00  0.00    -0.198 OA
ENDROOT
BRANCH   1   4
ATOM      4  C   UNL d   1      46.079 -18.972  41.855  0.00  0.00     0.123 A 
ATOM      5  C   UNL d   1      46.261 -18.757  42.635  0.00  0.00     0.094 A 
ATOM      6  N   UNL d   1      46.242 -17.961  42.854  0.00  0.00    -0.243 NA
ATOM      7  C   UNL d   1      46.459 -19.317  43.188  0.00  0.00     0.018 A 
ATOM      8  C   UNL d   1      46.418 -17.744  43.611  0.00  0.00     0.099 A 
ATOM      9  C   UNL d   1      46.618 -18.318  44.168  0.00  0.00     0.021 A 
ATOM     10  C   UNL d   1      46.643 -19.108  43.971  0.00  0.00     0.003 A 
ATOM     11  C   UNL d   1      46.480 -20.118  42.973  0.00  0.00     0.002 A 
ATOM     12  C   UNL d   1      46.302 -20.329  42.212  0.00  0.00     0.001 A 
ATOM     13  C   UNL d   1      46.102 -19.755  41.654  0.00  0.00     0.015 A 
ENDBRANCH   1   4
BRANCH   1  14
ATOM     14  N   UNL d   1      45.671 -17.820  40.743  0.00  0.00    -0.157 NA
BRANCH  14  15
ATOM     15  C   UNL d   1      45.468 -18.046  39.971  0.00  0.00     0.112 C 
BRANCH  15  16
ATOM     16  C   UNL d   1      45.402 -17.491  39.381  0.00  0.00     0.022 A 
ATOM     17  C   UNL d   1      44.682 -17.366  38.979  0.00  0.00     0.028 A 
ATOM     18  C   UNL d   1      44.633 -16.810  38.395  0.00  0.00     0.119 A 
ATOM     19  O   UNL d   1      44.021 -16.575  37.922  0.00  0.00    -0.300 OA
ATOM     20  C   UNL d   1      45.308 -16.354  38.190  0.00  0.00     0.119 A 
ATOM     21  C   UNL d   1      44.299 -15.973  37.416  0.00  0.00     0.304 A 
ATOM     22  O   UNL d   1      45.088 -15.851  37.595  0.00  0.00    -0.300 OA
ATOM     23  C   UNL d   1      45.997 -16.476  38.577  0.00  0.00     0.026 A 
ATOM     24  C   UNL d   1      46.051 -17.053  39.184  0.00  0.00     0.004 A 
ENDBRANCH  15  16
ENDBRANCH  14  15
ENDBRANCH   1  14
TORSDOF 4
ENDMDL
