MODEL 1
REMARK VINA RESULT:      55.7      0.000      0.000
REMARK  3 active torsions:
REMARK  status: ('A' for Active; 'I' for Inactive)
REMARK    1  A    between atoms: C_2  and  S_1 
REMARK    2  A    between atoms: N_3  and  S_1 
REMARK    3  A    between atoms: C_4  and  N_3 
ROOT
ATOM      1  C   UNL d   1     -50.836  26.369  34.171  0.00  0.00     0.094 A 
ATOM      2  C   UNL d   1     -50.135  26.807  34.224  0.00  0.00     0.021 A 
ATOM      3  C   UNL d   1     -49.926  27.116  34.920  0.00  0.00     0.040 A 
ATOM      4  C   UNL d   1     -50.401  27.004  35.585  0.00  0.00     0.196 A 
ATOM      5  C   UNL d   1     -51.305  26.257  34.825  0.00  0.00     0.023 A 
ATOM      6  C   UNL d   1     -51.103  26.566  35.531  0.00  0.00     0.044 A 
ATOM      7  O   UNL d   1     -50.149  27.349  36.318  0.00  0.00    -0.287 OA
ATOM      8  C   UNL d   1     -49.660  26.919  33.560  0.00  0.00     0.002 A 
ATOM      9  C   UNL d   1     -49.199  27.574  34.988  0.00  0.00     0.003 A 
ATOM     10  C   UNL d   1     -48.729  27.686  34.334  0.00  0.00     0.000 A 
ATOM     11  C   UNL d   1     -48.954  27.361  33.615  0.00  0.00     0.000 A 
ENDROOT
BRANCH   1  12
ATOM     12  N   UNL d   1     -51.070  26.037  33.447  0.00  0.00    -0.158 NA
BRANCH  12  13
ATOM     13  S   UNL d   1     -51.396  25.276  33.420  0.00  0.00     0.291 S 
ATOM     14  O   UNL d   1     -50.632  24.950  33.335  0.00  0.00    -0.198 OA
ATOM     15  O   UNL d   1     -52.137  25.580  33.502  0.00  0.00    -0.198 OA
BRANCH  13  16
ATOM     16  C   UNL d   1     -51.742  24.535  33.396  0.00  0.00     0.135 A 
ATOM     17  S   UNL d   1     -52.525  24.400  33.352  0.00  0.00    -0.073 SA
ATOM     18  C   UNL d   1     -52.679  23.584  33.339  0.00  0.00     0.036 A 
ATOM     19  C   UNL d   1     -51.969  23.206  33.376  0.00  0.00     0.008 A 
ATOM     20  C   UNL d   1     -51.367  23.778  33.413  0.00  0.00     0.020 A 
ENDBRANCH  13  16
ENDBRANCH  12  13
ENDBRANCH   1  12
TORSDOF 3
ENDMDL
MODEL 2
REMARK VINA RESULT:      56.0      5.142      6.889
REMARK  3 active torsions:
REMARK  status: ('A' for Active; 'I' for Inactive)
REMARK    1  A    between atoms: C_2  and  S_1 
REMARK    2  A    between atoms: N_3  and  S_1 
REMARK    3  A    between atoms: C_4  and  N_3 
ROOT
ATOM      1  C   UNL d   1     -47.615  31.998  34.759  0.00  0.00     0.094 A 
ATOM      2  C   UNL d   1     -48.000  32.549  34.276  0.00  0.00     0.021 A 
ATOM      3  C   UNL d   1     -47.570  33.024  33.814  0.00  0.00     0.040 A 
ATOM      4  C   UNL d   1     -46.747  32.970  33.813  0.00  0.00     0.196 A 
ATOM      5  C   UNL d   1     -46.804  31.943  34.760  0.00  0.00     0.023 A 
ATOM      6  C   UNL d   1     -46.362  32.417  34.297  0.00  0.00     0.044 A 
ATOM      7  O   UNL d   1     -46.313  33.492  33.306  0.00  0.00    -0.287 OA
ATOM      8  C   UNL d   1     -48.823  32.604  34.277  0.00  0.00     0.002 A 
ATOM      9  C   UNL d   1     -47.959  33.602  33.307  0.00  0.00     0.003 A 
ATOM     10  C   UNL d   1     -48.770  33.658  33.306  0.00  0.00     0.000 A 
ATOM     11  C   UNL d   1     -49.209  33.160  33.790  0.00  0.00     0.000 A 
ENDROOT
BRANCH   1  12
ATOM     12  N   UNL d   1     -48.053  31.492  35.251  0.00  0.00    -0.158 NA
BRANCH  12  13
ATOM     13  S   UNL d   1     -47.810  30.709  35.370  0.00  0.00     0.291 S 
ATOM     14  O   UNL d   1     -47.306  30.956  35.987  0.00  0.00    -0.198 OA
ATOM     15  O   UNL d   1     -48.294  30.460  34.775  0.00  0.00    -0.198 OA
BRANCH  13  16
ATOM     16  C   UNL d   1     -47.587  29.928  35.466  0.00  0.00     0.135 A 
ATOM     17  S   UNL d   1     -48.089  29.311  35.488  0.00  0.00    -0.073 SA
ATOM     18  C   UNL d   1     -47.672  28.600  35.592  0.00  0.00     0.036 A 
ATOM     19  C   UNL d   1     -46.890  28.787  35.636  0.00  0.00     0.008 A 
ATOM     20  C   UNL d   1     -46.810  29.610  35.559  0.00  0.00     0.020 A 
ENDBRANCH  13  16
ENDBRANCH  12  13
ENDBRANCH   1  12
TORSDOF 3
ENDMDL
MODEL 3
REMARK VINA RESULT:      56.8      5.307      6.976
REMARK  3 active torsions:
REMARK  status: ('A' for Active; 'I' for Inactive)
REMARK    1  A    between atoms: C_2  and  S_1 
REMARK    2  A    between atoms: N_3  and  S_1 
REMARK    3  A    between atoms: C_4  and  N_3 
ROOT
ATOM      1  C   UNL d   1     -47.371  30.744  35.122  0.00  0.00     0.094 A 
ATOM      2  C   UNL d   1     -47.279  30.335  35.836  0.00  0.00     0.021 A 
ATOM      3  C   UNL d   1     -47.631  29.634  35.927  0.00  0.00     0.040 A 
ATOM      4  C   UNL d   1     -48.085  29.314  35.317  0.00  0.00     0.196 A 
ATOM      5  C   UNL d   1     -47.817  30.430  34.519  0.00  0.00     0.023 A 
ATOM      6  C   UNL d   1     -48.176  29.723  34.602  0.00  0.00     0.044 A 
ATOM      7  O   UNL d   1     -48.450  28.560  35.445  0.00  0.00    -0.287 OA
ATOM      8  C   UNL d   1     -46.826  30.655  36.447  0.00  0.00     0.002 A 
ATOM      9  C   UNL d   1     -47.543  29.199  36.666  0.00  0.00     0.003 A 
ATOM     10  C   UNL d   1     -47.097  29.512  37.269  0.00  0.00     0.000 A 
ATOM     11  C   UNL d   1     -46.734  30.242  37.165  0.00  0.00     0.000 A 
ENDROOT
BRANCH   1  12
ATOM     12  N   UNL d   1     -47.007  31.482  35.010  0.00  0.00    -0.158 NA
BRANCH  12  13
ATOM     13  S   UNL d   1     -47.386  32.074  34.571  0.00  0.00     0.291 S 
ATOM     14  O   UNL d   1     -47.392  31.576  33.901  0.00  0.00    -0.198 OA
ATOM     15  O   UNL d   1     -47.384  32.562  35.212  0.00  0.00    -0.198 OA
BRANCH  13  16
ATOM     16  C   UNL d   1     -47.759  32.675  34.160  0.00  0.00     0.135 A 
ATOM     17  S   UNL d   1     -47.414  33.131  33.607  0.00  0.00    -0.073 SA
ATOM     18  C   UNL d   1     -47.956  33.683  33.306  0.00  0.00     0.036 A 
ATOM     19  C   UNL d   1     -48.656  33.563  33.686  0.00  0.00     0.008 A 
ATOM     20  C   UNL d   1     -48.559  32.938  34.226  0.00  0.00     0.020 A 
ENDBRANCH  13  16
ENDBRANCH  12  13
ENDBRANCH   1  12
TORSDOF 3
ENDMDL
MODEL 4
REMARK VINA RESULT:      57.5      1.813      2.602
REMARK  3 active torsions:
REMARK  status: ('A' for Active; 'I' for Inactive)
REMARK    1  A    between atoms: C_2  and  S_1 
REMARK    2  A    between atoms: N_3  and  S_1 
REMARK    3  A    between atoms: C_4  and  N_3 
ROOT
ATOM      1  C   UNL d   1     -51.529  25.321  33.544  0.00  0.00     0.094 A 
ATOM      2  C   UNL d   1     -50.781  24.969  33.502  0.00  0.00     0.021 A 
ATOM      3  C   UNL d   1     -50.137  25.427  33.530  0.00  0.00     0.040 A 
ATOM      4  C   UNL d   1     -50.211  26.245  33.599  0.00  0.00     0.196 A 
ATOM      5  C   UNL d   1     -51.604  26.128  33.613  0.00  0.00     0.023 A 
ATOM      6  C   UNL d   1     -50.961  26.597  33.641  0.00  0.00     0.044 A 
ATOM      7  O   UNL d   1     -49.502  26.708  33.626  0.00  0.00    -0.287 OA
ATOM      8  C   UNL d   1     -50.706  24.150  33.433  0.00  0.00     0.002 A 
ATOM      9  C   UNL d   1     -49.353  25.072  33.487  0.00  0.00     0.003 A 
ATOM     10  C   UNL d   1     -49.277  24.265  33.419  0.00  0.00     0.000 A 
ATOM     11  C   UNL d   1     -49.952  23.798  33.391  0.00  0.00     0.000 A 
ENDROOT
BRANCH   1  12
ATOM     12  N   UNL d   1     -52.216  24.855  33.517  0.00  0.00    -0.158 NA
BRANCH  12  13
ATOM     13  S   UNL d   1     -52.963  25.210  33.493  0.00  0.00     0.291 S 
ATOM     14  O   UNL d   1     -52.608  25.954  33.362  0.00  0.00    -0.198 OA
ATOM     15  O   UNL d   1     -53.316  24.496  33.619  0.00  0.00    -0.198 OA
BRANCH  13  16
ATOM     16  C   UNL d   1     -53.714  25.536  33.474  0.00  0.00     0.135 A 
ATOM     17  S   UNL d   1     -53.873  26.313  33.525  0.00  0.00    -0.073 SA
ATOM     18  C   UNL d   1     -54.693  26.444  33.486  0.00  0.00     0.036 A 
ATOM     19  C   UNL d   1     -55.047  25.725  33.409  0.00  0.00     0.008 A 
ATOM     20  C   UNL d   1     -54.456  25.140  33.398  0.00  0.00     0.020 A 
ENDBRANCH  13  16
ENDBRANCH  12  13
ENDBRANCH   1  12
TORSDOF 3
ENDMDL
