MODEL 1
REMARK VINA RESULT:     -10.0      0.000      0.000
REMARK  5 active torsions:
REMARK  status: ('A' for Active; 'I' for Inactive)
REMARK       I    between atoms: C_3  and  N_1 
REMARK    1  A    between atoms: C_12  and  C_3 
REMARK    2  A    between atoms: C_7  and  O_10 
REMARK    3  A    between atoms: O_10  and  C_21 
REMARK    4  A    between atoms: C_22  and  C_12 
REMARK    5  A    between atoms: C_21  and  C_22 
ROOT
ATOM      1  N   UNL d   1      52.557  33.233  53.491  0.00  0.00    -0.273 N 
ATOM      2  C   UNL d   1      53.233  33.240  53.966  0.00  0.00     0.067 A 
ATOM      3  C   UNL d   1      52.060  33.891  53.474  0.00  0.00     0.265 C 
ATOM      4  C   UNL d   1      53.731  32.582  53.984  0.00  0.00     0.016 A 
ATOM      5  O   UNL d   1      52.237  34.554  53.929  0.00  0.00    -0.267 OA
ATOM      6  C   UNL d   1      52.380  32.570  53.036  0.00  0.00     0.083 A 
ATOM      7  C   UNL d   1      53.410  33.903  54.422  0.00  0.00     0.018 A 
ATOM      8  C   UNL d   1      52.878  31.912  53.054  0.00  0.00     0.019 A 
ATOM      9  C   UNL d   1      53.554  31.918  53.528  0.00  0.00     0.003 A 
ATOM     10  C   UNL d   1      54.406  32.589  54.458  0.00  0.00     0.001 A 
ATOM     11  C   UNL d   1      54.085  33.910  54.896  0.00  0.00     0.002 A 
ATOM     12  C   UNL d   1      54.583  33.252  54.914  0.00  0.00     0.000 A 
ENDROOT
BRANCH   3  13
ATOM     13  C   UNL d   1      51.384  33.884  52.999  0.00  0.00     0.063 C 
BRANCH  13  14
ATOM     14  C   UNL d   1      50.835  34.499  53.054  0.00  0.00     0.032 C 
BRANCH  14  15
ATOM     15  C   UNL d   1      50.142  34.472  52.608  0.00  0.00     0.123 C 
BRANCH  15  16
ATOM     16  O   UNL d   1      49.490  34.926  52.833  0.00  0.00    -0.305 OA
BRANCH  16  17
ATOM     17  C   UNL d   1      48.878  35.062  52.297  0.00  0.00     0.100 A 
ATOM     18  C   UNL d   1      48.261  35.573  52.496  0.00  0.00     0.023 A 
ATOM     19  C   UNL d   1      47.650  35.710  51.960  0.00  0.00     0.002 A 
ATOM     20  C   UNL d   1      48.257  35.947  53.231  0.00  0.00     0.002 C 
ATOM     21  C   UNL d   1      47.041  36.217  52.161  0.00  0.00     0.000 C 
ATOM     22  C   UNL d   1      47.654  35.336  51.225  0.00  0.00     0.000 A 
ATOM     23  C   UNL d   1      48.270  34.825  51.027  0.00  0.00     0.002 A 
ATOM     24  C   UNL d   1      48.882  34.688  51.562  0.00  0.00     0.025 A 
ENDBRANCH  16  17
ENDBRANCH  15  16
ENDBRANCH  14  15
ENDBRANCH  13  14
ENDBRANCH   3  13
TORSDOF 5
ENDMDL
MODEL 2
REMARK VINA RESULT:      -8.7      1.126      5.890
REMARK  5 active torsions:
REMARK  status: ('A' for Active; 'I' for Inactive)
REMARK       I    between atoms: C_3  and  N_1 
REMARK    1  A    between atoms: C_12  and  C_3 
REMARK    2  A    between atoms: C_7  and  O_10 
REMARK    3  A    between atoms: O_10  and  C_21 
REMARK    4  A    between atoms: C_22  and  C_12 
REMARK    5  A    between atoms: C_21  and  C_22 
ROOT
ATOM      1  N   UNL d   1      48.746  35.343  52.703  0.00  0.00    -0.273 N 
ATOM      2  C   UNL d   1      48.093  35.477  52.217  0.00  0.00     0.067 A 
ATOM      3  C   UNL d   1      49.353  34.845  52.449  0.00  0.00     0.265 C 
ATOM      4  C   UNL d   1      47.485  35.975  52.471  0.00  0.00     0.016 A 
ATOM      5  O   UNL d   1      49.308  34.483  51.710  0.00  0.00    -0.267 OA
ATOM      6  C   UNL d   1      48.792  35.705  53.442  0.00  0.00     0.083 A 
ATOM      7  C   UNL d   1      48.047  35.114  51.479  0.00  0.00     0.018 A 
ATOM      8  C   UNL d   1      48.184  36.202  53.695  0.00  0.00     0.019 A 
ATOM      9  C   UNL d   1      47.531  36.337  53.210  0.00  0.00     0.003 A 
ATOM     10  C   UNL d   1      46.832  36.108  51.985  0.00  0.00     0.001 A 
ATOM     11  C   UNL d   1      47.393  35.249  50.992  0.00  0.00     0.002 A 
ATOM     12  C   UNL d   1      46.786  35.746  51.247  0.00  0.00     0.000 A 
ENDROOT
BRANCH   3  13
ATOM     13  C   UNL d   1      50.007  34.711  52.935  0.00  0.00     0.063 C 
BRANCH  13  14
ATOM     14  C   UNL d   1      50.583  34.164  52.710  0.00  0.00     0.032 C 
BRANCH  14  15
ATOM     15  C   UNL d   1      51.265  34.073  53.165  0.00  0.00     0.123 C 
BRANCH  15  16
ATOM     16  O   UNL d   1      51.747  33.412  53.058  0.00  0.00    -0.305 OA
BRANCH  16  17
ATOM     17  C   UNL d   1      52.439  33.331  53.499  0.00  0.00     0.100 A 
ATOM     18  C   UNL d   1      52.894  32.645  53.431  0.00  0.00     0.023 A 
ATOM     19  C   UNL d   1      53.586  32.564  53.872  0.00  0.00     0.002 A 
ATOM     20  C   UNL d   1      52.657  32.042  52.922  0.00  0.00     0.002 C 
ATOM     21  C   UNL d   1      54.034  31.883  53.801  0.00  0.00     0.000 C 
ATOM     22  C   UNL d   1      53.824  33.167  54.381  0.00  0.00     0.000 A 
ATOM     23  C   UNL d   1      53.370  33.852  54.449  0.00  0.00     0.002 A 
ATOM     24  C   UNL d   1      52.677  33.934  54.008  0.00  0.00     0.025 A 
ENDBRANCH  16  17
ENDBRANCH  15  16
ENDBRANCH  14  15
ENDBRANCH  13  14
ENDBRANCH   3  13
TORSDOF 5
ENDMDL
MODEL 3
REMARK VINA RESULT:      -8.2      0.918      1.864
REMARK  5 active torsions:
REMARK  status: ('A' for Active; 'I' for Inactive)
REMARK       I    between atoms: C_3  and  N_1 
REMARK    1  A    between atoms: C_12  and  C_3 
REMARK    2  A    between atoms: C_7  and  O_10 
REMARK    3  A    between atoms: O_10  and  C_21 
REMARK    4  A    between atoms: C_22  and  C_12 
REMARK    5  A    between atoms: C_21  and  C_22 
ROOT
ATOM      1  N   UNL d   1      52.545  32.614  53.443  0.00  0.00    -0.273 N 
ATOM      2  C   UNL d   1      52.836  31.842  53.485  0.00  0.00     0.067 A 
ATOM      3  C   UNL d   1      51.773  32.750  53.187  0.00  0.00     0.265 C 
ATOM      4  C   UNL d   1      53.609  31.706  53.741  0.00  0.00     0.016 A 
ATOM      5  O   UNL d   1      51.291  32.116  52.974  0.00  0.00    -0.267 OA
ATOM      6  C   UNL d   1      53.027  33.248  53.655  0.00  0.00     0.083 A 
ATOM      7  C   UNL d   1      52.354  31.209  53.273  0.00  0.00     0.018 A 
ATOM      8  C   UNL d   1      53.799  33.111  53.911  0.00  0.00     0.019 A 
ATOM      9  C   UNL d   1      54.090  32.340  53.954  0.00  0.00     0.003 A 
ATOM     10  C   UNL d   1      53.898  30.935  53.784  0.00  0.00     0.001 A 
ATOM     11  C   UNL d   1      52.644  30.437  53.316  0.00  0.00     0.002 A 
ATOM     12  C   UNL d   1      53.417  30.301  53.572  0.00  0.00     0.000 A 
ENDROOT
BRANCH   3  13
ATOM     13  C   UNL d   1      51.482  33.522  53.144  0.00  0.00     0.063 C 
BRANCH  13  14
ATOM     14  C   UNL d   1      50.816  33.687  52.685  0.00  0.00     0.032 C 
BRANCH  14  15
ATOM     15  C   UNL d   1      50.264  34.242  52.945  0.00  0.00     0.123 C 
BRANCH  15  16
ATOM     16  O   UNL d   1      49.706  34.546  52.419  0.00  0.00    -0.305 OA
BRANCH  16  17
ATOM     17  C   UNL d   1      49.132  35.074  52.687  0.00  0.00     0.100 A 
ATOM     18  C   UNL d   1      48.524  35.314  52.182  0.00  0.00     0.023 A 
ATOM     19  C   UNL d   1      47.950  35.842  52.450  0.00  0.00     0.002 A 
ATOM     20  C   UNL d   1      48.492  35.027  51.410  0.00  0.00     0.002 C 
ATOM     21  C   UNL d   1      47.350  36.077  51.946  0.00  0.00     0.000 C 
ATOM     22  C   UNL d   1      47.982  36.129  53.222  0.00  0.00     0.000 A 
ATOM     23  C   UNL d   1      48.589  35.889  53.726  0.00  0.00     0.002 A 
ATOM     24  C   UNL d   1      49.164  35.362  53.459  0.00  0.00     0.025 A 
ENDBRANCH  16  17
ENDBRANCH  15  16
ENDBRANCH  14  15
ENDBRANCH  13  14
ENDBRANCH   3  13
TORSDOF 5
ENDMDL
