MODEL 1
REMARK VINA RESULT:      44.4      0.000      0.000
REMARK  5 active torsions:
REMARK  status: ('A' for Active; 'I' for Inactive)
REMARK    1  A    between atoms: C_2  and  C_3 
REMARK    2  A    between atoms: N_4  and  C_2 
REMARK    3  A    between atoms: C_10  and  N_4 
REMARK    4  A    between atoms: O_16  and  C_11 
REMARK    5  A    between atoms: C_19  and  O_16 
ROOT
ATOM      1  C   UNL d   1      59.397  49.695  51.517  0.00  0.00     0.153 C 
ATOM      2  S   UNL d   1      59.531  49.707  52.334  0.00  0.00    -0.056 SA
ENDROOT
BRANCH   1   3
ATOM      3  C   UNL d   1      58.622  49.692  51.234  0.00  0.00     0.109 A 
ATOM      4  N   UNL d   1      58.476  49.701  50.417  0.00  0.00    -0.243 NA
ATOM      5  C   UNL d   1      57.701  49.698  50.134  0.00  0.00     0.081 A 
ATOM      6  C   UNL d   1      57.067  49.685  50.664  0.00  0.00     0.018 A 
ATOM      7  C   UNL d   1      57.560  49.708  49.322  0.00  0.00     0.019 A 
ATOM      8  C   UNL d   1      57.202  49.676  51.482  0.00  0.00     0.003 A 
ATOM      9  C   UNL d   1      56.293  49.682  50.382  0.00  0.00     0.002 A 
ATOM     10  C   UNL d   1      57.981  49.679  51.770  0.00  0.00     0.021 A 
ATOM     11  C   UNL d   1      56.152  49.692  49.569  0.00  0.00     0.000 A 
ATOM     12  C   UNL d   1      56.785  49.705  49.039  0.00  0.00     0.002 A 
ENDBRANCH   1   3
BRANCH   1  13
ATOM     13  N   UNL d   1      60.030  49.687  50.987  0.00  0.00    -0.233 NA
BRANCH  13  14
ATOM     14  C   UNL d   1      60.437  48.980  50.841  0.00  0.00     0.083 A 
ATOM     15  C   UNL d   1      60.572  48.452  51.462  0.00  0.00     0.021 A 
ATOM     16  C   UNL d   1      60.978  47.751  51.310  0.00  0.00     0.026 A 
ATOM     17  C   UNL d   1      61.246  47.578  50.549  0.00  0.00     0.100 A 
ATOM     18  C   UNL d   1      61.105  48.115  49.932  0.00  0.00     0.026 A 
ATOM     19  C   UNL d   1      60.701  48.816  50.078  0.00  0.00     0.021 A 
BRANCH  17  20
ATOM     20  O   UNL d   1      61.655  46.870  50.402  0.00  0.00    -0.305 OA
BRANCH  20  21
ATOM     21  C   UNL d   1      62.090  46.785  49.705  0.00  0.00     0.123 C 
ATOM     22  C   UNL d   1      62.077  46.069  49.299  0.00  0.00     0.029 C 
ENDBRANCH  20  21
ENDBRANCH  17  20
ENDBRANCH  13  14
ENDBRANCH   1  13
TORSDOF 5
ENDMDL
