MODEL 1
REMARK VINA RESULT:      -0.2      0.000      0.000
REMARK  6 active torsions:
REMARK  status: ('A' for Active; 'I' for Inactive)
REMARK    1  A    between atoms: C_5  and  N_1 
REMARK    2  A    between atoms: C_7  and  C_3 
REMARK    3  A    between atoms: C_12  and  C_4 
REMARK    4  A    between atoms: N_14  and  C_5 
REMARK    5  A    between atoms: O_16  and  C_9 
REMARK    6  A    between atoms: O_17  and  C_11 
ROOT
ATOM      1  N   UNL d   1     -41.861-122.021 -50.706  0.00  0.00    -0.203 N 
ATOM      2  N   UNL d   1     -41.983-122.117 -49.893  0.00  0.00    -0.163 NA
ATOM      3  C   UNL d   1     -41.815-122.770 -51.037  0.00  0.00     0.087 A 
ATOM      4  C   UNL d   1     -42.010-122.906 -49.729  0.00  0.00     0.103 A 
ATOM      5  C   UNL d   1     -41.907-123.313 -50.429  0.00  0.00     0.040 A 
ENDROOT
BRANCH   3   6
ATOM      6  C   UNL d   1     -41.696-122.957 -51.839  0.00  0.00     0.020 A 
ATOM      7  C   UNL d   1     -42.008-122.506 -52.435  0.00  0.00     0.028 A 
ATOM      8  C   UNL d   1     -41.889-122.695 -53.222  0.00  0.00     0.116 A 
ATOM      9  C   UNL d   1     -41.448-123.347 -53.413  0.00  0.00     0.116 A 
ATOM     10  C   UNL d   1     -41.123-123.817 -52.819  0.00  0.00     0.026 A 
ATOM     11  C   UNL d   1     -41.243-123.629 -52.032  0.00  0.00     0.004 A 
BRANCH   8  12
ATOM     12  O   UNL d   1     -42.207-122.236 -53.837  0.00  0.00    -0.326 OA
ATOM     13  C   UNL d   1     -41.710-121.756 -54.298  0.00  0.00     0.181 C 
ENDBRANCH   8  12
BRANCH   9  14
ATOM     14  O   UNL d   1     -41.319-123.550 -54.217  0.00  0.00    -0.326 OA
ATOM     15  C   UNL d   1     -41.936-123.782 -54.707  0.00  0.00     0.181 C 
ENDBRANCH   9  14
ENDBRANCH   3   6
BRANCH   1  16
ATOM     16  C   UNL d   1     -41.800-121.291 -51.101  0.00  0.00     0.222 C 
ATOM     17  S   UNL d   1     -42.402-121.026 -51.618  0.00  0.00    -0.037 SA
BRANCH  16  18
ATOM     18  N   UNL d   1     -41.122-120.798 -50.989  0.00  0.00    -0.214 NA
ATOM     19  C   UNL d   1     -41.214-119.965 -51.044  0.00  0.00     0.122 C 
ENDBRANCH  16  18
ENDBRANCH   1  16
BRANCH   4  20
ATOM     20  C   UNL d   1     -42.125-123.204 -48.960  0.00  0.00     0.019 A 
ATOM     21  C   UNL d   1     -41.487-123.453 -48.518  0.00  0.00     0.002 A 
ATOM     22  C   UNL d   1     -41.585-123.756 -47.743  0.00  0.00     0.000 A 
ATOM     23  C   UNL d   1     -42.358-123.801 -47.423  0.00  0.00     0.000 A 
ATOM     24  C   UNL d   1     -43.004-123.541 -47.893  0.00  0.00     0.000 A 
ATOM     25  C   UNL d   1     -42.892-123.248 -48.647  0.00  0.00     0.002 A 
ENDBRANCH   4  20
TORSDOF 6
ENDMDL
MODEL 2
REMARK VINA RESULT:       0.9      2.072      4.561
REMARK  6 active torsions:
REMARK  status: ('A' for Active; 'I' for Inactive)
REMARK    1  A    between atoms: C_5  and  N_1 
REMARK    2  A    between atoms: C_7  and  C_3 
REMARK    3  A    between atoms: C_12  and  C_4 
REMARK    4  A    between atoms: N_14  and  C_5 
REMARK    5  A    between atoms: O_16  and  C_9 
REMARK    6  A    between atoms: O_17  and  C_11 
ROOT
ATOM      1  N   UNL d   1     -42.719-122.319 -51.126  0.00  0.00    -0.203 N 
ATOM      2  N   UNL d   1     -42.645-122.385 -51.947  0.00  0.00    -0.163 NA
ATOM      3  C   UNL d   1     -42.014-122.576 -50.795  0.00  0.00     0.087 A 
ATOM      4  C   UNL d   1     -41.913-122.675 -52.116  0.00  0.00     0.103 A 
ATOM      5  C   UNL d   1     -41.519-122.795 -51.412  0.00  0.00     0.040 A 
ENDROOT
BRANCH   3   6
ATOM      6  C   UNL d   1     -41.823-122.613 -49.986  0.00  0.00     0.020 A 
ATOM      7  C   UNL d   1     -42.117-123.192 -49.502  0.00  0.00     0.028 A 
ATOM      8  C   UNL d   1     -41.927-123.224 -48.707  0.00  0.00     0.116 A 
ATOM      9  C   UNL d   1     -41.432-122.665 -48.393  0.00  0.00     0.116 A 
ATOM     10  C   UNL d   1     -41.123-122.069 -48.871  0.00  0.00     0.026 A 
ATOM     11  C   UNL d   1     -41.314-122.037 -49.666  0.00  0.00     0.004 A 
BRANCH   8  12
ATOM     12  O   UNL d   1     -42.226-123.816 -48.207  0.00  0.00    -0.326 OA
ATOM     13  C   UNL d   1     -43.016-123.787 -47.953  0.00  0.00     0.181 C 
ENDBRANCH   8  12
BRANCH   9  14
ATOM     14  O   UNL d   1     -41.229-122.688 -47.579  0.00  0.00    -0.326 OA
ATOM     15  C   UNL d   1     -41.480-122.106 -47.057  0.00  0.00     0.181 C 
ENDBRANCH   9  14
ENDBRANCH   3   6
BRANCH   1  16
ATOM     16  C   UNL d   1     -43.392-122.040 -50.722  0.00  0.00     0.222 C 
ATOM     17  S   UNL d   1     -43.407-121.278 -50.379  0.00  0.00    -0.037 SA
BRANCH  16  18
ATOM     18  N   UNL d   1     -44.079-122.527 -50.650  0.00  0.00    -0.214 NA
ATOM     19  C   UNL d   1     -44.785-122.188 -50.345  0.00  0.00     0.122 C 
ENDBRANCH  16  18
ENDBRANCH   1  16
BRANCH   4  20
ATOM     20  C   UNL d   1     -41.649-122.813 -52.895  0.00  0.00     0.019 A 
ATOM     21  C   UNL d   1     -41.618-122.199 -53.430  0.00  0.00     0.002 A 
ATOM     22  C   UNL d   1     -41.356-122.319 -54.217  0.00  0.00     0.000 A 
ATOM     23  C   UNL d   1     -41.123-123.089 -54.450  0.00  0.00     0.000 A 
ATOM     24  C   UNL d   1     -41.161-123.710 -53.886  0.00  0.00     0.000 A 
ATOM     25  C   UNL d   1     -41.419-123.576 -53.123  0.00  0.00     0.002 A 
ENDBRANCH   4  20
TORSDOF 6
ENDMDL
