MODEL 1
REMARK VINA RESULT:      60.8      0.000      0.000
REMARK  4 active torsions:
REMARK  status: ('A' for Active; 'I' for Inactive)
REMARK    1  A    between atoms: C_7  and  C_1 
REMARK    2  A    between atoms: C_6  and  N_2 
REMARK    3  A    between atoms: C_8  and  C_6 
REMARK    4  A    between atoms: C_9  and  C_7 
ROOT
ATOM      1  C   UNL d   1     -51.561  24.271  33.363  0.00  0.00     0.148 A 
ATOM      2  N   UNL d   1     -51.106  24.918  33.383  0.00  0.00    -0.289 N 
ATOM      3  N   UNL d   1     -51.142  23.602  33.344  0.00  0.00    -0.227 NA
ATOM      4  C   UNL d   1     -50.288  24.649  33.376  0.00  0.00     0.083 A 
ATOM      5  C   UNL d   1     -50.310  23.851  33.352  0.00  0.00     0.099 A 
ATOM      6  C   UNL d   1     -49.564  25.016  33.388  0.00  0.00     0.019 A 
ATOM      7  C   UNL d   1     -49.609  23.367  33.339  0.00  0.00     0.021 A 
ATOM      8  C   UNL d   1     -48.860  24.609  33.377  0.00  0.00     0.002 A 
ATOM      9  C   UNL d   1     -48.882  23.812  33.353  0.00  0.00     0.002 A 
ENDROOT
BRANCH   2  10
ATOM     10  C   UNL d   1     -51.471  25.622  33.404  0.00  0.00     0.082 C 
BRANCH  10  11
ATOM     11  C   UNL d   1     -51.162  26.255  33.789  0.00  0.00     0.018 A 
ATOM     12  C   UNL d   1     -50.918  26.907  33.346  0.00  0.00     0.002 A 
ATOM     13  C   UNL d   1     -50.590  27.587  33.710  0.00  0.00     0.000 A 
ATOM     14  C   UNL d   1     -50.523  27.574  34.546  0.00  0.00     0.000 A 
ATOM     15  C   UNL d   1     -50.767  26.923  34.989  0.00  0.00     0.000 A 
ATOM     16  C   UNL d   1     -50.194  28.257  34.914  0.00  0.00     0.000 C 
ATOM     17  C   UNL d   1     -51.079  26.285  34.595  0.00  0.00     0.002 A 
ENDBRANCH  10  11
ENDBRANCH   2  10
BRANCH   1  18
ATOM     18  C   UNL d   1     -52.239  24.703  33.375  0.00  0.00     0.037 C 
BRANCH  18  19
ATOM     19  C   UNL d   1     -52.941  24.342  33.619  0.00  0.00     0.003 A 
ATOM     20  C   UNL d   1     -53.159  23.609  33.306  0.00  0.00     0.000 A 
ATOM     21  C   UNL d   1     -53.860  23.248  33.550  0.00  0.00     0.000 A 
ATOM     22  C   UNL d   1     -54.343  23.619  34.106  0.00  0.00     0.000 A 
ATOM     23  C   UNL d   1     -54.140  24.362  34.435  0.00  0.00     0.000 A 
ATOM     24  C   UNL d   1     -53.424  24.713  34.175  0.00  0.00     0.000 A 
ENDBRANCH  18  19
ENDBRANCH   1  18
TORSDOF 4
ENDMDL
