MODEL 1
REMARK VINA RESULT:      50.6      0.000      0.000
REMARK  3 active torsions:
REMARK  status: ('A' for Active; 'I' for Inactive)
REMARK    1  A    between atoms: C_6  and  N_1 
REMARK       I    between atoms: C_2  and  N_4 
REMARK    2  A    between atoms: C_5  and  C_2 
REMARK    3  A    between atoms: N_4  and  C_12 
ROOT
ATOM      1  C   UNL d   1      14.764  15.913  -1.931  0.00  0.00     0.067 A 
ATOM      2  C   UNL d   1      14.442  15.209  -1.638  0.00  0.00     0.019 A 
ATOM      3  C   UNL d   1      14.723  16.070  -2.738  0.00  0.00     0.019 A 
ATOM      4  C   UNL d   1      14.041  14.826  -2.954  0.00  0.00     0.085 A 
ATOM      5  C   UNL d   1      14.363  15.529  -3.247  0.00  0.00     0.021 A 
ATOM      6  C   UNL d   1      14.085  14.674  -2.141  0.00  0.00     0.021 A 
ENDROOT
BRANCH   4   7
ATOM      7  N   UNL d   1      13.685  14.291  -3.457  0.00  0.00    -0.208 NA
ATOM      8  C   UNL d   1      13.914  13.501  -3.449  0.00  0.00     0.279 C 
ATOM      9  O   UNL d   1      14.505  13.251  -2.932  0.00  0.00    -0.265 OA
BRANCH   8  10
ATOM     10  C   UNL d   1      13.558  12.965  -3.953  0.00  0.00     0.060 A 
ATOM     11  C   UNL d   1      13.615  13.071  -4.774  0.00  0.00     0.034 A 
ATOM     12  C   UNL d   1      13.251  12.524  -5.295  0.00  0.00     0.140 A 
ATOM     13  F   UNL d   1      13.305  12.626  -6.109  0.00  0.00    -0.204 F 
ATOM     14  C   UNL d   1      12.835  11.879  -4.975  0.00  0.00     0.030 A 
ATOM     15  C   UNL d   1      12.783  11.780  -4.151  0.00  0.00     0.003 A 
ATOM     16  C   UNL d   1      13.144  12.323  -3.646  0.00  0.00     0.005 A 
ENDBRANCH   8  10
ENDBRANCH   4   7
BRANCH   1  17
ATOM     17  N   UNL d   1      15.120  16.448  -1.428  0.00  0.00    -0.273 N 
ATOM     18  C   UNL d   1      15.369  16.296  -0.651  0.00  0.00     0.265 A 
ATOM     19  O   UNL d   1      15.302  15.576  -0.243  0.00  0.00    -0.267 OA
ATOM     20  C   UNL d   1      15.699  16.988  -0.343  0.00  0.00     0.063 A 
ATOM     21  C   UNL d   1      15.655  17.567  -0.929  0.00  0.00     0.024 A 
ATOM     22  C   UNL d   1      15.302  17.238  -1.592  0.00  0.00     0.083 A 
ENDBRANCH   1  17
TORSDOF 3
ENDMDL
MODEL 2
REMARK VINA RESULT:      52.3      2.542      3.559
REMARK  3 active torsions:
REMARK  status: ('A' for Active; 'I' for Inactive)
REMARK    1  A    between atoms: C_6  and  N_1 
REMARK       I    between atoms: C_2  and  N_4 
REMARK    2  A    between atoms: C_5  and  C_2 
REMARK    3  A    between atoms: N_4  and  C_12 
ROOT
ATOM      1  C   UNL d   1      13.933  12.708  -1.899  0.00  0.00     0.067 A 
ATOM      2  C   UNL d   1      13.581  12.328  -2.546  0.00  0.00     0.019 A 
ATOM      3  C   UNL d   1      14.260  13.456  -2.000  0.00  0.00     0.019 A 
ATOM      4  C   UNL d   1      13.886  13.443  -3.386  0.00  0.00     0.085 A 
ATOM      5  C   UNL d   1      14.237  13.822  -2.739  0.00  0.00     0.021 A 
ATOM      6  C   UNL d   1      13.559  12.690  -3.278  0.00  0.00     0.021 A 
ENDROOT
BRANCH   4   7
ATOM      7  N   UNL d   1      13.864  13.805  -4.117  0.00  0.00    -0.208 NA
ATOM      8  C   UNL d   1      13.840  14.626  -4.171  0.00  0.00     0.279 C 
ATOM      9  O   UNL d   1      13.840  15.082  -3.484  0.00  0.00    -0.265 OA
BRANCH   8  10
ATOM     10  C   UNL d   1      13.817  14.988  -4.903  0.00  0.00     0.060 A 
ATOM     11  C   UNL d   1      13.347  15.662  -5.015  0.00  0.00     0.034 A 
ATOM     12  C   UNL d   1      13.320  16.037  -5.764  0.00  0.00     0.140 A 
ATOM     13  F   UNL d   1      12.855  16.705  -5.878  0.00  0.00    -0.204 F 
ATOM     14  C   UNL d   1      13.771  15.723  -6.388  0.00  0.00     0.030 A 
ATOM     15  C   UNL d   1      14.240  15.047  -6.267  0.00  0.00     0.003 A 
ATOM     16  C   UNL d   1      14.261  14.684  -5.527  0.00  0.00     0.005 A 
ENDBRANCH   8  10
ENDBRANCH   4   7
BRANCH   1  17
ATOM     17  N   UNL d   1      13.956  12.346  -1.168  0.00  0.00    -0.273 N 
ATOM     18  C   UNL d   1      14.640  12.133  -0.750  0.00  0.00     0.265 A 
ATOM     19  O   UNL d   1      15.425  12.248  -0.997  0.00  0.00    -0.267 OA
ATOM     20  C   UNL d   1      14.412  11.783  -0.038  0.00  0.00     0.063 A 
ATOM     21  C   UNL d   1      13.587  11.779  -0.014  0.00  0.00     0.024 A 
ATOM     22  C   UNL d   1      13.308  12.123  -0.705  0.00  0.00     0.083 A 
ENDBRANCH   1  17
TORSDOF 3
ENDMDL
