MODEL 1
REMARK VINA RESULT:      37.4      0.000      0.000
REMARK  3 active torsions:
REMARK  status: ('A' for Active; 'I' for Inactive)
REMARK    1  A    between atoms: C_11  and  C_6 
REMARK    2  A    between atoms: O_20  and  C_11 
REMARK    3  A    between atoms: C_22  and  O_20 
ROOT
ATOM      1  C   UNL d   1      59.012  49.659  50.452  0.00  0.00     0.155 A 
ATOM      2  C   UNL d   1      58.854  49.660  51.262  0.00  0.00     0.091 A 
ATOM      3  N   UNL d   1      58.392  49.655  49.911  0.00  0.00    -0.210 NA
ATOM      4  N   UNL d   1      57.456  49.652  50.989  0.00  0.00    -0.258 N 
ATOM      5  N   UNL d   1      59.791  49.662  50.184  0.00  0.00    -0.272 N 
ATOM      6  C   UNL d   1      60.262  49.667  51.536  0.00  0.00     0.100 A 
ATOM      7  C   UNL d   1      57.622  49.651  50.181  0.00  0.00     0.152 A 
ATOM      8  C   UNL d   1      58.077  49.656  51.531  0.00  0.00     0.269 A 
ATOM      9  C   UNL d   1      60.420  49.667  50.726  0.00  0.00     0.176 A 
ATOM     10  C   UNL d   1      59.474  49.664  51.807  0.00  0.00     0.016 A 
ATOM     11  C   UNL d   1      56.994  49.647  49.638  0.00  0.00     0.035 A 
ATOM     12  C   UNL d   1      56.678  49.648  51.258  0.00  0.00     0.084 A 
ATOM     13  N   UNL d   1      61.201  49.670  50.459  0.00  0.00    -0.128 N 
ATOM     14  O   UNL d   1      57.919  49.657  52.340  0.00  0.00    -0.266 OA
ATOM     15  C   UNL d   1      56.066  49.644  50.718  0.00  0.00     0.019 A 
ATOM     16  C   UNL d   1      56.224  49.643  49.908  0.00  0.00     0.005 A 
ATOM     17  C   UNL d   1      59.949  49.662  49.374  0.00  0.00     0.102 C 
ATOM     18  C   UNL d   1      57.152  49.646  48.829  0.00  0.00     0.003 C 
ENDROOT
BRANCH   6  19
ATOM     19  C   UNL d   1      60.886  49.672  52.078  0.00  0.00     0.303 C 
ATOM     20  O   UNL d   1      60.728  49.640  52.888  0.00  0.00    -0.259 OA
BRANCH  19  21
ATOM     21  O   UNL d   1      61.664  49.707  51.810  0.00  0.00    -0.271 OA
BRANCH  21  22
ATOM     22  C   UNL d   1      62.284  49.568  52.333  0.00  0.00     0.126 C 
ATOM     23  C   UNL d   1      62.169  49.674  53.142  0.00  0.00     0.029 C 
ENDBRANCH  21  22
ENDBRANCH  19  21
ENDBRANCH   6  19
TORSDOF 3
ENDMDL
