MODEL 1
REMARK VINA RESULT:      -3.6      0.000      0.000
REMARK  3 active torsions:
REMARK  status: ('A' for Active; 'I' for Inactive)
REMARK    1  A    between atoms: C_11  and  N_2 
REMARK    2  A    between atoms: N_7  and  C_4 
REMARK    3  A    between atoms: C_14  and  C_11 
ROOT
ATOM      1  C   UNL d   1      58.229  -0.801  30.245  0.00  0.00     0.091 A 
ATOM      2  N   UNL d   1      57.343  -0.111  31.124  0.00  0.00    -0.211 N 
ATOM      3  C   UNL d   1      57.919  -0.098  30.539  0.00  0.00     0.170 A 
ATOM      4  C   UNL d   1      58.806  -0.779  29.660  0.00  0.00     0.154 A 
ATOM      5  N   UNL d   1      57.075  -0.833  31.417  0.00  0.00    -0.162 NA
ATOM      6  C   UNL d   1      57.387  -1.539  31.121  0.00  0.00     0.127 A 
ATOM      7  N   UNL d   1      58.186   0.624  30.247  0.00  0.00    -0.205 NA
ATOM      8  N   UNL d   1      59.075  -0.068  29.366  0.00  0.00    -0.206 NA
ATOM      9  C   UNL d   1      58.762   0.641  29.663  0.00  0.00     0.202 A 
ENDROOT
BRANCH   2  10
ATOM     10  C   UNL d   1      57.032   0.592  31.419  0.00  0.00     0.102 C 
BRANCH  10  11
ATOM     11  C   UNL d   1      56.701   0.615  32.169  0.00  0.00     0.019 A 
ATOM     12  C   UNL d   1      57.184   0.605  32.835  0.00  0.00     0.002 A 
ATOM     13  C   UNL d   1      56.850   0.627  33.587  0.00  0.00     0.011 A 
ATOM     14  C   UNL d   1      56.032   0.659  33.673  0.00  0.00     0.058 A 
ATOM     15  C   UNL d   1      55.542   0.669  32.998  0.00  0.00     0.011 A 
ATOM     16 CL   UNL d   1      55.692   0.682  34.429  0.00  0.00    -0.082 Cl
ATOM     17  C   UNL d   1      55.880   0.647  32.251  0.00  0.00     0.002 A 
ENDBRANCH  10  11
ENDBRANCH   2  10
BRANCH   4  18
ATOM     18  N   UNL d   1      59.128  -1.509  29.354  0.00  0.00    -0.289 N 
ATOM     19  C   UNL d   1      59.921  -1.743  29.590  0.00  0.00     0.082 A 
ATOM     20  C   UNL d   1      60.253  -2.473  29.288  0.00  0.00     0.019 A 
ATOM     21  C   UNL d   1      59.787  -2.961  28.755  0.00  0.00     0.003 A 
ATOM     22  C   UNL d   1      59.003  -2.728  28.523  0.00  0.00     0.019 A 
ATOM     23  C   UNL d   1      60.117  -3.688  28.455  0.00  0.00     0.000 C 
ATOM     24  C   UNL d   1      58.674  -2.001  28.824  0.00  0.00     0.082 A 
ENDBRANCH   4  18
TORSDOF 3
ENDMDL
MODEL 2
REMARK VINA RESULT:      -1.4      9.071      9.465
REMARK  3 active torsions:
REMARK  status: ('A' for Active; 'I' for Inactive)
REMARK    1  A    between atoms: C_11  and  N_2 
REMARK    2  A    between atoms: N_7  and  C_4 
REMARK    3  A    between atoms: C_14  and  C_11 
ROOT
ATOM      1  C   UNL d   1      59.065  -9.789  31.601  0.00  0.00     0.091 A 
ATOM      2  N   UNL d   1      59.524  -9.804  32.952  0.00  0.00    -0.211 N 
ATOM      3  C   UNL d   1      59.682  -9.802  32.146  0.00  0.00     0.170 A 
ATOM      4  C   UNL d   1      59.231  -9.786  30.796  0.00  0.00     0.154 A 
ATOM      5  N   UNL d   1      58.744  -9.793  33.214  0.00  0.00    -0.162 NA
ATOM      6  C   UNL d   1      58.124  -9.779  32.667  0.00  0.00     0.127 A 
ATOM      7  N   UNL d   1      60.463  -9.813  31.883  0.00  0.00    -0.205 NA
ATOM      8  N   UNL d   1      60.001  -9.798  30.529  0.00  0.00    -0.206 NA
ATOM      9  C   UNL d   1      60.624  -9.811  31.078  0.00  0.00     0.202 A 
ENDROOT
BRANCH   2  10
ATOM     10  C   UNL d   1      60.142  -9.818  33.497  0.00  0.00     0.102 C 
BRANCH  10  11
ATOM     11  C   UNL d   1      60.080  -9.401  34.201  0.00  0.00     0.019 A 
ATOM     12  C   UNL d   1      59.797  -9.774  34.878  0.00  0.00     0.002 A 
ATOM     13  C   UNL d   1      59.735  -9.354  35.584  0.00  0.00     0.011 A 
ATOM     14  C   UNL d   1      59.956  -8.561  35.611  0.00  0.00     0.058 A 
ATOM     15  C   UNL d   1      60.243  -8.184  34.925  0.00  0.00     0.011 A 
ATOM     16 CL   UNL d   1      59.895  -8.136  36.320  0.00  0.00    -0.082 Cl
ATOM     17  C   UNL d   1      60.302  -8.607  34.225  0.00  0.00     0.002 A 
ENDBRANCH  10  11
ENDBRANCH   2  10
BRANCH   4  18
ATOM     18  N   UNL d   1      58.591  -9.772  30.232  0.00  0.00    -0.289 N 
ATOM     19  C   UNL d   1      58.777  -9.714  29.394  0.00  0.00     0.082 A 
ATOM     20  C   UNL d   1      58.141  -9.699  28.820  0.00  0.00     0.019 A 
ATOM     21  C   UNL d   1      57.326  -9.743  29.089  0.00  0.00     0.003 A 
ATOM     22  C   UNL d   1      57.144  -9.801  29.918  0.00  0.00     0.019 A 
ATOM     23  C   UNL d   1      56.694  -9.728  28.518  0.00  0.00     0.000 C 
ATOM     24  C   UNL d   1      57.777  -9.816  30.489  0.00  0.00     0.082 A 
ENDBRANCH   4  18
TORSDOF 3
ENDMDL
MODEL 3
REMARK VINA RESULT:      -1.4      1.438      2.115
REMARK  3 active torsions:
REMARK  status: ('A' for Active; 'I' for Inactive)
REMARK    1  A    between atoms: C_11  and  N_2 
REMARK    2  A    between atoms: N_7  and  C_4 
REMARK    3  A    between atoms: C_14  and  C_11 
ROOT
ATOM      1  C   UNL d   1      57.752  -0.540  30.866  0.00  0.00     0.091 A 
ATOM      2  N   UNL d   1      56.720  -0.498  31.850  0.00  0.00    -0.211 N 
ATOM      3  C   UNL d   1      57.158  -0.915  31.294  0.00  0.00     0.170 A 
ATOM      4  C   UNL d   1      58.186  -0.963  30.312  0.00  0.00     0.154 A 
ATOM      5  N   UNL d   1      56.879   0.299  31.979  0.00  0.00    -0.162 NA
ATOM      6  C   UNL d   1      57.476   0.676  31.550  0.00  0.00     0.127 A 
ATOM      7  N   UNL d   1      56.999  -1.713  31.165  0.00  0.00    -0.205 NA
ATOM      8  N   UNL d   1      58.034  -1.753  30.179  0.00  0.00    -0.206 NA
ATOM      9  C   UNL d   1      57.434  -2.132  30.610  0.00  0.00     0.202 A 
ENDROOT
BRANCH   2  10
ATOM     10  C   UNL d   1      56.125  -0.874  32.278  0.00  0.00     0.102 C 
BRANCH  10  11
ATOM     11  C   UNL d   1      55.846  -0.543  32.974  0.00  0.00     0.019 A 
ATOM     12  C   UNL d   1      55.241   0.015  32.954  0.00  0.00     0.002 A 
ATOM     13  C   UNL d   1      54.963   0.347  33.654  0.00  0.00     0.011 A 
ATOM     14  C   UNL d   1      55.289   0.120  34.375  0.00  0.00     0.058 A 
ATOM     15  C   UNL d   1      55.902  -0.445  34.396  0.00  0.00     0.011 A 
ATOM     16 CL   UNL d   1      55.011   0.452  35.082  0.00  0.00    -0.082 Cl
ATOM     17  C   UNL d   1      56.176  -0.772  33.695  0.00  0.00     0.002 A 
ENDBRANCH  10  11
ENDBRANCH   2  10
BRANCH   4  18
ATOM     18  N   UNL d   1      58.803  -0.574  29.868  0.00  0.00    -0.289 N 
ATOM     19  C   UNL d   1      59.623  -0.774  30.033  0.00  0.00     0.082 A 
ATOM     20  C   UNL d   1      60.249  -0.388  29.593  0.00  0.00     0.019 A 
ATOM     21  C   UNL d   1      60.048   0.193  28.993  0.00  0.00     0.003 A 
ATOM     22  C   UNL d   1      59.237   0.390  28.830  0.00  0.00     0.019 A 
ATOM     23  C   UNL d   1      60.671   0.577  28.555  0.00  0.00     0.000 C 
ATOM     24  C   UNL d   1      58.614   0.006  29.269  0.00  0.00     0.082 A 
ENDBRANCH   4  18
TORSDOF 3
ENDMDL
