MODEL 1
REMARK VINA RESULT:     166.7      0.000      0.000
REMARK  1 active torsions:
REMARK  status: ('A' for Active; 'I' for Inactive)
REMARK    1  A    between atoms: C_24  and  N_4 
ROOT
ATOM      1  C   UNL d   1     -56.857 -98.757 -43.922  0.00  0.00     0.111 A 
ATOM      2  C   UNL d   1     -58.145 -98.757 -44.494  0.00  0.00     0.062 A 
ATOM      3  C   UNL d   1     -57.669 -98.758 -43.854  0.00  0.00     0.018 A 
ATOM      4  N   UNL d   1     -59.080 -98.762 -40.397  0.00  0.00    -0.305 N 
ATOM      5  C   UNL d   1     -56.519 -98.756 -44.683  0.00  0.00     0.213 A 
ATOM      6  C   UNL d   1     -57.807 -98.757 -45.255  0.00  0.00     0.101 A 
ATOM      7  C   UNL d   1     -58.071 -98.760 -41.264  0.00  0.00     0.018 A 
ATOM      8  C   UNL d   1     -58.893 -98.761 -41.197  0.00  0.00     0.064 A 
ATOM      9  O   UNL d   1     -57.001 -98.756 -45.358  0.00  0.00    -0.288 OA
ATOM     10  C   UNL d   1     -58.964 -98.758 -44.430  0.00  0.00     0.194 A 
ATOM     11  C   UNL d   1     -58.388 -98.762 -39.980  0.00  0.00     0.064 A 
ATOM     12  C   UNL d   1     -58.187 -98.759 -42.688  0.00  0.00     0.001 A 
ATOM     13  C   UNL d   1     -57.756 -98.761 -40.506  0.00  0.00     0.018 A 
ATOM     14  C   UNL d   1     -57.716 -98.759 -42.019  0.00  0.00     0.002 A 
ATOM     15  C   UNL d   1     -56.368 -98.758 -43.252  0.00  0.00     0.105 C 
ATOM     16  N   UNL d   1     -55.859 -98.758 -42.561  0.00  0.00    -0.191 NA
ATOM     17  C   UNL d   1     -59.346 -98.760 -41.887  0.00  0.00     0.018 A 
ATOM     18  C   UNL d   1     -58.296 -98.756 -45.933  0.00  0.00     0.002 A 
ATOM     19  C   UNL d   1     -59.117 -98.757 -45.837  0.00  0.00     0.042 A 
ATOM     20  C   UNL d   1     -59.456 -98.758 -45.076  0.00  0.00     0.019 A 
ATOM     21  C   UNL d   1     -58.988 -98.760 -42.624  0.00  0.00     0.002 A 
ATOM     22  O   UNL d   1     -59.306 -98.759 -43.659  0.00  0.00    -0.287 OA
ATOM     23  N   UNL d   1     -55.691 -98.756 -44.776  0.00  0.00    -0.120 N 
ATOM     24  C   UNL d   1     -58.225 -98.762 -39.159  0.00  0.00     0.018 A 
ATOM     25  C   UNL d   1     -56.964 -98.761 -40.218  0.00  0.00     0.002 A 
ATOM     26  C   UNL d   1     -59.841 -98.757 -46.159  0.00  0.00     0.009 C 
ATOM     27  C   UNL d   1     -58.950 -98.756 -46.623  0.00  0.00     0.009 C 
ATOM     28  C   UNL d   1     -56.815 -98.761 -39.408  0.00  0.00     0.000 A 
ATOM     29  C   UNL d   1     -57.455 -98.762 -38.879  0.00  0.00     0.002 A 
ENDROOT
BRANCH   4  30
ATOM     30  C   UNL d   1     -59.820 -98.762 -40.057  0.00  0.00     0.080 C 
ATOM     31  C   UNL d   1     -59.949 -99.111 -39.318  0.00  0.00     0.021 C 
ENDBRANCH   4  30
TORSDOF 1
ENDMDL
