MODEL 1
REMARK VINA RESULT:      -5.1      0.000      0.000
REMARK  6 active torsions:
REMARK  status: ('A' for Active; 'I' for Inactive)
REMARK    1  A    between atoms: C_2  and  N_1 
REMARK    2  A    between atoms: C_4  and  C_2 
REMARK    3  A    between atoms: C_6  and  C_2 
REMARK    4  A    between atoms: C_8  and  N_3 
REMARK       I    between atoms: C_5  and  N_7 
REMARK    5  A    between atoms: O_20  and  C_5 
REMARK    6  A    between atoms: N_7  and  C_6 
ROOT
ATOM      1  N   UNL d   1     -47.379  13.348  22.713  0.00  0.00    -0.298 N 
ATOM      2  N   UNL d   1     -45.808  13.018  22.325  0.00  0.00    -0.301 N 
ATOM      3  C   UNL d   1     -47.178  13.189  21.937  0.00  0.00     0.100 A 
ATOM      4  C   UNL d   1     -46.800  13.344  23.302  0.00  0.00     0.100 A 
ATOM      5  C   UNL d   1     -46.024  13.181  23.110  0.00  0.00     0.100 A 
ATOM      6  C   UNL d   1     -46.386  13.022  21.736  0.00  0.00     0.100 A 
ENDROOT
BRANCH   1   7
ATOM      7  C   UNL d   1     -48.170  13.514  22.914  0.00  0.00     0.107 C 
BRANCH   7   8
ATOM      8  C   UNL d   1     -48.470  14.286  22.780  0.00  0.00     0.118 A 
ATOM      9  O   UNL d   1     -48.657  14.781  23.415  0.00  0.00    -0.304 OA
ATOM     10  C   UNL d   1     -48.937  15.497  23.100  0.00  0.00     0.123 A 
ATOM     11  C   UNL d   1     -48.920  15.442  22.287  0.00  0.00     0.029 A 
ATOM     12  C   UNL d   1     -48.632  14.693  22.082  0.00  0.00     0.028 A 
ENDBRANCH   7   8
BRANCH   7  13
ATOM     13  C   UNL d   1     -48.660  12.939  23.240  0.00  0.00     0.124 C 
BRANCH  13  14
ATOM     14  N   UNL d   1     -49.325  12.669  22.806  0.00  0.00    -0.183 NA
ATOM     15  C   UNL d   1     -49.717  11.993  23.032  0.00  0.00     0.388 C 
ATOM     16  O   UNL d   1     -49.460  11.569  23.695  0.00  0.00    -0.236 OA
BRANCH  15  17
ATOM     17  O   UNL d   1     -50.369  11.734  22.600  0.00  0.00    -0.281 OA
ATOM     18  C   UNL d   1     -51.058  12.189  22.580  0.00  0.00     0.186 C 
ENDBRANCH  15  17
ENDBRANCH  13  14
ENDBRANCH   7  13
ENDBRANCH   1   7
BRANCH   2  19
ATOM     19  C   UNL d   1     -45.039  12.858  22.140  0.00  0.00     0.064 A 
ATOM     20  C   UNL d   1     -44.655  12.221  22.493  0.00  0.00     0.020 A 
ATOM     21  C   UNL d   1     -43.871  12.050  22.309  0.00  0.00     0.031 A 
ATOM     22  C   UNL d   1     -43.466  12.522  21.767  0.00  0.00     0.140 A 
ATOM     23  C   UNL d   1     -43.847  13.162  21.411  0.00  0.00     0.031 A 
ATOM     24  F   UNL d   1     -42.667  12.354  21.576  0.00  0.00    -0.204 F 
ATOM     25  C   UNL d   1     -44.633  13.330  21.598  0.00  0.00     0.020 A 
ENDBRANCH   2  19
TORSDOF 6
ENDMDL
MODEL 2
REMARK VINA RESULT:      -5.0      5.926      8.218
REMARK  6 active torsions:
REMARK  status: ('A' for Active; 'I' for Inactive)
REMARK    1  A    between atoms: C_2  and  N_1 
REMARK    2  A    between atoms: C_4  and  C_2 
REMARK    3  A    between atoms: C_6  and  C_2 
REMARK    4  A    between atoms: C_8  and  N_3 
REMARK       I    between atoms: C_5  and  N_7 
REMARK    5  A    between atoms: O_20  and  C_5 
REMARK    6  A    between atoms: N_7  and  C_6 
ROOT
ATOM      1  N   UNL d   1     -40.059  14.718  19.837  0.00  0.00    -0.298 N 
ATOM      2  N   UNL d   1     -39.394  14.584  18.332  0.00  0.00    -0.301 N 
ATOM      3  C   UNL d   1     -40.282  15.238  19.247  0.00  0.00     0.100 A 
ATOM      4  C   UNL d   1     -39.504  14.128  19.683  0.00  0.00     0.100 A 
ATOM      5  C   UNL d   1     -39.174  14.061  18.940  0.00  0.00     0.100 A 
ATOM      6  C   UNL d   1     -39.949  15.174  18.486  0.00  0.00     0.100 A 
ENDROOT
BRANCH   1   7
ATOM      7  C   UNL d   1     -40.392  14.781  20.598  0.00  0.00     0.107 C 
BRANCH   7   8
ATOM      8  C   UNL d   1     -39.913  15.051  21.231  0.00  0.00     0.118 A 
ATOM      9  O   UNL d   1     -39.962  15.833  21.493  0.00  0.00    -0.304 OA
ATOM     10  C   UNL d   1     -39.423  15.922  22.118  0.00  0.00     0.123 A 
ATOM     11  C   UNL d   1     -39.050  15.207  22.237  0.00  0.00     0.029 A 
ATOM     12  C   UNL d   1     -39.349  14.662  21.690  0.00  0.00     0.028 A 
ENDBRANCH   7   8
BRANCH   7  13
ATOM     13  C   UNL d   1     -41.179  14.586  20.739  0.00  0.00     0.124 C 
BRANCH  13  14
ATOM     14  N   UNL d   1     -41.385  13.789  20.901  0.00  0.00    -0.183 NA
ATOM     15  C   UNL d   1     -42.151  13.591  21.089  0.00  0.00     0.388 C 
ATOM     16  O   UNL d   1     -42.733  14.180  21.122  0.00  0.00    -0.236 OA
BRANCH  15  17
ATOM     17  O   UNL d   1     -42.344  12.806  21.246  0.00  0.00    -0.281 OA
ATOM     18  C   UNL d   1     -43.116  12.606  21.461  0.00  0.00     0.186 C 
ENDBRANCH  15  17
ENDBRANCH  13  14
ENDBRANCH   7  13
ENDBRANCH   1   7
BRANCH   2  19
ATOM     19  C   UNL d   1     -39.065  14.515  17.598  0.00  0.00     0.064 A 
ATOM     20  C   UNL d   1     -38.756  15.179  17.221  0.00  0.00     0.020 A 
ATOM     21  C   UNL d   1     -38.419  15.117  16.473  0.00  0.00     0.031 A 
ATOM     22  C   UNL d   1     -38.392  14.384  16.096  0.00  0.00     0.140 A 
ATOM     23  C   UNL d   1     -38.701  13.715  16.470  0.00  0.00     0.031 A 
ATOM     24  F   UNL d   1     -38.051  14.313  15.334  0.00  0.00    -0.204 F 
ATOM     25  C   UNL d   1     -39.037  13.782  17.221  0.00  0.00     0.020 A 
ENDBRANCH   2  19
TORSDOF 6
ENDMDL
MODEL 3
REMARK VINA RESULT:      -4.8      2.719      5.086
REMARK  6 active torsions:
REMARK  status: ('A' for Active; 'I' for Inactive)
REMARK    1  A    between atoms: C_2  and  N_1 
REMARK    2  A    between atoms: C_4  and  C_2 
REMARK    3  A    between atoms: C_6  and  C_2 
REMARK    4  A    between atoms: C_8  and  N_3 
REMARK       I    between atoms: C_5  and  N_7 
REMARK    5  A    between atoms: O_20  and  C_5 
REMARK    6  A    between atoms: N_7  and  C_6 
ROOT
ATOM      1  N   UNL d   1     -46.720  12.939  22.566  0.00  0.00    -0.298 N 
ATOM      2  N   UNL d   1     -48.018  13.941  22.760  0.00  0.00    -0.301 N 
ATOM      3  C   UNL d   1     -46.639  13.630  22.995  0.00  0.00     0.100 A 
ATOM      4  C   UNL d   1     -47.447  12.741  22.231  0.00  0.00     0.100 A 
ATOM      5  C   UNL d   1     -48.089  13.235  22.326  0.00  0.00     0.100 A 
ATOM      6  C   UNL d   1     -47.291  14.139  23.095  0.00  0.00     0.100 A 
ENDROOT
BRANCH   1   7
ATOM      7  C   UNL d   1     -46.068  12.431  22.466  0.00  0.00     0.107 C 
BRANCH   7   8
ATOM      8  C   UNL d   1     -46.002  11.752  22.954  0.00  0.00     0.118 A 
ATOM      9  O   UNL d   1     -45.266  11.505  23.234  0.00  0.00    -0.304 OA
ATOM     10  C   UNL d   1     -45.388  10.825  23.696  0.00  0.00     0.123 A 
ATOM     11  C   UNL d   1     -46.186  10.659  23.698  0.00  0.00     0.029 A 
ATOM     12  C   UNL d   1     -46.573  11.230  23.239  0.00  0.00     0.028 A 
ENDBRANCH   7   8
BRANCH   7  13
ATOM     13  C   UNL d   1     -45.490  12.581  21.900  0.00  0.00     0.124 C 
BRANCH  13  14
ATOM     14  N   UNL d   1     -44.739  12.866  22.141  0.00  0.00    -0.183 NA
ATOM     15  C   UNL d   1     -44.162  13.023  21.590  0.00  0.00     0.388 C 
ATOM     16  O   UNL d   1     -44.315  12.903  20.785  0.00  0.00    -0.236 OA
BRANCH  15  17
ATOM     17  O   UNL d   1     -43.426  13.303  21.836  0.00  0.00    -0.281 OA
ATOM     18  C   UNL d   1     -42.737  13.018  21.481  0.00  0.00     0.186 C 
ENDBRANCH  15  17
ENDBRANCH  13  14
ENDBRANCH   7  13
ENDBRANCH   1   7
BRANCH   2  19
ATOM     19  C   UNL d   1     -48.656  14.427  22.852  0.00  0.00     0.064 A 
ATOM     20  C   UNL d   1     -49.147  14.342  23.507  0.00  0.00     0.020 A 
ATOM     21  C   UNL d   1     -49.799  14.834  23.609  0.00  0.00     0.031 A 
ATOM     22  C   UNL d   1     -49.963  15.417  23.049  0.00  0.00     0.140 A 
ATOM     23  C   UNL d   1     -49.473  15.506  22.390  0.00  0.00     0.031 A 
ATOM     24  F   UNL d   1     -50.625  15.922  23.145  0.00  0.00    -0.204 F 
ATOM     25  C   UNL d   1     -48.819  15.011  22.292  0.00  0.00     0.020 A 
ENDBRANCH   2  19
TORSDOF 6
ENDMDL
MODEL 4
REMARK VINA RESULT:      -4.4      1.198      1.421
REMARK  6 active torsions:
REMARK  status: ('A' for Active; 'I' for Inactive)
REMARK    1  A    between atoms: C_2  and  N_1 
REMARK    2  A    between atoms: C_4  and  C_2 
REMARK    3  A    between atoms: C_6  and  C_2 
REMARK    4  A    between atoms: C_8  and  N_3 
REMARK       I    between atoms: C_5  and  N_7 
REMARK    5  A    between atoms: O_20  and  C_5 
REMARK    6  A    between atoms: N_7  and  C_6 
ROOT
ATOM      1  N   UNL d   1     -47.737  13.056  23.001  0.00  0.00    -0.298 N 
ATOM      2  N   UNL d   1     -46.384  12.116  23.114  0.00  0.00    -0.301 N 
ATOM      3  C   UNL d   1     -47.578  12.503  22.420  0.00  0.00     0.100 A 
ATOM      4  C   UNL d   1     -47.224  13.146  23.641  0.00  0.00     0.100 A 
ATOM      5  C   UNL d   1     -46.556  12.682  23.698  0.00  0.00     0.100 A 
ATOM      6  C   UNL d   1     -46.896  12.026  22.473  0.00  0.00     0.100 A 
ENDROOT
BRANCH   1   7
ATOM      7  C   UNL d   1     -48.418  13.533  22.948  0.00  0.00     0.107 C 
BRANCH   7   8
ATOM      8  C   UNL d   1     -48.342  14.321  22.669  0.00  0.00     0.118 A 
ATOM      9  O   UNL d   1     -48.553  14.958  23.150  0.00  0.00    -0.304 OA
ATOM     10  C   UNL d   1     -48.415  15.654  22.718  0.00  0.00     0.123 A 
ATOM     11  C   UNL d   1     -48.125  15.446  21.985  0.00  0.00     0.029 A 
ATOM     12  C   UNL d   1     -48.078  14.619  21.948  0.00  0.00     0.028 A 
ENDBRANCH   7   8
BRANCH   7  13
ATOM     13  C   UNL d   1     -49.159  13.247  23.162  0.00  0.00     0.124 C 
BRANCH  13  14
ATOM     14  N   UNL d   1     -49.665  12.927  22.574  0.00  0.00    -0.183 NA
ATOM     15  C   UNL d   1     -50.379  12.597  22.781  0.00  0.00     0.388 C 
ATOM     16  O   UNL d   1     -50.608  12.574  23.576  0.00  0.00    -0.236 OA
BRANCH  15  17
ATOM     17  O   UNL d   1     -50.870  12.285  22.197  0.00  0.00    -0.281 OA
ATOM     18  C   UNL d   1     -51.058  12.736  21.531  0.00  0.00     0.186 C 
ENDBRANCH  15  17
ENDBRANCH  13  14
ENDBRANCH   7  13
ENDBRANCH   1   7
BRANCH   2  19
ATOM     19  C   UNL d   1     -45.722  11.658  23.174  0.00  0.00     0.064 A 
ATOM     20  C   UNL d   1     -45.737  10.970  23.625  0.00  0.00     0.020 A 
ATOM     21  C   UNL d   1     -45.066  10.497  23.691  0.00  0.00     0.031 A 
ATOM     22  C   UNL d   1     -44.372  10.716  23.302  0.00  0.00     0.140 A 
ATOM     23  C   UNL d   1     -44.352  11.406  22.849  0.00  0.00     0.031 A 
ATOM     24  F   UNL d   1     -43.685  10.240  23.365  0.00  0.00    -0.204 F 
ATOM     25  C   UNL d   1     -45.028  11.877  22.785  0.00  0.00     0.020 A 
ENDBRANCH   2  19
TORSDOF 6
ENDMDL
