MODEL 1
REMARK VINA RESULT:      -0.8      0.000      0.000
REMARK  6 active torsions:
REMARK  status: ('A' for Active; 'I' for Inactive)
REMARK    1  A    between atoms: C_3  and  S_1 
REMARK    2  A    between atoms: N_5  and  S_1 
REMARK    3  A    between atoms: S_2  and  N_6 
REMARK    4  A    between atoms: C_4  and  S_2 
REMARK    5  A    between atoms: O_25  and  C_15 
REMARK    6  A    between atoms: O_26  and  C_16 
ROOT
ATOM      1  N   UNL d   1     -41.997-122.936 -50.330  0.00  0.00    -0.226 N 
ATOM      2  N   UNL d   1     -41.815-122.787 -51.959  0.00  0.00    -0.226 N 
ATOM      3  C   UNL d   1     -41.354-123.299 -50.700  0.00  0.00     0.111 A 
ATOM      4  C   UNL d   1     -42.456-122.427 -51.578  0.00  0.00     0.111 A 
ATOM      5  C   UNL d   1     -41.265-123.222 -51.522  0.00  0.00     0.111 A 
ATOM      6  C   UNL d   1     -42.548-122.501 -50.767  0.00  0.00     0.111 A 
ENDROOT
BRANCH   1   7
ATOM      7  S   UNL d   1     -42.087-123.014 -49.503  0.00  0.00     0.273 S 
ATOM      8  O   UNL d   1     -41.478-123.355 -49.059  0.00  0.00    -0.200 OA
ATOM      9  O   UNL d   1     -42.772-122.755 -49.134  0.00  0.00    -0.200 OA
BRANCH   7  10
ATOM     10  C   UNL d   1     -42.179-123.089 -48.684  0.00  0.00     0.126 A 
ATOM     11  C   UNL d   1     -42.828-123.487 -48.380  0.00  0.00     0.106 A 
ATOM     12  C   UNL d   1     -42.914-123.558 -47.561  0.00  0.00     0.025 A 
ATOM     13  C   UNL d   1     -42.349-123.230 -47.054  0.00  0.00     0.002 A 
ATOM     14  C   UNL d   1     -41.695-122.830 -47.371  0.00  0.00     0.001 A 
ATOM     15  C   UNL d   1     -41.607-122.757 -48.181  0.00  0.00     0.015 A 
ATOM     16  C   UNL d   1     -41.127-122.500 -46.858  0.00  0.00     0.000 C 
BRANCH  11  17
ATOM     17  O   UNL d   1     -43.390-123.813 -48.882  0.00  0.00    -0.327 OA
ATOM     18  C   UNL d   1     -44.189-123.795 -48.672  0.00  0.00     0.181 C 
ENDBRANCH  11  17
ENDBRANCH   7  10
ENDBRANCH   1   7
BRANCH   2  19
ATOM     19  S   UNL d   1     -41.723-122.712 -52.778  0.00  0.00     0.273 S 
ATOM     20  O   UNL d   1     -41.308-122.067 -53.087  0.00  0.00    -0.200 OA
ATOM     21  O   UNL d   1     -42.041-123.277 -53.287  0.00  0.00    -0.200 OA
BRANCH  19  22
ATOM     22  C   UNL d   1     -41.613-122.610 -53.591  0.00  0.00     0.126 A 
ATOM     23  C   UNL d   1     -41.680-121.859 -53.921  0.00  0.00     0.106 A 
ATOM     24  C   UNL d   1     -41.571-121.758 -54.727  0.00  0.00     0.025 A 
ATOM     25  C   UNL d   1     -41.396-122.407 -55.205  0.00  0.00     0.002 A 
ATOM     26  C   UNL d   1     -41.330-123.158 -54.870  0.00  0.00     0.001 A 
ATOM     27  C   UNL d   1     -41.441-123.253 -54.056  0.00  0.00     0.015 A 
ATOM     28  C   UNL d   1     -41.156-123.809 -55.337  0.00  0.00     0.000 C 
BRANCH  23  29
ATOM     29  O   UNL d   1     -41.855-121.210 -53.443  0.00  0.00    -0.327 OA
ATOM     30  C   UNL d   1     -42.039-120.484 -53.788  0.00  0.00     0.181 C 
ENDBRANCH  23  29
ENDBRANCH  19  22
ENDBRANCH   2  19
TORSDOF 6
ENDMDL
MODEL 2
REMARK VINA RESULT:      -0.1      0.527      5.601
REMARK  6 active torsions:
REMARK  status: ('A' for Active; 'I' for Inactive)
REMARK    1  A    between atoms: C_3  and  S_1 
REMARK    2  A    between atoms: N_5  and  S_1 
REMARK    3  A    between atoms: S_2  and  N_6 
REMARK    4  A    between atoms: C_4  and  S_2 
REMARK    5  A    between atoms: O_25  and  C_15 
REMARK    6  A    between atoms: O_26  and  C_16 
ROOT
ATOM      1  N   UNL d   1     -41.757-122.909 -52.055  0.00  0.00    -0.226 N 
ATOM      2  N   UNL d   1     -41.988-123.182 -50.448  0.00  0.00    -0.226 N 
ATOM      3  C   UNL d   1     -41.910-123.677 -51.793  0.00  0.00     0.111 A 
ATOM      4  C   UNL d   1     -41.833-122.417 -50.722  0.00  0.00     0.111 A 
ATOM      5  C   UNL d   1     -42.026-123.812 -50.982  0.00  0.00     0.111 A 
ATOM      6  C   UNL d   1     -41.718-122.279 -51.521  0.00  0.00     0.111 A 
ENDROOT
BRANCH   1   7
ATOM      7  S   UNL d   1     -41.640-122.774 -52.871  0.00  0.00     0.273 S 
ATOM      8  O   UNL d   1     -41.987-123.286 -53.421  0.00  0.00    -0.200 OA
ATOM      9  O   UNL d   1     -41.186-122.140 -53.125  0.00  0.00    -0.200 OA
BRANCH   7  10
ATOM     10  C   UNL d   1     -41.522-122.637 -53.678  0.00  0.00     0.126 A 
ATOM     11  C   UNL d   1     -41.545-121.872 -53.971  0.00  0.00     0.106 A 
ATOM     12  C   UNL d   1     -41.426-121.742 -54.780  0.00  0.00     0.025 A 
ATOM     13  C   UNL d   1     -41.286-122.380 -55.286  0.00  0.00     0.002 A 
ATOM     14  C   UNL d   1     -41.265-123.151 -54.981  0.00  0.00     0.001 A 
ATOM     15  C   UNL d   1     -41.382-123.283 -54.182  0.00  0.00     0.015 A 
ATOM     16  C   UNL d   1     -41.124-123.792 -55.493  0.00  0.00     0.000 C 
BRANCH  11  17
ATOM     17  O   UNL d   1     -41.684-121.237 -53.469  0.00  0.00    -0.327 OA
ATOM     18  C   UNL d   1     -41.984-120.530 -53.774  0.00  0.00     0.181 C 
ENDBRANCH  11  17
ENDBRANCH   7  10
ENDBRANCH   1   7
BRANCH   2  19
ATOM     19  S   UNL d   1     -42.104-123.321 -49.641  0.00  0.00     0.273 S 
ATOM     20  O   UNL d   1     -42.730-123.801 -49.393  0.00  0.00    -0.200 OA
ATOM     21  O   UNL d   1     -41.600-122.983 -49.083  0.00  0.00    -0.200 OA
BRANCH  19  22
ATOM     22  C   UNL d   1     -42.246-123.478 -48.842  0.00  0.00     0.126 A 
ATOM     23  C   UNL d   1     -43.018-123.586 -48.577  0.00  0.00     0.106 A 
ATOM     24  C   UNL d   1     -43.159-123.742 -47.786  0.00  0.00     0.025 A 
ATOM     25  C   UNL d   1     -42.528-123.790 -47.256  0.00  0.00     0.002 A 
ATOM     26  C   UNL d   1     -41.756-123.681 -47.524  0.00  0.00     0.001 A 
ATOM     27  C   UNL d   1     -41.622-123.524 -48.325  0.00  0.00     0.015 A 
ATOM     28  C   UNL d   1     -41.124-123.726 -47.006  0.00  0.00     0.000 C 
BRANCH  23  29
ATOM     29  O   UNL d   1     -43.648-123.538 -49.107  0.00  0.00    -0.327 OA
ATOM     30  C   UNL d   1     -44.419-123.660 -48.841  0.00  0.00     0.181 C 
ENDBRANCH  23  29
ENDBRANCH  19  22
ENDBRANCH   2  19
TORSDOF 6
ENDMDL
