MODEL 1
REMARK VINA RESULT:      -7.5      0.000      0.000
REMARK  2 active torsions:
REMARK  status: ('A' for Active; 'I' for Inactive)
REMARK    1  A    between atoms: CA_3  and  C_1 
REMARK    2  A    between atoms: C_2  and  CA_3 
ROOT
ATOM      1  C   UNL d   1      53.656  32.047  53.660  0.00  0.00     0.026 A 
ATOM      2  C   UNL d   1      53.789  31.241  53.814  0.00  0.00     0.013 A 
ATOM      3  C   UNL d   1      53.308  30.670  53.470  0.00  0.00     0.058 A 
ATOM      4 CL   UNL d   1      53.443  29.872  53.626  0.00  0.00    -0.082 Cl
ATOM      5  C   UNL d   1      53.039  32.271  53.160  0.00  0.00     0.002 A 
ATOM      6  C   UNL d   1      52.556  31.691  52.815  0.00  0.00     0.001 A 
ATOM      7  C   UNL d   1      52.691  30.894  52.970  0.00  0.00     0.011 A 
ENDROOT
BRANCH   1   8
ATOM      8  CA  UNL d   1      54.141  32.618  54.007  0.00  0.00     0.167 C 
ATOM      9  N   UNL d   1      54.845  32.839  53.644  0.00  0.00    -0.142 N 
BRANCH   8  10
ATOM     10  C   UNL d   1      53.915  32.967  54.720  0.00  0.00     0.231 C 
ATOM     11  O   UNL d   1      54.168  32.656  55.439  0.00  0.00    -0.643 OA
ATOM     12  OXT UNL d   1      53.430  33.637  54.716  0.00  0.00    -0.643 OA
ENDBRANCH   8  10
ENDBRANCH   1   8
TORSDOF 2
ENDMDL
MODEL 2
REMARK VINA RESULT:      -7.4      1.853      2.636
REMARK  2 active torsions:
REMARK  status: ('A' for Active; 'I' for Inactive)
REMARK    1  A    between atoms: CA_3  and  C_1 
REMARK    2  A    between atoms: C_2  and  CA_3 
ROOT
ATOM      1  C   UNL d   1      53.900  32.282  53.859  0.00  0.00     0.026 A 
ATOM      2  C   UNL d   1      53.874  32.486  54.664  0.00  0.00     0.013 A 
ATOM      3  C   UNL d   1      54.410  33.032  54.969  0.00  0.00     0.058 A 
ATOM      4 CL   UNL d   1      54.380  33.232  55.767  0.00  0.00    -0.082 Cl
ATOM      5  C   UNL d   1      54.465  32.626  53.366  0.00  0.00     0.002 A 
ATOM      6  C   UNL d   1      55.004  33.176  53.679  0.00  0.00     0.001 A 
ATOM      7  C   UNL d   1      54.975  33.376  54.476  0.00  0.00     0.011 A 
ENDROOT
BRANCH   1   8
ATOM      8  CA  UNL d   1      53.361  31.734  53.556  0.00  0.00     0.167 C 
ATOM      9  N   UNL d   1      53.440  30.935  53.730  0.00  0.00    -0.142 N 
BRANCH   8  10
ATOM     10  C   UNL d   1      52.742  31.993  53.076  0.00  0.00     0.231 C 
ATOM     11  O   UNL d   1      52.090  32.376  53.401  0.00  0.00    -0.643 OA
ATOM     12  OXT UNL d   1      52.773  31.868  52.258  0.00  0.00    -0.643 OA
ENDBRANCH   8  10
ENDBRANCH   1   8
TORSDOF 2
ENDMDL
MODEL 3
REMARK VINA RESULT:      -7.2      1.209      1.511
REMARK  2 active torsions:
REMARK  status: ('A' for Active; 'I' for Inactive)
REMARK    1  A    between atoms: CA_3  and  C_1 
REMARK    2  A    between atoms: C_2  and  CA_3 
ROOT
ATOM      1  C   UNL d   1      53.833  32.633  53.798  0.00  0.00     0.026 A 
ATOM      2  C   UNL d   1      53.229  33.079  53.444  0.00  0.00     0.013 A 
ATOM      3  C   UNL d   1      52.620  32.702  53.038  0.00  0.00     0.058 A 
ATOM      4 CL   UNL d   1      52.023  33.148  52.688  0.00  0.00    -0.082 Cl
ATOM      5  C   UNL d   1      53.822  31.810  53.742  0.00  0.00     0.002 A 
ATOM      6  C   UNL d   1      53.205  31.433  53.332  0.00  0.00     0.001 A 
ATOM      7  C   UNL d   1      52.609  31.879  52.982  0.00  0.00     0.011 A 
ENDROOT
BRANCH   1   8
ATOM      8  CA  UNL d   1      54.443  33.014  54.205  0.00  0.00     0.167 C 
ATOM      9  N   UNL d   1      55.173  33.126  53.845  0.00  0.00    -0.142 N 
BRANCH   8  10
ATOM     10  C   UNL d   1      54.315  33.283  54.974  0.00  0.00     0.231 C 
ATOM     11  O   UNL d   1      54.294  32.756  55.606  0.00  0.00    -0.643 OA
ATOM     12  OXT UNL d   1      54.206  34.091  55.117  0.00  0.00    -0.643 OA
ENDBRANCH   8  10
ENDBRANCH   1   8
TORSDOF 2
ENDMDL
MODEL 4
REMARK VINA RESULT:      -7.0      2.333      2.786
REMARK  2 active torsions:
REMARK  status: ('A' for Active; 'I' for Inactive)
REMARK    1  A    between atoms: CA_3  and  C_1 
REMARK    2  A    between atoms: C_2  and  CA_3 
ROOT
ATOM      1  C   UNL d   1      53.378  33.617  53.969  0.00  0.00     0.026 A 
ATOM      2  C   UNL d   1      53.779  33.751  54.684  0.00  0.00     0.013 A 
ATOM      3  C   UNL d   1      54.497  33.377  54.831  0.00  0.00     0.058 A 
ATOM      4 CL   UNL d   1      54.892  33.512  55.541  0.00  0.00    -0.082 Cl
ATOM      5  C   UNL d   1      53.702  33.109  53.406  0.00  0.00     0.002 A 
ATOM      6  C   UNL d   1      54.427  32.734  53.559  0.00  0.00     0.001 A 
ATOM      7  C   UNL d   1      54.822  32.869  54.268  0.00  0.00     0.011 A 
ENDROOT
BRANCH   1   8
ATOM      8  CA  UNL d   1      52.657  33.994  53.825  0.00  0.00     0.167 C 
ATOM      9  N   UNL d   1      51.949  33.594  53.949  0.00  0.00    -0.142 N 
BRANCH   8  10
ATOM     10  C   UNL d   1      52.650  34.773  53.555  0.00  0.00     0.231 C 
ATOM     11  O   UNL d   1      52.583  35.401  54.084  0.00  0.00    -0.643 OA
ATOM     12  OXT UNL d   1      52.710  34.931  52.744  0.00  0.00    -0.643 OA
ENDBRANCH   8  10
ENDBRANCH   1   8
TORSDOF 2
ENDMDL
MODEL 5
REMARK VINA RESULT:      -6.9      1.827      2.321
REMARK  2 active torsions:
REMARK  status: ('A' for Active; 'I' for Inactive)
REMARK    1  A    between atoms: CA_3  and  C_1 
REMARK    2  A    between atoms: C_2  and  CA_3 
ROOT
ATOM      1  C   UNL d   1      53.487  33.573  53.911  0.00  0.00     0.026 A 
ATOM      2  C   UNL d   1      52.791  33.176  53.692  0.00  0.00     0.013 A 
ATOM      3  C   UNL d   1      52.124  33.604  53.469  0.00  0.00     0.058 A 
ATOM      4 CL   UNL d   1      51.435  33.207  53.253  0.00  0.00    -0.082 Cl
ATOM      5  C   UNL d   1      53.509  34.397  53.904  0.00  0.00     0.002 A 
ATOM      6  C   UNL d   1      52.834  34.825  53.678  0.00  0.00     0.001 A 
ATOM      7  C   UNL d   1      52.146  34.429  53.462  0.00  0.00     0.011 A 
ENDROOT
BRANCH   1   8
ATOM      8  CA  UNL d   1      54.154  33.140  54.134  0.00  0.00     0.167 C 
ATOM      9  N   UNL d   1      54.606  32.753  53.567  0.00  0.00    -0.142 N 
BRANCH   8  10
ATOM     10  C   UNL d   1      54.366  33.097  54.930  0.00  0.00     0.231 C 
ATOM     11  O   UNL d   1      54.018  32.543  55.429  0.00  0.00    -0.643 OA
ATOM     12  OXT UNL d   1      54.935  33.616  55.235  0.00  0.00    -0.643 OA
ENDBRANCH   8  10
ENDBRANCH   1   8
TORSDOF 2
ENDMDL
