MODEL 1
REMARK VINA RESULT:      -8.1      0.000      0.000
REMARK  6 active torsions:
REMARK  status: ('A' for Active; 'I' for Inactive)
REMARK    1  A    between atoms: C_6  and  N_2 
REMARK    2  A    between atoms: C_7  and  C_3 
REMARK    3  A    between atoms: C_14  and  C_6 
REMARK    4  A    between atoms: C_8  and  O_16 
REMARK    5  A    between atoms: C_19  and  C_14 
REMARK    6  A    between atoms: O_16  and  C_19 
ROOT
ATOM      1  N   UNL d   1      53.637  34.010  54.448  0.00  0.00    -0.224 NA
ATOM      2  N   UNL d   1      52.687  33.996  53.492  0.00  0.00    -0.286 N 
ATOM      3  C   UNL d   1      53.062  34.476  54.055  0.00  0.00     0.191 A 
ATOM      4  C   UNL d   1      53.023  33.234  53.530  0.00  0.00     0.083 A 
ATOM      5  C   UNL d   1      53.607  33.241  54.118  0.00  0.00     0.099 A 
ATOM      6  C   UNL d   1      52.879  32.536  53.114  0.00  0.00     0.019 A 
ATOM      7  C   UNL d   1      54.040  32.560  54.286  0.00  0.00     0.021 A 
ATOM      8  C   UNL d   1      53.313  31.854  53.282  0.00  0.00     0.002 A 
ATOM      9  C   UNL d   1      53.893  31.869  53.869  0.00  0.00     0.002 A 
ENDROOT
BRANCH   2  10
ATOM     10  C   UNL d   1      52.103  34.381  53.058  0.00  0.00     0.084 C 
BRANCH  10  11
ATOM     11  C   UNL d   1      51.347  34.072  53.036  0.00  0.00     0.046 C 
BRANCH  11  12
ATOM     12  C   UNL d   1      50.746  34.515  52.692  0.00  0.00     0.124 C 
BRANCH  12  13
ATOM     13  O   UNL d   1      49.998  34.182  52.588  0.00  0.00    -0.305 OA
BRANCH  13  14
ATOM     14  C   UNL d   1      49.353  34.666  52.412  0.00  0.00     0.100 A 
ATOM     15  C   UNL d   1      49.001  34.628  51.665  0.00  0.00     0.025 A 
ATOM     16  C   UNL d   1      48.360  35.109  51.489  0.00  0.00     0.002 A 
ATOM     17  C   UNL d   1      48.063  35.632  52.057  0.00  0.00     0.000 A 
ATOM     18  C   UNL d   1      48.421  35.666  52.809  0.00  0.00     0.002 A 
ATOM     19  C   UNL d   1      47.423  36.113  51.884  0.00  0.00     0.000 C 
ATOM     20  C   UNL d   1      49.064  35.182  52.981  0.00  0.00     0.025 A 
ENDBRANCH  13  14
ENDBRANCH  12  13
ENDBRANCH  11  12
ENDBRANCH  10  11
ENDBRANCH   2  10
BRANCH   3  21
ATOM     21  C   UNL d   1      52.901  35.272  54.204  0.00  0.00     0.271 C 
ATOM     22  O   UNL d   1      53.327  35.677  54.781  0.00  0.00    -0.280 OA
ENDBRANCH   3  21
TORSDOF 6
ENDMDL
MODEL 2
REMARK VINA RESULT:      -8.0      1.253      1.886
REMARK  6 active torsions:
REMARK  status: ('A' for Active; 'I' for Inactive)
REMARK    1  A    between atoms: C_6  and  N_2 
REMARK    2  A    between atoms: C_7  and  C_3 
REMARK    3  A    between atoms: C_14  and  C_6 
REMARK    4  A    between atoms: C_8  and  O_16 
REMARK    5  A    between atoms: C_19  and  C_14 
REMARK    6  A    between atoms: O_16  and  C_19 
ROOT
ATOM      1  N   UNL d   1      53.736  32.068  53.576  0.00  0.00    -0.224 NA
ATOM      2  N   UNL d   1      52.635  32.844  53.621  0.00  0.00    -0.286 N 
ATOM      3  C   UNL d   1      52.948  32.143  53.305  0.00  0.00     0.191 A 
ATOM      4  C   UNL d   1      53.222  33.206  54.088  0.00  0.00     0.083 A 
ATOM      5  C   UNL d   1      53.900  32.731  54.062  0.00  0.00     0.099 A 
ATOM      6  C   UNL d   1      53.235  33.902  54.534  0.00  0.00     0.019 A 
ATOM      7  C   UNL d   1      54.580  32.948  54.474  0.00  0.00     0.021 A 
ATOM      8  C   UNL d   1      53.917  34.119  54.946  0.00  0.00     0.002 A 
ATOM      9  C   UNL d   1      54.588  33.640  54.915  0.00  0.00     0.002 A 
ENDROOT
BRANCH   2  10
ATOM     10  C   UNL d   1      51.856  32.993  53.401  0.00  0.00     0.084 C 
BRANCH  10  11
ATOM     11  C   UNL d   1      51.680  33.670  52.979  0.00  0.00     0.046 C 
BRANCH  11  12
ATOM     12  C   UNL d   1      50.899  33.924  52.941  0.00  0.00     0.124 C 
BRANCH  12  13
ATOM     13  O   UNL d   1      50.590  34.201  52.228  0.00  0.00    -0.305 OA
BRANCH  13  14
ATOM     14  C   UNL d   1      49.851  34.567  52.213  0.00  0.00     0.100 A 
ATOM     15  C   UNL d   1      49.384  34.529  51.532  0.00  0.00     0.025 A 
ATOM     16  C   UNL d   1      48.650  34.893  51.517  0.00  0.00     0.002 A 
ATOM     17  C   UNL d   1      48.372  35.298  52.183  0.00  0.00     0.000 A 
ATOM     18  C   UNL d   1      48.845  35.334  52.867  0.00  0.00     0.002 A 
ATOM     19  C   UNL d   1      47.637  35.663  52.170  0.00  0.00     0.000 C 
ATOM     20  C   UNL d   1      49.582  34.968  52.878  0.00  0.00     0.025 A 
ENDBRANCH  13  14
ENDBRANCH  12  13
ENDBRANCH  11  12
ENDBRANCH  10  11
ENDBRANCH   2  10
BRANCH   3  21
ATOM     21  C   UNL d   1      52.555  31.612  52.810  0.00  0.00     0.271 C 
ATOM     22  O   UNL d   1      52.929  30.919  52.569  0.00  0.00    -0.280 OA
ENDBRANCH   3  21
TORSDOF 6
ENDMDL
MODEL 3
REMARK VINA RESULT:      -7.8      2.058      4.894
REMARK  6 active torsions:
REMARK  status: ('A' for Active; 'I' for Inactive)
REMARK    1  A    between atoms: C_6  and  N_2 
REMARK    2  A    between atoms: C_7  and  C_3 
REMARK    3  A    between atoms: C_14  and  C_6 
REMARK    4  A    between atoms: C_8  and  O_16 
REMARK    5  A    between atoms: C_19  and  C_14 
REMARK    6  A    between atoms: O_16  and  C_19 
ROOT
ATOM      1  N   UNL d   1      51.909  35.011  53.103  0.00  0.00    -0.224 NA
ATOM      2  N   UNL d   1      52.058  33.686  53.301  0.00  0.00    -0.286 N 
ATOM      3  C   UNL d   1      51.655  34.254  52.850  0.00  0.00     0.191 A 
ATOM      4  C   UNL d   1      52.562  34.082  53.833  0.00  0.00     0.083 A 
ATOM      5  C   UNL d   1      52.472  34.896  53.713  0.00  0.00     0.099 A 
ATOM      6  C   UNL d   1      53.090  33.816  54.410  0.00  0.00     0.019 A 
ATOM      7  C   UNL d   1      52.904  35.437  54.162  0.00  0.00     0.021 A 
ATOM      8  C   UNL d   1      53.522  34.357  54.860  0.00  0.00     0.002 A 
ATOM      9  C   UNL d   1      53.427  35.167  54.734  0.00  0.00     0.002 A 
ENDROOT
BRANCH   2  10
ATOM     10  C   UNL d   1      51.863  32.908  53.114  0.00  0.00     0.084 C 
BRANCH  10  11
ATOM     11  C   UNL d   1      52.448  32.395  52.864  0.00  0.00     0.046 C 
BRANCH  11  12
ATOM     12  C   UNL d   1      52.299  31.587  52.875  0.00  0.00     0.124 C 
BRANCH  12  13
ATOM     13  O   UNL d   1      52.904  31.055  52.699  0.00  0.00    -0.305 OA
BRANCH  13  14
ATOM     14  C   UNL d   1      53.049  30.414  53.198  0.00  0.00     0.100 A 
ATOM     15  C   UNL d   1      52.507  29.791  53.238  0.00  0.00     0.025 A 
ATOM     16  C   UNL d   1      52.649  29.154  53.735  0.00  0.00     0.002 A 
ATOM     17  C   UNL d   1      53.335  29.133  54.198  0.00  0.00     0.000 A 
ATOM     18  C   UNL d   1      53.878  29.763  54.155  0.00  0.00     0.002 A 
ATOM     19  C   UNL d   1      53.480  28.497  54.695  0.00  0.00     0.000 C 
ATOM     20  C   UNL d   1      53.731  30.400  53.655  0.00  0.00     0.025 A 
ENDBRANCH  13  14
ENDBRANCH  12  13
ENDBRANCH  11  12
ENDBRANCH  10  11
ENDBRANCH   2  10
BRANCH   3  21
ATOM     21  C   UNL d   1      51.101  34.104  52.257  0.00  0.00     0.271 C 
ATOM     22  O   UNL d   1      50.454  34.605  52.162  0.00  0.00    -0.280 OA
ENDBRANCH   3  21
TORSDOF 6
ENDMDL
MODEL 4
REMARK VINA RESULT:      -6.9      1.664      4.902
REMARK  6 active torsions:
REMARK  status: ('A' for Active; 'I' for Inactive)
REMARK    1  A    between atoms: C_6  and  N_2 
REMARK    2  A    between atoms: C_7  and  C_3 
REMARK    3  A    between atoms: C_14  and  C_6 
REMARK    4  A    between atoms: C_8  and  O_16 
REMARK    5  A    between atoms: C_19  and  C_14 
REMARK    6  A    between atoms: O_16  and  C_19 
ROOT
ATOM      1  N   UNL d   1      51.748  35.094  53.737  0.00  0.00    -0.224 NA
ATOM      2  N   UNL d   1      52.170  33.956  53.149  0.00  0.00    -0.286 N 
ATOM      3  C   UNL d   1      52.401  34.576  53.651  0.00  0.00     0.191 A 
ATOM      4  C   UNL d   1      51.378  34.084  52.920  0.00  0.00     0.083 A 
ATOM      5  C   UNL d   1      51.118  34.783  53.281  0.00  0.00     0.099 A 
ATOM      6  C   UNL d   1      50.859  33.663  52.436  0.00  0.00     0.019 A 
ATOM      7  C   UNL d   1      50.350  35.056  53.159  0.00  0.00     0.021 A 
ATOM      8  C   UNL d   1      50.090  33.937  52.313  0.00  0.00     0.002 A 
ATOM      9  C   UNL d   1      49.837  34.633  52.676  0.00  0.00     0.002 A 
ENDROOT
BRANCH   2  10
ATOM     10  C   UNL d   1      52.759  33.399  53.011  0.00  0.00     0.084 C 
BRANCH  10  11
ATOM     11  C   UNL d   1      52.551  32.634  52.810  0.00  0.00     0.046 C 
BRANCH  11  12
ATOM     12  C   UNL d   1      53.070  32.022  52.985  0.00  0.00     0.124 C 
BRANCH  12  13
ATOM     13  O   UNL d   1      52.923  31.262  52.697  0.00  0.00    -0.305 OA
BRANCH  13  14
ATOM     14  C   UNL d   1      53.051  30.606  53.181  0.00  0.00     0.100 A 
ATOM     15  C   UNL d   1      53.685  30.601  53.710  0.00  0.00     0.025 A 
ATOM     16  C   UNL d   1      53.813  29.949  54.192  0.00  0.00     0.002 A 
ATOM     17  C   UNL d   1      53.308  29.295  54.149  0.00  0.00     0.000 A 
ATOM     18  C   UNL d   1      52.669  29.305  53.614  0.00  0.00     0.002 A 
ATOM     19  C   UNL d   1      53.433  28.642  54.629  0.00  0.00     0.000 C 
ATOM     20  C   UNL d   1      52.545  29.961  53.133  0.00  0.00     0.025 A 
ENDBRANCH  13  14
ENDBRANCH  12  13
ENDBRANCH  11  12
ENDBRANCH  10  11
ENDBRANCH   2  10
BRANCH   3  21
ATOM     21  C   UNL d   1      53.140  34.668  54.005  0.00  0.00     0.271 C 
ATOM     22  O   UNL d   1      53.317  35.360  54.415  0.00  0.00    -0.280 OA
ENDBRANCH   3  21
TORSDOF 6
ENDMDL
MODEL 5
REMARK VINA RESULT:      -6.7      1.791      5.441
REMARK  6 active torsions:
REMARK  status: ('A' for Active; 'I' for Inactive)
REMARK    1  A    between atoms: C_6  and  N_2 
REMARK    2  A    between atoms: C_7  and  C_3 
REMARK    3  A    between atoms: C_14  and  C_6 
REMARK    4  A    between atoms: C_8  and  O_16 
REMARK    5  A    between atoms: C_19  and  C_14 
REMARK    6  A    between atoms: O_16  and  C_19 
ROOT
ATOM      1  N   UNL d   1      47.655  35.473  51.871  0.00  0.00    -0.224 NA
ATOM      2  N   UNL d   1      48.880  35.255  52.390  0.00  0.00    -0.286 N 
ATOM      3  C   UNL d   1      48.394  35.103  51.735  0.00  0.00     0.191 A 
ATOM      4  C   UNL d   1      48.450  35.717  52.934  0.00  0.00     0.083 A 
ATOM      5  C   UNL d   1      47.697  35.852  52.617  0.00  0.00     0.099 A 
ATOM      6  C   UNL d   1      48.639  36.034  53.673  0.00  0.00     0.019 A 
ATOM      7  C   UNL d   1      47.141  36.297  53.032  0.00  0.00     0.021 A 
ATOM      8  C   UNL d   1      48.082  36.479  54.089  0.00  0.00     0.002 A 
ATOM      9  C   UNL d   1      47.333  36.610  53.767  0.00  0.00     0.002 A 
ENDROOT
BRANCH   2  10
ATOM     10  C   UNL d   1      49.631  34.922  52.335  0.00  0.00     0.084 C 
BRANCH  10  11
ATOM     11  C   UNL d   1      49.918  34.473  52.954  0.00  0.00     0.046 C 
BRANCH  11  12
ATOM     12  C   UNL d   1      50.687  34.184  52.912  0.00  0.00     0.124 C 
BRANCH  12  13
ATOM     13  O   UNL d   1      50.949  33.628  53.463  0.00  0.00    -0.305 OA
BRANCH  13  14
ATOM     14  C   UNL d   1      51.738  33.390  53.464  0.00  0.00     0.100 A 
ATOM     15  C   UNL d   1      52.296  33.808  53.909  0.00  0.00     0.025 A 
ATOM     16  C   UNL d   1      53.081  33.571  53.911  0.00  0.00     0.002 A 
ATOM     17  C   UNL d   1      53.318  32.914  53.468  0.00  0.00     0.000 A 
ATOM     18  C   UNL d   1      52.754  32.495  53.021  0.00  0.00     0.002 A 
ATOM     19  C   UNL d   1      54.103  32.675  53.468  0.00  0.00     0.000 C 
ATOM     20  C   UNL d   1      51.967  32.737  53.022  0.00  0.00     0.025 A 
ENDBRANCH  13  14
ENDBRANCH  12  13
ENDBRANCH  11  12
ENDBRANCH  10  11
ENDBRANCH   2  10
BRANCH   3  21
ATOM     21  C   UNL d   1      48.598  34.665  51.066  0.00  0.00     0.271 C 
ATOM     22  O   UNL d   1      48.025  34.222  50.672  0.00  0.00    -0.280 OA
ENDBRANCH   3  21
TORSDOF 6
ENDMDL
MODEL 6
REMARK VINA RESULT:      -5.4     10.264     11.066
REMARK  6 active torsions:
REMARK  status: ('A' for Active; 'I' for Inactive)
REMARK    1  A    between atoms: C_6  and  N_2 
REMARK    2  A    between atoms: C_7  and  C_3 
REMARK    3  A    between atoms: C_14  and  C_6 
REMARK    4  A    between atoms: C_8  and  O_16 
REMARK    5  A    between atoms: C_19  and  C_14 
REMARK    6  A    between atoms: O_16  and  C_19 
ROOT
ATOM      1  N   UNL d   1      44.934  31.102  59.880  0.00  0.00    -0.224 NA
ATOM      2  N   UNL d   1      44.616  29.855  59.479  0.00  0.00    -0.286 N 
ATOM      3  C   UNL d   1      44.842  30.607  59.211  0.00  0.00     0.191 A 
ATOM      4  C   UNL d   1      44.567  29.877  60.311  0.00  0.00     0.083 A 
ATOM      5  C   UNL d   1      44.762  30.643  60.559  0.00  0.00     0.099 A 
ATOM      6  C   UNL d   1      44.372  29.308  60.877  0.00  0.00     0.019 A 
ATOM      7  C   UNL d   1      44.762  30.836  61.360  0.00  0.00     0.021 A 
ATOM      8  C   UNL d   1      44.372  29.502  61.679  0.00  0.00     0.002 A 
ATOM      9  C   UNL d   1      44.567  30.267  61.918  0.00  0.00     0.002 A 
ENDROOT
BRANCH   2  10
ATOM     10  C   UNL d   1      44.504  29.304  58.878  0.00  0.00     0.084 C 
BRANCH  10  11
ATOM     11  C   UNL d   1      44.969  28.632  58.856  0.00  0.00     0.046 C 
BRANCH  11  12
ATOM     12  C   UNL d   1      44.771  28.029  58.333  0.00  0.00     0.124 C 
BRANCH  12  13
ATOM     13  O   UNL d   1      45.323  27.442  58.155  0.00  0.00    -0.305 OA
BRANCH  13  14
ATOM     14  C   UNL d   1      45.110  26.811  57.668  0.00  0.00     0.100 A 
ATOM     15  C   UNL d   1      44.779  26.129  57.997  0.00  0.00     0.025 A 
ATOM     16  C   UNL d   1      44.568  25.501  57.514  0.00  0.00     0.002 A 
ATOM     17  C   UNL d   1      44.684  25.547  56.696  0.00  0.00     0.000 A 
ATOM     18  C   UNL d   1      45.019  26.236  56.369  0.00  0.00     0.002 A 
ATOM     19  C   UNL d   1      44.474  24.921  56.211  0.00  0.00     0.000 C 
ATOM     20  C   UNL d   1      45.229  26.864  56.858  0.00  0.00     0.025 A 
ENDBRANCH  13  14
ENDBRANCH  12  13
ENDBRANCH  11  12
ENDBRANCH  10  11
ENDBRANCH   2  10
BRANCH   3  21
ATOM     21  C   UNL d   1      44.956  30.832  58.425  0.00  0.00     0.271 C 
ATOM     22  O   UNL d   1      45.144  31.613  58.243  0.00  0.00    -0.280 OA
ENDBRANCH   3  21
TORSDOF 6
ENDMDL
MODEL 7
REMARK VINA RESULT:      -5.2     10.618     11.481
REMARK  6 active torsions:
REMARK  status: ('A' for Active; 'I' for Inactive)
REMARK    1  A    between atoms: C_6  and  N_2 
REMARK    2  A    between atoms: C_7  and  C_3 
REMARK    3  A    between atoms: C_14  and  C_6 
REMARK    4  A    between atoms: C_8  and  O_16 
REMARK    5  A    between atoms: C_19  and  C_14 
REMARK    6  A    between atoms: O_16  and  C_19 
ROOT
ATOM      1  N   UNL d   1      44.987  28.393  58.667  0.00  0.00    -0.224 NA
ATOM      2  N   UNL d   1      44.686  27.551  57.658  0.00  0.00    -0.286 N 
ATOM      3  C   UNL d   1      44.848  27.590  58.471  0.00  0.00     0.191 A 
ATOM      4  C   UNL d   1      44.723  28.323  57.345  0.00  0.00     0.083 A 
ATOM      5  C   UNL d   1      44.908  28.841  57.963  0.00  0.00     0.099 A 
ATOM      6  C   UNL d   1      44.614  28.625  56.584  0.00  0.00     0.019 A 
ATOM      7  C   UNL d   1      44.983  29.650  57.823  0.00  0.00     0.021 A 
ATOM      8  C   UNL d   1      44.690  29.435  56.444  0.00  0.00     0.002 A 
ATOM      9  C   UNL d   1      44.874  29.946  57.065  0.00  0.00     0.002 A 
ENDROOT
BRANCH   2  10
ATOM     10  C   UNL d   1      44.536  26.790  57.382  0.00  0.00     0.084 C 
BRANCH  10  11
ATOM     11  C   UNL d   1      44.915  26.524  56.709  0.00  0.00     0.046 C 
BRANCH  11  12
ATOM     12  C   UNL d   1      44.705  25.793  56.397  0.00  0.00     0.124 C 
BRANCH  12  13
ATOM     13  O   UNL d   1      45.207  25.413  55.864  0.00  0.00    -0.305 OA
BRANCH  13  14
ATOM     14  C   UNL d   1      44.986  24.691  55.532  0.00  0.00     0.100 A 
ATOM     15  C   UNL d   1      45.218  23.983  55.892  0.00  0.00     0.025 A 
ATOM     16  C   UNL d   1      44.999  23.265  55.563  0.00  0.00     0.002 A 
ATOM     17  C   UNL d   1      44.545  23.245  54.871  0.00  0.00     0.000 A 
ATOM     18  C   UNL d   1      44.314  23.960  54.512  0.00  0.00     0.002 A 
ATOM     19  C   UNL d   1      44.325  22.528  54.540  0.00  0.00     0.000 C 
ATOM     20  C   UNL d   1      44.537  24.679  54.846  0.00  0.00     0.025 A 
ENDBRANCH  13  14
ENDBRANCH  12  13
ENDBRANCH  11  12
ENDBRANCH  10  11
ENDBRANCH   2  10
BRANCH   3  21
ATOM     21  C   UNL d   1      44.869  26.955  58.997  0.00  0.00     0.271 C 
ATOM     22  O   UNL d   1      44.893  27.092  59.809  0.00  0.00    -0.280 OA
ENDBRANCH   3  21
TORSDOF 6
ENDMDL
