MODEL 1
REMARK VINA RESULT:      50.7      0.000      0.000
REMARK  10 active torsions:
REMARK  status: ('A' for Active; 'I' for Inactive)
REMARK    1  A    between atoms: C_8  and  S_1 
REMARK    2  A    between atoms: N_18  and  S_1 
REMARK    3  A    between atoms: S_2  and  C_9 
REMARK    4  A    between atoms: N_19  and  S_2 
REMARK    5  A    between atoms: C_23  and  N_18 
REMARK    6  A    between atoms: C_24  and  N_19 
REMARK    7  A    between atoms: C_27  and  C_23 
REMARK    8  A    between atoms: C_28  and  C_24 
REMARK    9  A    between atoms: O_25  and  C_27 
REMARK   10  A    between atoms: O_26  and  C_28 
ROOT
ATOM      1  C   UNL d   1     -54.892-100.914 -41.733  0.00  0.00     0.040 A 
ATOM      2  C   UNL d   1     -54.847-101.210 -40.418  0.00  0.00     0.040 A 
ATOM      3  C   UNL d   1     -54.814-100.578 -40.968  0.00  0.00     0.196 A 
ATOM      4  C   UNL d   1     -54.944-101.896 -40.872  0.00  0.00     0.003 A 
ATOM      5  C   UNL d   1     -54.971-101.704 -41.678  0.00  0.00     0.003 A 
ATOM      6  C   UNL d   1     -54.983-101.006 -43.158  0.00  0.00     0.105 A 
ATOM      7  C   UNL d   1     -54.857-101.966 -39.219  0.00  0.00     0.105 A 
ATOM      8  C   UNL d   1     -54.897-100.547 -42.478  0.00  0.00     0.016 A 
ATOM      9  C   UNL d   1     -54.803-101.233 -39.599  0.00  0.00     0.016 A 
ATOM     10  C   UNL d   1     -54.997-102.631 -40.467  0.00  0.00     0.001 A 
ATOM     11  C   UNL d   1     -55.057-102.160 -42.356  0.00  0.00     0.001 A 
ATOM     12  O   UNL d   1     -54.720 -99.777 -40.781  0.00  0.00    -0.287 OA
ATOM     13  C   UNL d   1     -54.953-102.661 -39.644  0.00  0.00     0.013 A 
ATOM     14  C   UNL d   1     -55.061-101.800 -43.088  0.00  0.00     0.013 A 
ENDROOT
BRANCH   6  15
ATOM     15  S   UNL d   1     -54.988-100.630 -43.915  0.00  0.00     0.285 S 
ATOM     16  O   UNL d   1     -54.939 -99.872 -43.540  0.00  0.00    -0.198 OA
ATOM     17  O   UNL d   1     -55.035-101.375 -44.252  0.00  0.00    -0.198 OA
BRANCH  15  18
ATOM     18  N   UNL d   1     -54.992-100.270 -44.647  0.00  0.00    -0.155 NA
BRANCH  18  19
ATOM     19  C   UNL d   1     -55.650 -99.828 -44.913  0.00  0.00     0.138 C 
BRANCH  19  20
ATOM     20  C   UNL d   1     -56.421-100.100 -44.806  0.00  0.00     0.138 C 
BRANCH  20  21
ATOM     21  O   UNL d   1     -57.031 -99.581 -44.718  0.00  0.00    -0.325 OA
ATOM     22  C   UNL d   1     -57.021 -98.855 -45.089  0.00  0.00     0.182 C 
ENDBRANCH  20  21
ENDBRANCH  19  20
ENDBRANCH  18  19
ENDBRANCH  15  18
ENDBRANCH   6  15
BRANCH   7  23
ATOM     23  S   UNL d   1     -54.814-102.020 -38.377  0.00  0.00     0.285 S 
ATOM     24  O   UNL d   1     -54.712-102.856 -38.441  0.00  0.00    -0.198 OA
ATOM     25  O   UNL d   1     -54.917-101.186 -38.338  0.00  0.00    -0.198 OA
BRANCH  23  26
ATOM     26  N   UNL d   1     -54.774-102.063 -37.567  0.00  0.00    -0.155 NA
BRANCH  26  27
ATOM     27  C   UNL d   1     -54.890-101.390 -37.105  0.00  0.00     0.138 C 
BRANCH  27  28
ATOM     28  C   UNL d   1     -54.717-101.400 -36.320  0.00  0.00     0.138 C 
BRANCH  28  29
ATOM     29  O   UNL d   1     -55.341-101.382 -35.758  0.00  0.00    -0.325 OA
ATOM     30  C   UNL d   1     -55.553-102.036 -35.335  0.00  0.00     0.182 C 
ENDBRANCH  28  29
ENDBRANCH  27  28
ENDBRANCH  26  27
ENDBRANCH  23  26
ENDBRANCH   7  23
TORSDOF 10
ENDMDL
