MODEL 1
REMARK VINA RESULT:      -5.7      0.000      0.000
REMARK  1 active torsions:
REMARK  status: ('A' for Active; 'I' for Inactive)
REMARK    1  A    between atoms: C_7  and  C_4 
ROOT
ATOM      1  N   UNL d   1      57.757   0.114  30.419  0.00  0.00    -0.211 NA
ATOM      2  C   UNL d   1      58.248   0.022  29.762  0.00  0.00     0.140 A 
ATOM      3  C   UNL d   1      58.486  -0.733  29.531  0.00  0.00     0.051 A 
ATOM      4  C   UNL d   1      57.503  -0.552  30.846  0.00  0.00     0.183 A 
ATOM      5  C   UNL d   1      58.232  -1.400  29.957  0.00  0.00     0.104 A 
ATOM      6  O   UNL d   1      57.741  -1.307  30.614  0.00  0.00    -0.289 OA
ATOM      7  S   UNL d   1      58.503   0.682  29.336  0.00  0.00    -0.057 SA
ATOM      8  C   UNL d   1      58.975  -0.829  28.876  0.00  0.00     0.004 A 
ATOM      9  C   UNL d   1      58.469  -2.140  29.724  0.00  0.00     0.025 A 
ATOM     10  C   UNL d   1      59.208  -1.573  28.650  0.00  0.00     0.000 A 
ATOM     11  C   UNL d   1      58.960  -2.232  29.067  0.00  0.00     0.002 A 
ENDROOT
BRANCH   4  12
ATOM     12  C   UNL d   1      57.012  -0.460  31.503  0.00  0.00     0.041 A 
ATOM     13  C   UNL d   1      56.642  -1.121  31.833  0.00  0.00     0.004 A 
ATOM     14  C   UNL d   1      56.152  -1.035  32.486  0.00  0.00     0.007 A 
ATOM     15  C   UNL d   1      56.027  -0.280  32.820  0.00  0.00     0.035 A 
ATOM     16  C   UNL d   1      56.398   0.377  32.488  0.00  0.00     0.007 A 
ATOM     17 BR   UNL d   1      55.533  -0.189  33.479  0.00  0.00    -0.049 Br
ATOM     18  C   UNL d   1      56.893   0.291  31.828  0.00  0.00     0.004 A 
ENDBRANCH   4  12
TORSDOF 1
ENDMDL
MODEL 2
REMARK VINA RESULT:      -5.5      1.372      1.539
REMARK  1 active torsions:
REMARK  status: ('A' for Active; 'I' for Inactive)
REMARK    1  A    between atoms: C_7  and  C_4 
ROOT
ATOM      1  N   UNL d   1      57.601   0.363  29.952  0.00  0.00    -0.211 NA
ATOM      2  C   UNL d   1      58.144   0.516  29.350  0.00  0.00     0.140 A 
ATOM      3  C   UNL d   1      58.952   0.523  29.518  0.00  0.00     0.051 A 
ATOM      4  C   UNL d   1      57.867   0.217  30.726  0.00  0.00     0.183 A 
ATOM      5  C   UNL d   1      59.218   0.377  30.292  0.00  0.00     0.104 A 
ATOM      6  O   UNL d   1      58.674   0.224  30.893  0.00  0.00    -0.289 OA
ATOM      7  S   UNL d   1      57.884   0.662  28.580  0.00  0.00    -0.057 SA
ATOM      8  C   UNL d   1      59.497   0.675  28.921  0.00  0.00     0.004 A 
ATOM      9  C   UNL d   1      60.014   0.385  30.451  0.00  0.00     0.025 A 
ATOM     10  C   UNL d   1      60.291   0.682  29.089  0.00  0.00     0.000 A 
ATOM     11  C   UNL d   1      60.557   0.538  29.849  0.00  0.00     0.002 A 
ENDROOT
BRANCH   4  12
ATOM     12  C   UNL d   1      57.323   0.064  31.327  0.00  0.00     0.041 A 
ATOM     13  C   UNL d   1      57.037  -0.704  31.435  0.00  0.00     0.004 A 
ATOM     14  C   UNL d   1      56.496  -0.863  32.031  0.00  0.00     0.007 A 
ATOM     15  C   UNL d   1      56.233  -0.249  32.532  0.00  0.00     0.035 A 
ATOM     16  C   UNL d   1      56.520   0.516  32.422  0.00  0.00     0.007 A 
ATOM     17 BR   UNL d   1      55.687  -0.404  33.136  0.00  0.00    -0.049 Br
ATOM     18  C   UNL d   1      57.067   0.677  31.819  0.00  0.00     0.004 A 
ENDBRANCH   4  12
TORSDOF 1
ENDMDL
MODEL 3
REMARK VINA RESULT:      -5.2      2.213      4.353
REMARK  1 active torsions:
REMARK  status: ('A' for Active; 'I' for Inactive)
REMARK    1  A    between atoms: C_7  and  C_4 
ROOT
ATOM      1  N   UNL d   1      57.456   0.371  32.933  0.00  0.00    -0.211 NA
ATOM      2  C   UNL d   1      57.087   0.526  33.655  0.00  0.00     0.140 A 
ATOM      3  C   UNL d   1      56.263   0.524  33.703  0.00  0.00     0.051 A 
ATOM      4  C   UNL d   1      56.999   0.214  32.257  0.00  0.00     0.183 A 
ATOM      5  C   UNL d   1      55.806   0.368  33.027  0.00  0.00     0.104 A 
ATOM      6  O   UNL d   1      56.175   0.213  32.306  0.00  0.00    -0.289 OA
ATOM      7  S   UNL d   1      57.538   0.682  34.329  0.00  0.00    -0.057 SA
ATOM      8  C   UNL d   1      55.892   0.679  34.421  0.00  0.00     0.004 A 
ATOM      9  C   UNL d   1      54.996   0.368  33.082  0.00  0.00     0.025 A 
ATOM     10  C   UNL d   1      55.081   0.677  34.467  0.00  0.00     0.000 A 
ATOM     11  C   UNL d   1      54.627   0.523  33.804  0.00  0.00     0.002 A 
ENDROOT
BRANCH   4  12
ATOM     12  C   UNL d   1      57.368   0.059  31.536  0.00  0.00     0.041 A 
ATOM     13  C   UNL d   1      57.720   0.677  31.115  0.00  0.00     0.004 A 
ATOM     14  C   UNL d   1      58.089   0.530  30.397  0.00  0.00     0.007 A 
ATOM     15  C   UNL d   1      58.110  -0.246  30.088  0.00  0.00     0.035 A 
ATOM     16  C   UNL d   1      57.758  -0.860  30.510  0.00  0.00     0.007 A 
ATOM     17 BR   UNL d   1      58.482  -0.399  29.364  0.00  0.00    -0.049 Br
ATOM     18  C   UNL d   1      57.385  -0.712  31.236  0.00  0.00     0.004 A 
ENDBRANCH   4  12
TORSDOF 1
ENDMDL
MODEL 4
REMARK VINA RESULT:      -4.2      2.099      3.863
REMARK  1 active torsions:
REMARK  status: ('A' for Active; 'I' for Inactive)
REMARK    1  A    between atoms: C_7  and  C_4 
ROOT
ATOM      1  N   UNL d   1      58.846  -0.737  29.127  0.00  0.00    -0.211 NA
ATOM      2  C   UNL d   1      58.521  -0.027  29.394  0.00  0.00     0.140 A 
ATOM      3  C   UNL d   1      58.032  -0.024  30.059  0.00  0.00     0.051 A 
ATOM      4  C   UNL d   1      58.682  -1.447  29.527  0.00  0.00     0.183 A 
ATOM      5  C   UNL d   1      57.867  -0.734  30.458  0.00  0.00     0.104 A 
ATOM      6  O   UNL d   1      58.193  -1.444  30.191  0.00  0.00    -0.289 OA
ATOM      7  S   UNL d   1      58.682   0.680  28.999  0.00  0.00    -0.057 SA
ATOM      8  C   UNL d   1      57.705   0.681  30.328  0.00  0.00     0.004 A 
ATOM      9  C   UNL d   1      57.385  -0.724  31.112  0.00  0.00     0.025 A 
ATOM     10  C   UNL d   1      57.225   0.682  30.982  0.00  0.00     0.000 A 
ATOM     11  C   UNL d   1      57.060  -0.014  31.378  0.00  0.00     0.002 A 
ENDROOT
BRANCH   4  12
ATOM     12  C   UNL d   1      59.007  -2.156  29.260  0.00  0.00     0.041 A 
ATOM     13  C   UNL d   1      59.792  -2.341  29.443  0.00  0.00     0.004 A 
ATOM     14  C   UNL d   1      60.122  -3.045  29.180  0.00  0.00     0.007 A 
ATOM     15  C   UNL d   1      59.666  -3.578  28.726  0.00  0.00     0.035 A 
ATOM     16  C   UNL d   1      58.884  -3.391  28.545  0.00  0.00     0.007 A 
ATOM     17 BR   UNL d   1      59.995  -4.290  28.459  0.00  0.00    -0.049 Br
ATOM     18  C   UNL d   1      58.550  -2.679  28.811  0.00  0.00     0.004 A 
ENDBRANCH   4  12
TORSDOF 1
ENDMDL
MODEL 5
REMARK VINA RESULT:      -4.2      2.048      4.000
REMARK  1 active torsions:
REMARK  status: ('A' for Active; 'I' for Inactive)
REMARK    1  A    between atoms: C_7  and  C_4 
ROOT
ATOM      1  N   UNL d   1      56.748  -1.007  31.585  0.00  0.00    -0.211 NA
ATOM      2  C   UNL d   1      56.354  -1.028  32.310  0.00  0.00     0.140 A 
ATOM      3  C   UNL d   1      56.526  -0.464  32.887  0.00  0.00     0.051 A 
ATOM      4  C   UNL d   1      57.317  -0.419  31.437  0.00  0.00     0.183 A 
ATOM      5  C   UNL d   1      57.094   0.124  32.738  0.00  0.00     0.104 A 
ATOM      6  O   UNL d   1      57.488   0.144  32.014  0.00  0.00    -0.289 OA
ATOM      7  S   UNL d   1      55.788  -1.611  32.461  0.00  0.00    -0.057 SA
ATOM      8  C   UNL d   1      56.135  -0.481  33.610  0.00  0.00     0.004 A 
ATOM      9  C   UNL d   1      57.259   0.676  33.311  0.00  0.00     0.025 A 
ATOM     10  C   UNL d   1      56.306   0.074  34.177  0.00  0.00     0.000 A 
ATOM     11  C   UNL d   1      56.865   0.655  34.035  0.00  0.00     0.002 A 
ENDROOT
BRANCH   4  12
ATOM     12  C   UNL d   1      57.710  -0.399  30.712  0.00  0.00     0.041 A 
ATOM     13  C   UNL d   1      58.089  -1.078  30.433  0.00  0.00     0.004 A 
ATOM     14  C   UNL d   1      58.483  -1.065  29.713  0.00  0.00     0.007 A 
ATOM     15  C   UNL d   1      58.502  -0.364  29.259  0.00  0.00     0.035 A 
ATOM     16  C   UNL d   1      58.122   0.312  29.540  0.00  0.00     0.007 A 
ATOM     17 BR   UNL d   1      58.898  -0.345  28.531  0.00  0.00    -0.049 Br
ATOM     18  C   UNL d   1      57.725   0.299  30.268  0.00  0.00     0.004 A 
ENDBRANCH   4  12
TORSDOF 1
ENDMDL
MODEL 6
REMARK VINA RESULT:      -3.3      9.231      9.954
REMARK  1 active torsions:
REMARK  status: ('A' for Active; 'I' for Inactive)
REMARK    1  A    between atoms: C_7  and  C_4 
ROOT
ATOM      1  N   UNL d   1      59.986  -9.117  33.468  0.00  0.00    -0.211 NA
ATOM      2  C   UNL d   1      60.374  -9.026  34.191  0.00  0.00     0.140 A 
ATOM      3  C   UNL d   1      60.002  -9.261  34.889  0.00  0.00     0.051 A 
ATOM      4  C   UNL d   1      59.223  -9.445  33.443  0.00  0.00     0.183 A 
ATOM      5  C   UNL d   1      59.238  -9.589  34.864  0.00  0.00     0.104 A 
ATOM      6  O   UNL d   1      58.851  -9.680  34.141  0.00  0.00    -0.289 OA
ATOM      7  S   UNL d   1      61.133  -8.700  34.219  0.00  0.00    -0.057 SA
ATOM      8  C   UNL d   1      60.385  -9.171  35.611  0.00  0.00     0.004 A 
ATOM      9  C   UNL d   1      58.878  -9.818  35.554  0.00  0.00     0.025 A 
ATOM     10  C   UNL d   1      60.017  -9.403  36.296  0.00  0.00     0.000 A 
ATOM     11  C   UNL d   1      59.266  -9.726  36.277  0.00  0.00     0.002 A 
ENDROOT
BRANCH   4  12
ATOM     12  C   UNL d   1      58.835  -9.536  32.721  0.00  0.00     0.041 A 
ATOM     13  C   UNL d   1      58.016  -9.434  32.680  0.00  0.00     0.004 A 
ATOM     14  C   UNL d   1      57.624  -9.524  31.964  0.00  0.00     0.007 A 
ATOM     15  C   UNL d   1      58.053  -9.717  31.274  0.00  0.00     0.035 A 
ATOM     16  C   UNL d   1      58.870  -9.818  31.318  0.00  0.00     0.007 A 
ATOM     17 BR   UNL d   1      57.662  -9.808  30.549  0.00  0.00    -0.049 Br
ATOM     18  C   UNL d   1      59.266  -9.728  32.041  0.00  0.00     0.004 A 
ENDBRANCH   4  12
TORSDOF 1
ENDMDL
MODEL 7
REMARK VINA RESULT:      -3.1      1.996      2.380
REMARK  1 active torsions:
REMARK  status: ('A' for Active; 'I' for Inactive)
REMARK    1  A    between atoms: C_7  and  C_4 
ROOT
ATOM      1  N   UNL d   1      58.050   0.671  32.736  0.00  0.00    -0.211 NA
ATOM      2  C   UNL d   1      58.661   0.672  32.181  0.00  0.00     0.140 A 
ATOM      3  C   UNL d   1      58.482   0.669  31.375  0.00  0.00     0.051 A 
ATOM      4  C   UNL d   1      57.258   0.666  32.484  0.00  0.00     0.183 A 
ATOM      5  C   UNL d   1      57.690   0.664  31.123  0.00  0.00     0.104 A 
ATOM      6  O   UNL d   1      57.081   0.663  31.679  0.00  0.00    -0.289 OA
ATOM      7  S   UNL d   1      59.449   0.677  32.428  0.00  0.00    -0.057 SA
ATOM      8  C   UNL d   1      59.089   0.670  30.819  0.00  0.00     0.004 A 
ATOM      9  C   UNL d   1      57.522   0.661  30.329  0.00  0.00     0.025 A 
ATOM     10  C   UNL d   1      58.911   0.667  30.027  0.00  0.00     0.000 A 
ATOM     11  C   UNL d   1      58.133   0.662  29.774  0.00  0.00     0.002 A 
ENDROOT
BRANCH   4  12
ATOM     12  C   UNL d   1      56.648   0.665  33.040  0.00  0.00     0.041 A 
ATOM     13  C   UNL d   1      55.862   0.663  32.784  0.00  0.00     0.004 A 
ATOM     14  C   UNL d   1      55.250   0.662  33.331  0.00  0.00     0.007 A 
ATOM     15  C   UNL d   1      55.420   0.662  34.149  0.00  0.00     0.035 A 
ATOM     16  C   UNL d   1      56.205   0.663  34.401  0.00  0.00     0.007 A 
ATOM     17 BR   UNL d   1      54.806   0.660  34.705  0.00  0.00    -0.049 Br
ATOM     18  C   UNL d   1      56.824   0.665  33.848  0.00  0.00     0.004 A 
ENDBRANCH   4  12
TORSDOF 1
ENDMDL
MODEL 8
REMARK VINA RESULT:      -3.0      1.375      1.980
REMARK  1 active torsions:
REMARK  status: ('A' for Active; 'I' for Inactive)
REMARK    1  A    between atoms: C_7  and  C_4 
ROOT
ATOM      1  N   UNL d   1      59.376  -0.928  29.476  0.00  0.00    -0.211 NA
ATOM      2  C   UNL d   1      59.881  -1.411  29.037  0.00  0.00     0.140 A 
ATOM      3  C   UNL d   1      59.716  -2.216  28.963  0.00  0.00     0.051 A 
ATOM      4  C   UNL d   1      58.704  -1.251  29.842  0.00  0.00     0.183 A 
ATOM      5  C   UNL d   1      59.044  -2.540  29.330  0.00  0.00     0.104 A 
ATOM      6  O   UNL d   1      58.540  -2.056  29.768  0.00  0.00    -0.289 OA
ATOM      7  S   UNL d   1      60.550  -1.093  28.671  0.00  0.00    -0.057 SA
ATOM      8  C   UNL d   1      60.217  -2.701  28.526  0.00  0.00     0.004 A 
ATOM      9  C   UNL d   1      58.888  -3.333  29.253  0.00  0.00     0.025 A 
ATOM     10  C   UNL d   1      60.054  -3.493  28.455  0.00  0.00     0.000 A 
ATOM     11  C   UNL d   1      59.393  -3.816  28.814  0.00  0.00     0.002 A 
ENDROOT
BRANCH   4  12
ATOM     12  C   UNL d   1      58.199  -0.768  30.281  0.00  0.00     0.041 A 
ATOM     13  C   UNL d   1      57.733  -1.098  30.879  0.00  0.00     0.004 A 
ATOM     14  C   UNL d   1      57.229  -0.622  31.319  0.00  0.00     0.007 A 
ATOM     15  C   UNL d   1      57.185   0.197  31.164  0.00  0.00     0.035 A 
ATOM     16  C   UNL d   1      57.652   0.524  30.567  0.00  0.00     0.007 A 
ATOM     17 BR   UNL d   1      56.678   0.681  31.606  0.00  0.00    -0.049 Br
ATOM     18  C   UNL d   1      58.161   0.043  30.122  0.00  0.00     0.004 A 
ENDBRANCH   4  12
TORSDOF 1
ENDMDL
