MODEL 1
REMARK VINA RESULT:       2.1      0.000      0.000
REMARK  8 active torsions:
REMARK  status: ('A' for Active; 'I' for Inactive)
REMARK    1  A    between atoms: C_6  and  C_1 
REMARK    2  A    between atoms: C_8  and  C_2 
REMARK    3  A    between atoms: S_10  and  C_3 
REMARK    4  A    between atoms: C_15  and  C_4 
REMARK       I    between atoms: N_9  and  C_6 
REMARK    5  A    between atoms: C_19  and  N_9 
REMARK    6  A    between atoms: C_18  and  S_10 
REMARK    7  A    between atoms: C_12  and  C_18 
REMARK       I    between atoms: N_14  and  C_12 
REMARK    8  A    between atoms: C_21  and  N_14 
ROOT
ATOM      1  C   UNL d   1      32.805  19.674 -22.784  0.00  0.00     0.076 A 
ATOM      2  C   UNL d   1      32.732  18.807 -23.907  0.00  0.00     0.045 A 
ATOM      3  C   UNL d   1      32.835  18.147 -23.405  0.00  0.00     0.112 A 
ATOM      4  C   UNL d   1      32.718  19.564 -23.591  0.00  0.00     0.010 A 
ATOM      5  C   UNL d   1      32.908  19.014 -22.281  0.00  0.00     0.087 A 
ATOM      6  N   UNL d   1      32.923  18.255 -22.594  0.00  0.00    -0.239 NA
ATOM      7  C   UNL d   1      33.000  19.124 -21.438  0.00  0.00     0.021 C 
ENDROOT
BRANCH   3   8
ATOM      8  S   UNL d   1      32.850  17.356 -23.728  0.00  0.00    -0.062 SA
BRANCH   8   9
ATOM      9  C   UNL d   1      32.227  16.808 -23.546  0.00  0.00     0.099 C 
BRANCH   9  10
ATOM     10  C   UNL d   1      32.389  15.992 -23.468  0.00  0.00     0.286 C 
ATOM     11  N   UNL d   1      31.773  15.453 -23.425  0.00  0.00    -0.208 NA
ATOM     12  O   UNL d   1      33.180  15.724 -23.434  0.00  0.00    -0.265 OA
BRANCH  11  13
ATOM     13  C   UNL d   1      30.999  15.714 -23.459  0.00  0.00     0.085 A 
ATOM     14  C   UNL d   1      30.545  15.674 -22.793  0.00  0.00     0.019 A 
ATOM     15  C   UNL d   1      29.767  15.937 -22.823  0.00  0.00     0.002 A 
ATOM     16  C   UNL d   1      29.452  16.238 -23.525  0.00  0.00     0.000 A 
ATOM     17  C   UNL d   1      29.924  16.271 -24.186  0.00  0.00     0.002 A 
ATOM     18  C   UNL d   1      30.697  16.009 -24.152  0.00  0.00     0.019 A 
ENDBRANCH  11  13
ENDBRANCH   9  10
ENDBRANCH   8   9
ENDBRANCH   3   8
BRANCH   2  19
ATOM     19  C   UNL d   1      32.640  18.698 -24.750  0.00  0.00     0.124 C 
ATOM     20  N   UNL d   1      32.687  17.920 -25.087  0.00  0.00    -0.146 N 
ENDBRANCH   2  19
BRANCH   4  21
ATOM     21  C   UNL d   1      32.615  20.223 -24.093  0.00  0.00     0.003 A 
ATOM     22  C   UNL d   1      31.893  20.353 -24.464  0.00  0.00     0.021 A 
ATOM     23  C   UNL d   1      31.790  21.012 -24.966  0.00  0.00     0.099 A 
ATOM     24  N   UNL d   1      32.409  21.539 -25.095  0.00  0.00    -0.242 NA
ATOM     25  C   UNL d   1      33.133  21.407 -24.722  0.00  0.00     0.099 A 
ATOM     26  C   UNL d   1      33.236  20.748 -24.220  0.00  0.00     0.021 A 
ENDBRANCH   4  21
BRANCH   1  27
ATOM     27  C   UNL d   1      32.790  20.466 -22.460  0.00  0.00     0.281 C 
ATOM     28  N   UNL d   1      32.357  20.627 -21.748  0.00  0.00    -0.208 NA
ATOM     29  O   UNL d   1      33.212  21.087 -22.857  0.00  0.00    -0.265 OA
BRANCH  28  30
ATOM     30  C   UNL d   1      32.336  21.364 -21.437  0.00  0.00     0.085 A 
ATOM     31  C   UNL d   1      32.571  21.501 -20.680  0.00  0.00     0.019 A 
ATOM     32  C   UNL d   1      32.556  22.262 -20.340  0.00  0.00     0.002 A 
ATOM     33  C   UNL d   1      32.294  22.889 -20.793  0.00  0.00     0.000 A 
ATOM     34  C   UNL d   1      32.054  22.753 -21.569  0.00  0.00     0.002 A 
ATOM     35  C   UNL d   1      32.069  21.999 -21.903  0.00  0.00     0.019 A 
ENDBRANCH  28  30
ENDBRANCH   1  27
TORSDOF 8
ENDMDL
