MODEL 1
REMARK VINA RESULT:      36.3      0.000      0.000
REMARK  1 active torsions:
REMARK  status: ('A' for Active; 'I' for Inactive)
REMARK    1  A    between atoms: C_7  and  N_1 
ROOT
ATOM      1  N   UNL d   1     -51.384  25.125  33.426  0.00  0.00    -0.259 N 
ATOM      2  C   UNL d   1     -51.470  25.958  33.456  0.00  0.00     0.267 A 
ATOM      3  C   UNL d   1     -50.635  24.780  33.357  0.00  0.00     0.150 A 
ATOM      4  N   UNL d   1     -49.959  25.266  33.316  0.00  0.00    -0.228 NA
ATOM      5  C   UNL d   1     -50.793  26.433  33.415  0.00  0.00     0.074 A 
ATOM      6  C   UNL d   1     -50.036  26.084  33.345  0.00  0.00     0.088 A 
ATOM      7  O   UNL d   1     -52.218  26.294  33.526  0.00  0.00    -0.267 OA
ATOM      8  C   UNL d   1     -50.553  23.960  33.327  0.00  0.00     0.041 C 
ATOM      9  C   UNL d   1     -50.876  27.251  33.445  0.00  0.00     0.006 A 
ATOM     10  C   UNL d   1     -49.372  26.575  33.305  0.00  0.00     0.019 A 
ATOM     11  C   UNL d   1     -50.203  27.728  33.404  0.00  0.00     0.000 A 
ATOM     12  C   UNL d   1     -49.454  27.391  33.335  0.00  0.00     0.002 A 
ENDROOT
BRANCH   1  13
ATOM     13  C   UNL d   1     -52.049  24.644  33.466  0.00  0.00     0.068 A 
ATOM     14  C   UNL d   1     -52.800  24.959  33.306  0.00  0.00     0.020 A 
ATOM     15  C   UNL d   1     -53.464  24.470  33.348  0.00  0.00     0.031 A 
ATOM     16  C   UNL d   1     -53.388  23.675  33.547  0.00  0.00     0.140 A 
ATOM     17  C   UNL d   1     -52.638  23.368  33.705  0.00  0.00     0.031 A 
ATOM     18  F   UNL d   1     -54.053  23.194  33.587  0.00  0.00    -0.204 F 
ATOM     19  C   UNL d   1     -51.973  23.852  33.665  0.00  0.00     0.020 A 
ENDBRANCH   1  13
TORSDOF 1
ENDMDL
