MODEL 1
REMARK VINA RESULT:      24.3      0.000      0.000
REMARK  3 active torsions:
REMARK  status: ('A' for Active; 'I' for Inactive)
REMARK    1  A    between atoms: C_7  and  C_3 
REMARK    2  A    between atoms: C_10  and  C_5 
REMARK    3  A    between atoms: C_9  and  C_7 
ROOT
ATOM      1  C   UNL d   1      13.227  12.668  -3.440  0.00  0.00     0.101 A 
ATOM      2  O   UNL d   1      13.934  12.715  -3.012  0.00  0.00    -0.307 OA
ATOM      3  C   UNL d   1      13.911  12.164  -2.396  0.00  0.00     0.101 A 
ATOM      4  C   UNL d   1      12.772  12.081  -3.077  0.00  0.00     0.027 A 
ATOM      5  C   UNL d   1      13.189  11.779  -2.447  0.00  0.00     0.027 A 
ENDROOT
BRANCH   3   6
ATOM      6  C   UNL d   1      14.501  12.014  -1.822  0.00  0.00     0.036 C 
BRANCH   6   7
ATOM      7  C   UNL d   1      14.663  12.588  -1.251  0.00  0.00     0.091 A 
ATOM      8  C   UNL d   1      14.438  12.469  -0.453  0.00  0.00     0.286 A 
ATOM      9  N   UNL d   1      14.668  13.124  -0.014  0.00  0.00    -0.190 NA
ATOM     10  O   UNL d   1      14.044  11.794  -0.156  0.00  0.00    -0.265 OA
ATOM     11  C   UNL d   1      15.023  13.637  -0.504  0.00  0.00     0.169 A 
ATOM     12  S   UNL d   1      15.033  13.330  -1.274  0.00  0.00    -0.052 SA
ATOM     13  S   UNL d   1      15.325  14.356  -0.258  0.00  0.00    -0.050 SA
ENDBRANCH   6   7
ENDBRANCH   3   6
BRANCH   1  14
ATOM     14  C   UNL d   1      13.236  13.202  -4.047  0.00  0.00     0.033 A 
ATOM     15  C   UNL d   1      13.300  12.927  -4.834  0.00  0.00     0.060 A 
ATOM     16 CL   UNL d   1      13.354  12.125  -4.993  0.00  0.00    -0.082 Cl
ATOM     17  C   UNL d   1      13.311  13.458  -5.463  0.00  0.00     0.011 A 
ATOM     18  C   UNL d   1      13.257  14.269  -5.306  0.00  0.00     0.001 A 
ATOM     19  C   UNL d   1      13.193  14.544  -4.520  0.00  0.00     0.000 A 
ATOM     20  C   UNL d   1      13.184  14.001  -3.910  0.00  0.00     0.003 A 
ENDBRANCH   1  14
TORSDOF 3
ENDMDL
