MODEL 1
REMARK VINA RESULT:      -3.4      0.000      0.000
REMARK  10 active torsions:
REMARK  status: ('A' for Active; 'I' for Inactive)
REMARK    1  A    between atoms: C_2  and  C_1 
REMARK       I    between atoms: N_3  and  C_1 
REMARK    2  A    between atoms: C_5  and  C_2 
REMARK    3  A    between atoms: C_6  and  N_3 
REMARK    4  A    between atoms: C_4  and  C_5 
REMARK    5  A    between atoms: O_11  and  C_4 
REMARK    6  A    between atoms: N_10  and  C_5 
REMARK    7  A    between atoms: O_13  and  C_9 
REMARK    8  A    between atoms: C_14  and  N_10 
REMARK    9  A    between atoms: N_12  and  C_16 
REMARK   10  A    between atoms: C_16  and  C_14 
ROOT
ATOM      1  C   UNK d   1      57.858  -0.748  30.121  0.00  0.00     0.084 C 
ENDROOT
BRANCH   1   2
ATOM      2  C   UNK d   1      57.776  -0.388  30.850  0.00  0.00     0.259 C 
ATOM      3  N   UNK d   1      57.211  -0.661  31.384  0.00  0.00    -0.320 N 
ATOM      4  H   UNK d   1      56.728  -1.306  31.175  0.00  0.00     0.169 HD
ATOM      5  O   UNK d   1      58.263   0.256  31.052  0.00  0.00    -0.267 OA
BRANCH   3   6
ATOM      6  C   UNK d   1      57.125  -0.305  32.113  0.00  0.00     0.082 A 
ATOM      7  C   UNK d   1      56.539  -0.585  32.639  0.00  0.00     0.110 A 
ATOM      8  C   UNK d   1      56.447  -0.225  33.384  0.00  0.00     0.026 A 
ATOM      9  C   UNK d   1      56.945   0.406  33.582  0.00  0.00     0.002 A 
ATOM     10  C   UNK d   1      57.527   0.682  33.056  0.00  0.00     0.002 A 
ATOM     11  C   UNK d   1      57.617   0.327  32.324  0.00  0.00     0.019 A 
BRANCH   7  12
ATOM     12  O   UNK d   1      56.056  -1.214  32.420  0.00  0.00    -0.327 OA
ATOM     13  C   UNK d   1      55.556  -1.558  32.977  0.00  0.00     0.181 C 
ENDBRANCH   7  12
ENDBRANCH   3   6
ENDBRANCH   1   2
BRANCH   1  14
ATOM     14  C   UNK d   1      58.496  -0.559  29.641  0.00  0.00     0.124 C 
BRANCH  14  15
ATOM     15  C   UNK d   1      58.439   0.073  29.104  0.00  0.00     0.194 C 
ATOM     16  O   UNK d   1      57.806   0.124  28.583  0.00  0.00    -0.645 OA
BRANCH  15  17
ATOM     17  O   UNK d   1      59.022   0.662  29.088  0.00  0.00    -0.772 OA
ATOM     18  H   UNK d   1      59.740   0.527  29.463  0.00  0.00     0.167 HD
ENDBRANCH  15  17
ENDBRANCH  14  15
BRANCH  14  19
ATOM     19  N   UNK d   1      59.180  -0.992  29.695  0.00  0.00    -0.346 N 
ATOM     20  H   UNK d   1      59.756  -0.781  30.246  0.00  0.00     0.166 HD
BRANCH  19  21
ATOM     21  C   UNK d   0      59.308  -1.641  29.204  0.00  0.00     0.092 C 
BRANCH  21  22
ATOM     22  C   UNK d   0      59.834  -2.235  29.418  0.00  0.00     0.099 C 
BRANCH  22  23
ATOM     23  N   UNK d   0      60.228  -2.659  28.832  0.00  0.00    -0.299 N 
ATOM     24  C   UNK d   0      59.966  -3.410  28.620  0.00  0.00     0.100 C 
ATOM     25  C   UNK d   0      60.888  -2.336  28.456  0.00  0.00     0.100 C 
ENDBRANCH  22  23
ENDBRANCH  21  22
ENDBRANCH  19  21
ENDBRANCH  14  19
ENDBRANCH   1  14
TORSDOF 10
ENDMDL
MODEL 2
REMARK VINA RESULT:      -2.0      1.240      1.898
REMARK  10 active torsions:
REMARK  status: ('A' for Active; 'I' for Inactive)
REMARK    1  A    between atoms: C_2  and  C_1 
REMARK       I    between atoms: N_3  and  C_1 
REMARK    2  A    between atoms: C_5  and  C_2 
REMARK    3  A    between atoms: C_6  and  N_3 
REMARK    4  A    between atoms: C_4  and  C_5 
REMARK    5  A    between atoms: O_11  and  C_4 
REMARK    6  A    between atoms: N_10  and  C_5 
REMARK    7  A    between atoms: O_13  and  C_9 
REMARK    8  A    between atoms: C_14  and  N_10 
REMARK    9  A    between atoms: N_12  and  C_16 
REMARK   10  A    between atoms: C_16  and  C_14 
ROOT
ATOM      1  C   UNK d   1      57.665  -0.569  31.712  0.00  0.00     0.084 C 
ENDROOT
BRANCH   1   2
ATOM      2  C   UNK d   1      56.971  -0.330  32.073  0.00  0.00     0.259 C 
ATOM      3  N   UNK d   1      56.894  -0.378  32.892  0.00  0.00    -0.320 N 
ATOM      4  H   UNK d   1      57.526  -0.671  33.346  0.00  0.00     0.169 HD
ATOM      5  O   UNK d   1      56.343  -0.038  31.612  0.00  0.00    -0.267 OA
BRANCH   3   6
ATOM      6  C   UNK d   1      56.204  -0.141  33.256  0.00  0.00     0.082 A 
ATOM      7  C   UNK d   1      56.246   0.333  33.944  0.00  0.00     0.110 A 
ATOM      8  C   UNK d   1      55.546   0.578  34.320  0.00  0.00     0.026 A 
ATOM      9  C   UNK d   1      54.820   0.342  33.996  0.00  0.00     0.002 A 
ATOM     10  C   UNK d   1      54.783  -0.129  33.312  0.00  0.00     0.002 A 
ATOM     11  C   UNK d   1      55.472  -0.369  32.944  0.00  0.00     0.019 A 
BRANCH   7  12
ATOM     12  O   UNK d   1      56.979   0.554  34.246  0.00  0.00    -0.327 OA
ATOM     13  C   UNK d   1      57.064   0.681  35.056  0.00  0.00     0.181 C 
ENDBRANCH   7  12
ENDBRANCH   3   6
ENDBRANCH   1   2
BRANCH   1  14
ATOM     14  C   UNK d   1      57.752  -0.489  30.900  0.00  0.00     0.124 C 
BRANCH  14  15
ATOM     15  C   UNK d   1      57.840   0.266  30.564  0.00  0.00     0.194 C 
ATOM     16  O   UNK d   1      57.216   0.623  30.166  0.00  0.00    -0.645 OA
BRANCH  15  17
ATOM     17  O   UNK d   1      58.560   0.670  30.627  0.00  0.00    -0.772 OA
ATOM     18  H   UNK d   1      59.167   0.494  30.104  0.00  0.00     0.167 HD
ENDBRANCH  15  17
ENDBRANCH  14  15
BRANCH  14  19
ATOM     19  N   UNK d   1      57.751  -1.150  30.430  0.00  0.00    -0.346 N 
ATOM     20  H   UNK d   1      57.057  -1.585  30.335  0.00  0.00     0.166 HD
BRANCH  19  21
ATOM     21  C   UNK d   0      58.437  -1.393  30.043  0.00  0.00     0.092 C 
BRANCH  21  22
ATOM     22  C   UNK d   0      58.435  -2.055  29.558  0.00  0.00     0.099 C 
BRANCH  22  23
ATOM     23  N   UNK d   0      59.134  -2.295  29.193  0.00  0.00    -0.299 N 
ATOM     24  C   UNK d   0      59.339  -1.994  28.456  0.00  0.00     0.100 C 
ATOM     25  C   UNK d   0      59.633  -2.839  29.564  0.00  0.00     0.100 C 
ENDBRANCH  22  23
ENDBRANCH  21  22
ENDBRANCH  19  21
ENDBRANCH  14  19
ENDBRANCH   1  14
TORSDOF 10
ENDMDL
MODEL 3
REMARK VINA RESULT:      -1.3      1.385      4.483
REMARK  10 active torsions:
REMARK  status: ('A' for Active; 'I' for Inactive)
REMARK    1  A    between atoms: C_2  and  C_1 
REMARK       I    between atoms: N_3  and  C_1 
REMARK    2  A    between atoms: C_5  and  C_2 
REMARK    3  A    between atoms: C_6  and  N_3 
REMARK    4  A    between atoms: C_4  and  C_5 
REMARK    5  A    between atoms: O_11  and  C_4 
REMARK    6  A    between atoms: N_10  and  C_5 
REMARK    7  A    between atoms: O_13  and  C_9 
REMARK    8  A    between atoms: C_14  and  N_10 
REMARK    9  A    between atoms: N_12  and  C_16 
REMARK   10  A    between atoms: C_16  and  C_14 
ROOT
ATOM      1  C   UNK d   1      58.226  -0.936  29.632  0.00  0.00     0.084 C 
ENDROOT
BRANCH   1   2
ATOM      2  C   UNK d   1      58.809  -1.385  29.275  0.00  0.00     0.259 C 
ATOM      3  N   UNK d   1      58.951  -2.155  29.530  0.00  0.00    -0.320 N 
ATOM      4  H   UNK d   1      58.496  -2.472  30.151  0.00  0.00     0.169 HD
ATOM      5  O   UNK d   1      59.260  -1.061  28.655  0.00  0.00    -0.267 OA
BRANCH   3   6
ATOM      6  C   UNK d   1      59.531  -2.607  29.176  0.00  0.00     0.082 A 
ATOM      7  C   UNK d   1      59.323  -3.332  28.817  0.00  0.00     0.110 A 
ATOM      8  C   UNK d   1      59.911  -3.797  28.455  0.00  0.00     0.026 A 
ATOM      9  C   UNK d   1      60.693  -3.522  28.463  0.00  0.00     0.002 A 
ATOM     10  C   UNK d   1      60.895  -2.800  28.822  0.00  0.00     0.002 A 
ATOM     11  C   UNK d   1      60.316  -2.344  29.177  0.00  0.00     0.019 A 
BRANCH   7  12
ATOM     12  O   UNK d   1      58.540  -3.584  28.821  0.00  0.00    -0.327 OA
ATOM     13  C   UNK d   1      58.356  -4.351  28.580  0.00  0.00     0.181 C 
ENDBRANCH   7  12
ENDBRANCH   3   6
ENDBRANCH   1   2
BRANCH   1  14
ATOM     14  C   UNK d   1      58.389  -0.167  29.868  0.00  0.00     0.124 C 
BRANCH  14  15
ATOM     15  C   UNK d   1      58.685   0.382  29.319  0.00  0.00     0.194 C 
ATOM     16  O   UNK d   1      58.203   0.681  28.724  0.00  0.00    -0.645 OA
BRANCH  15  17
ATOM     17  O   UNK d   1      59.472   0.636  29.363  0.00  0.00    -0.772 OA
ATOM     18  H   UNK d   1      59.808   0.775  30.099  0.00  0.00     0.167 HD
ENDBRANCH  15  17
ENDBRANCH  14  15
BRANCH  14  19
ATOM     19  N   UNK d   1      58.260   0.052  30.638  0.00  0.00    -0.346 N 
ATOM     20  H   UNK d   1      58.824   0.503  31.036  0.00  0.00     0.166 HD
BRANCH  19  21
ATOM     21  C   UNK d   0      57.571  -0.172  31.030  0.00  0.00     0.092 C 
BRANCH  21  22
ATOM     22  C   UNK d   0      57.463  -0.001  31.826  0.00  0.00     0.099 C 
BRANCH  22  23
ATOM     23  N   UNK d   0      56.711  -0.059  32.157  0.00  0.00    -0.299 N 
ATOM     24  C   UNK d   0      56.253   0.617  32.261  0.00  0.00     0.100 C 
ATOM     25  C   UNK d   0      56.412  -0.793  32.387  0.00  0.00     0.100 C 
ENDBRANCH  22  23
ENDBRANCH  21  22
ENDBRANCH  19  21
ENDBRANCH  14  19
ENDBRANCH   1  14
TORSDOF 10
ENDMDL
MODEL 4
REMARK VINA RESULT:      -0.8      1.302      4.816
REMARK  10 active torsions:
REMARK  status: ('A' for Active; 'I' for Inactive)
REMARK    1  A    between atoms: C_2  and  C_1 
REMARK       I    between atoms: N_3  and  C_1 
REMARK    2  A    between atoms: C_5  and  C_2 
REMARK    3  A    between atoms: C_6  and  N_3 
REMARK    4  A    between atoms: C_4  and  C_5 
REMARK    5  A    between atoms: O_11  and  C_4 
REMARK    6  A    between atoms: N_10  and  C_5 
REMARK    7  A    between atoms: O_13  and  C_9 
REMARK    8  A    between atoms: C_14  and  N_10 
REMARK    9  A    between atoms: N_12  and  C_16 
REMARK   10  A    between atoms: C_16  and  C_14 
ROOT
ATOM      1  C   UNK d   1      57.801  -0.219  30.560  0.00  0.00     0.084 C 
ENDROOT
BRANCH   1   2
ATOM      2  C   UNK d   1      58.084  -0.884  30.177  0.00  0.00     0.259 C 
ATOM      3  N   UNK d   1      58.695  -0.816  29.629  0.00  0.00    -0.320 N 
ATOM      4  H   UNK d   1      59.019  -0.067  29.468  0.00  0.00     0.169 HD
ATOM      5  O   UNK d   1      57.754  -1.630  30.344  0.00  0.00    -0.267 OA
BRANCH   3   6
ATOM      6  C   UNK d   1      58.981  -1.477  29.245  0.00  0.00     0.082 A 
ATOM      7  C   UNK d   1      59.718  -1.435  28.853  0.00  0.00     0.110 A 
ATOM      8  C   UNK d   1      60.014  -2.106  28.460  0.00  0.00     0.026 A 
ATOM      9  C   UNK d   1      59.563  -2.801  28.470  0.00  0.00     0.002 A 
ATOM     10  C   UNK d   1      58.831  -2.838  28.860  0.00  0.00     0.002 A 
ATOM     11  C   UNK d   1      58.540  -2.178  29.246  0.00  0.00     0.019 A 
BRANCH   7  12
ATOM     12  O   UNK d   1      60.148  -0.734  28.857  0.00  0.00    -0.327 OA
ATOM     13  C   UNK d   1      60.967  -0.757  28.942  0.00  0.00     0.181 C 
ENDBRANCH   7  12
ENDBRANCH   3   6
ENDBRANCH   1   2
BRANCH   1  14
ATOM     14  C   UNK d   1      57.782  -0.196  31.380  0.00  0.00     0.124 C 
BRANCH  14  15
ATOM     15  C   UNK d   1      58.383   0.196  31.799  0.00  0.00     0.194 C 
ATOM     16  O   UNK d   1      58.451   0.110  32.613  0.00  0.00    -0.645 OA
BRANCH  15  17
ATOM     17  O   UNK d   1      58.923   0.681  31.399  0.00  0.00    -0.772 OA
ATOM     18  H   UNK d   1      59.669   0.390  31.221  0.00  0.00     0.167 HD
ENDBRANCH  15  17
ENDBRANCH  14  15
BRANCH  14  19
ATOM     19  N   UNK d   1      57.174  -0.558  31.776  0.00  0.00    -0.346 N 
ATOM     20  H   UNK d   1      57.047  -1.367  31.680  0.00  0.00     0.166 HD
BRANCH  19  21
ATOM     21  C   UNK d   0      56.680  -0.128  32.276  0.00  0.00     0.092 C 
BRANCH  21  22
ATOM     22  C   UNK d   0      56.102  -0.502  32.724  0.00  0.00     0.099 C 
BRANCH  22  23
ATOM     23  N   UNK d   0      55.508  -0.054  33.077  0.00  0.00    -0.299 N 
ATOM     24  C   UNK d   0      55.118  -0.340  33.744  0.00  0.00     0.100 C 
ATOM     25  C   UNK d   0      55.299   0.682  32.767  0.00  0.00     0.100 C 
ENDBRANCH  22  23
ENDBRANCH  21  22
ENDBRANCH  19  21
ENDBRANCH  14  19
ENDBRANCH   1  14
TORSDOF 10
ENDMDL
