MODEL 1
REMARK VINA RESULT:      75.8      0.000      0.000
REMARK  5 active torsions:
REMARK  status: ('A' for Active; 'I' for Inactive)
REMARK    1  A    between atoms: C_11  and  C_1 
REMARK    2  A    between atoms: C_2  and  N_5 
REMARK    3  A    between atoms: N_3  and  C_7 
REMARK       I    between atoms: N_5  and  C_6 
REMARK    4  A    between atoms: C_6  and  C_9 
REMARK    5  A    between atoms: C_16  and  C_8 
ROOT
ATOM      1  N   UNL d   1     -56.116-102.007 -42.061  0.00  0.00    -0.183 NA
ATOM      2  C   UNL d   1     -55.305-102.085 -42.393  0.00  0.00     0.281 C 
ATOM      3  O   UNL d   1     -54.713-102.469 -41.943  0.00  0.00    -0.265 OA
ENDROOT
BRANCH   2   4
ATOM      4  C   UNL d   1     -55.149-101.754 -43.189  0.00  0.00     0.065 A 
ATOM      5  C   UNL d   1     -55.124-100.930 -43.242  0.00  0.00     0.091 A 
ATOM      6  C   UNL d   1     -54.976-100.597 -43.994  0.00  0.00     0.133 A 
ATOM      7  C   UNL d   1     -54.859-101.075 -44.656  0.00  0.00     0.024 A 
ATOM      8  C   UNL d   1     -54.886-101.908 -44.596  0.00  0.00     0.002 A 
ATOM      9  C   UNL d   1     -55.032-102.232 -43.851  0.00  0.00     0.005 A 
BRANCH   5  10
ATOM     10  C   UNL d   1     -55.238-100.460 -42.590  0.00  0.00     0.213 C 
ATOM     11  O   UNL d   1     -54.712-100.486 -41.941  0.00  0.00    -0.644 OA
ATOM     12  O   UNL d   1     -55.873 -99.997 -42.639  0.00  0.00    -0.644 OA
ENDBRANCH   5  10
BRANCH   6  13
ATOM     13  N   UNL d   1     -54.943 -99.788 -44.088  0.00  0.00    -0.114 N 
ATOM     14  O   UNL d   1     -55.120 -99.240 -43.495  0.00  0.00    -0.532 OA
ATOM     15  O   UNL d   1     -54.732 -99.414 -44.779  0.00  0.00    -0.532 OA
ENDBRANCH   6  13
ENDBRANCH   2   4
BRANCH   1  16
ATOM     16  C   UNL d   1     -56.275-102.315 -41.312  0.00  0.00     0.197 A 
ATOM     17  N   UNL d   1     -55.780-102.151 -40.715  0.00  0.00    -0.221 NA
ATOM     18  C   UNL d   1     -56.066-102.518 -40.054  0.00  0.00     0.090 A 
ATOM     19  C   UNL d   1     -56.688-102.879 -40.238  0.00  0.00     0.058 A 
ATOM     20  S   UNL d   1     -56.905-102.808 -41.025  0.00  0.00    -0.046 SA
BRANCH  18  21
ATOM     21  C   UNL d   1     -55.769-102.531 -39.288  0.00  0.00     0.018 A 
ATOM     22  C   UNL d   1     -55.025-102.200 -39.136  0.00  0.00     0.002 A 
ATOM     23  C   UNL d   1     -54.714-102.208 -38.359  0.00  0.00     0.000 A 
ATOM     24  C   UNL d   1     -55.161-102.551 -37.744  0.00  0.00     0.000 A 
ATOM     25  C   UNL d   1     -55.894-102.875 -37.898  0.00  0.00     0.000 A 
ATOM     26  C   UNL d   1     -56.205-102.868 -38.675  0.00  0.00     0.002 A 
ENDBRANCH  18  21
ENDBRANCH   1  16
TORSDOF 5
ENDMDL
