MODEL 1
REMARK VINA RESULT:      -4.5      0.000      0.000
REMARK  5 active torsions:
REMARK  status: ('A' for Active; 'I' for Inactive)
REMARK    1  A    between atoms: C_2  and  S_1 
REMARK    2  A    between atoms: C_9  and  S_1 
REMARK    3  A    between atoms: N_5  and  C_3 
REMARK    4  A    between atoms: O_28  and  C_23 
REMARK    5  A    between atoms: O_29  and  C_24 
ROOT
ATOM      1  C   UNL d   1      52.275  34.764  53.671  0.00  0.00     0.123 A 
ATOM      2  C   UNL d   1      52.803  34.182  53.912  0.00  0.00     0.078 A 
ATOM      3  C   UNL d   1      53.405  34.369  54.443  0.00  0.00     0.036 A 
ATOM      4  C   UNL d   1      52.346  35.534  53.960  0.00  0.00     0.112 A 
ATOM      5  N   UNL d   1      52.947  35.720  54.490  0.00  0.00    -0.243 NA
ATOM      6  C   UNL d   1      53.476  35.138  54.732  0.00  0.00     0.083 A 
ATOM      7  C   UNL d   1      53.934  33.786  54.685  0.00  0.00     0.027 A 
ATOM      8  C   UNL d   1      54.077  35.325  55.263  0.00  0.00     0.021 A 
ATOM      9  C   UNL d   1      54.535  33.973  55.216  0.00  0.00     0.094 A 
ATOM     10  C   UNL d   1      54.607  34.743  55.505  0.00  0.00     0.026 A 
ENDROOT
BRANCH   1  11
ATOM     11  S   UNL d   1      51.664  34.580  53.133  0.00  0.00     0.213 S 
ATOM     12  O   UNL d   1      52.168  34.770  52.496  0.00  0.00    -0.217 OA
ATOM     13  O   UNL d   1      51.163  34.392  53.768  0.00  0.00    -0.217 OA
BRANCH  11  14
ATOM     14  C   UNL d   1      51.054  34.397  52.595  0.00  0.00     0.088 A 
ATOM     15  C   UNL d   1      50.296  34.230  52.878  0.00  0.00     0.013 A 
ATOM     16  C   UNL d   1      49.690  34.048  52.351  0.00  0.00     0.025 A 
ATOM     17  C   UNL d   1      49.841  34.032  51.529  0.00  0.00     0.094 A 
ATOM     18  C   UNL d   1      50.609  34.202  51.255  0.00  0.00     0.025 A 
ATOM     19  C   UNL d   1      51.207  34.382  51.784  0.00  0.00     0.013 A 
BRANCH  17  20
ATOM     20  O   UNL d   1      49.231  33.849  50.995  0.00  0.00    -0.328 OA
ATOM     21  C   UNL d   1      48.769  34.450  50.672  0.00  0.00     0.181 C 
ENDBRANCH  17  20
ENDBRANCH  11  14
ENDBRANCH   1  11
BRANCH   2  22
ATOM     22  N   UNL d   1      52.732  33.412  53.623  0.00  0.00    -0.303 N 
ATOM     23  C   UNL d   1      52.241  32.872  54.005  0.00  0.00     0.081 A 
ATOM     24  C   UNL d   1      52.168  32.095  53.713  0.00  0.00     0.053 A 
ATOM     25  C   UNL d   1      52.588  31.866  53.042  0.00  0.00     0.239 A 
ATOM     26  C   UNL d   1      53.087  32.408  52.651  0.00  0.00     0.053 A 
ATOM     27  O   UNL d   1      52.976  31.554  52.371  0.00  0.00    -0.298 OA
ATOM     28  O   UNL d   1      52.122  31.266  53.360  0.00  0.00    -0.298 OA
ATOM     29  C   UNL d   1      53.159  33.185  52.943  0.00  0.00     0.081 A 
ATOM     30  C   UNL d   1      52.740  30.763  52.290  0.00  0.00     0.146 A 
ATOM     31  C   UNL d   1      52.214  30.587  52.900  0.00  0.00     0.146 A 
ENDBRANCH   2  22
BRANCH   9  32
ATOM     32  O   UNL d   1      55.063  33.383  55.455  0.00  0.00    -0.328 OA
ATOM     33  C   UNL d   1      55.864  33.451  55.262  0.00  0.00     0.181 C 
ENDBRANCH   9  32
TORSDOF 5
ENDMDL
MODEL 2
REMARK VINA RESULT:      -3.9      1.412      3.118
REMARK  5 active torsions:
REMARK  status: ('A' for Active; 'I' for Inactive)
REMARK    1  A    between atoms: C_2  and  S_1 
REMARK    2  A    between atoms: C_9  and  S_1 
REMARK    3  A    between atoms: N_5  and  C_3 
REMARK    4  A    between atoms: O_28  and  C_23 
REMARK    5  A    between atoms: O_29  and  C_24 
ROOT
ATOM      1  C   UNL d   1      51.733  32.906  52.982  0.00  0.00     0.123 A 
ATOM      2  C   UNL d   1      52.465  33.095  53.307  0.00  0.00     0.078 A 
ATOM      3  C   UNL d   1      53.064  32.530  53.323  0.00  0.00     0.036 A 
ATOM      4  C   UNL d   1      51.599  32.152  52.673  0.00  0.00     0.112 A 
ATOM      5  N   UNL d   1      52.198  31.588  52.690  0.00  0.00    -0.243 NA
ATOM      6  C   UNL d   1      52.931  31.777  53.014  0.00  0.00     0.083 A 
ATOM      7  C   UNL d   1      53.796  32.719  53.648  0.00  0.00     0.027 A 
ATOM      8  C   UNL d   1      53.530  31.213  53.030  0.00  0.00     0.021 A 
ATOM      9  C   UNL d   1      54.396  32.154  53.664  0.00  0.00     0.094 A 
ATOM     10  C   UNL d   1      54.263  31.401  53.355  0.00  0.00     0.026 A 
ENDROOT
BRANCH   1  11
ATOM     11  S   UNL d   1      51.122  33.474  52.963  0.00  0.00     0.213 S 
ATOM     12  O   UNL d   1      51.407  33.756  52.232  0.00  0.00    -0.217 OA
ATOM     13  O   UNL d   1      50.839  33.192  53.692  0.00  0.00    -0.217 OA
BRANCH  11  14
ATOM     14  C   UNL d   1      50.512  34.042  52.944  0.00  0.00     0.088 A 
ATOM     15  C   UNL d   1      50.337  34.429  52.235  0.00  0.00     0.013 A 
ATOM     16  C   UNL d   1      49.736  34.991  52.210  0.00  0.00     0.025 A 
ATOM     17  C   UNL d   1      49.301  35.171  52.902  0.00  0.00     0.094 A 
ATOM     18  C   UNL d   1      49.486  34.773  53.610  0.00  0.00     0.025 A 
ATOM     19  C   UNL d   1      50.085  34.215  53.629  0.00  0.00     0.013 A 
BRANCH  17  20
ATOM     20  O   UNL d   1      48.694  35.737  52.879  0.00  0.00    -0.328 OA
ATOM     21  C   UNL d   1      48.296  35.946  53.571  0.00  0.00     0.181 C 
ENDBRANCH  17  20
ENDBRANCH  11  14
ENDBRANCH   1  11
BRANCH   2  22
ATOM     22  N   UNL d   1      52.598  33.848  53.616  0.00  0.00    -0.303 N 
ATOM     23  C   UNL d   1      52.852  34.458  53.123  0.00  0.00     0.081 A 
ATOM     24  C   UNL d   1      52.986  35.218  53.435  0.00  0.00     0.053 A 
ATOM     25  C   UNL d   1      52.866  35.362  54.237  0.00  0.00     0.239 A 
ATOM     26  C   UNL d   1      52.610  34.750  54.741  0.00  0.00     0.053 A 
ATOM     27  O   UNL d   1      52.769  35.591  55.034  0.00  0.00    -0.298 OA
ATOM     28  O   UNL d   1      53.119  36.024  53.817  0.00  0.00    -0.298 OA
ATOM     29  C   UNL d   1      52.475  33.989  54.429  0.00  0.00     0.081 A 
ATOM     30  C   UNL d   1      52.965  36.396  55.090  0.00  0.00     0.146 A 
ATOM     31  C   UNL d   1      53.181  36.661  54.339  0.00  0.00     0.146 A 
ENDBRANCH   2  22
BRANCH   9  32
ATOM     32  O   UNL d   1      55.129  32.351  53.992  0.00  0.00    -0.328 OA
ATOM     33  C   UNL d   1      55.661  32.810  53.555  0.00  0.00     0.181 C 
ENDBRANCH   9  32
TORSDOF 5
ENDMDL
MODEL 3
REMARK VINA RESULT:      -3.4      1.397      3.381
REMARK  5 active torsions:
REMARK  status: ('A' for Active; 'I' for Inactive)
REMARK    1  A    between atoms: C_2  and  S_1 
REMARK    2  A    between atoms: C_9  and  S_1 
REMARK    3  A    between atoms: N_5  and  C_3 
REMARK    4  A    between atoms: O_28  and  C_23 
REMARK    5  A    between atoms: O_29  and  C_24 
ROOT
ATOM      1  C   UNL d   1      53.976  32.821  54.306  0.00  0.00     0.123 A 
ATOM      2  C   UNL d   1      53.568  33.525  54.184  0.00  0.00     0.078 A 
ATOM      3  C   UNL d   1      53.860  34.228  54.498  0.00  0.00     0.036 A 
ATOM      4  C   UNL d   1      54.677  32.820  54.742  0.00  0.00     0.112 A 
ATOM      5  N   UNL d   1      54.969  33.522  55.055  0.00  0.00    -0.243 NA
ATOM      6  C   UNL d   1      54.561  34.227  54.934  0.00  0.00     0.083 A 
ATOM      7  C   UNL d   1      53.451  34.932  54.376  0.00  0.00     0.027 A 
ATOM      8  C   UNL d   1      54.853  34.929  55.247  0.00  0.00     0.021 A 
ATOM      9  C   UNL d   1      53.744  35.636  54.690  0.00  0.00     0.094 A 
ATOM     10  C   UNL d   1      54.445  35.634  55.126  0.00  0.00     0.026 A 
ENDROOT
BRANCH   1  11
ATOM     11  S   UNL d   1      53.685  32.106  53.990  0.00  0.00     0.213 S 
ATOM     12  O   UNL d   1      53.288  31.951  54.708  0.00  0.00    -0.217 OA
ATOM     13  O   UNL d   1      54.080  32.261  53.277  0.00  0.00    -0.217 OA
BRANCH  11  14
ATOM     14  C   UNL d   1      53.393  31.391  53.675  0.00  0.00     0.088 A 
ATOM     15  C   UNL d   1      52.926  30.899  54.146  0.00  0.00     0.013 A 
ATOM     16  C   UNL d   1      52.635  30.192  53.840  0.00  0.00     0.025 A 
ATOM     17  C   UNL d   1      52.812  29.971  53.053  0.00  0.00     0.094 A 
ATOM     18  C   UNL d   1      53.284  30.476  52.589  0.00  0.00     0.025 A 
ATOM     19  C   UNL d   1      53.571  31.178  52.898  0.00  0.00     0.013 A 
BRANCH  17  20
ATOM     20  O   UNL d   1      52.520  29.259  52.743  0.00  0.00    -0.328 OA
ATOM     21  C   UNL d   1      52.535  28.571  53.198  0.00  0.00     0.181 C 
ENDBRANCH  17  20
ENDBRANCH  11  14
ENDBRANCH   1  11
BRANCH   2  22
ATOM     22  N   UNL d   1      52.867  33.527  53.748  0.00  0.00    -0.303 N 
ATOM     23  C   UNL d   1      52.148  33.379  54.123  0.00  0.00     0.081 A 
ATOM     24  C   UNL d   1      51.440  33.381  53.683  0.00  0.00     0.053 A 
ATOM     25  C   UNL d   1      51.459  33.530  52.873  0.00  0.00     0.239 A 
ATOM     26  C   UNL d   1      52.183  33.680  52.488  0.00  0.00     0.053 A 
ATOM     27  O   UNL d   1      51.390  33.671  52.053  0.00  0.00    -0.298 OA
ATOM     28  O   UNL d   1      50.702  33.393  53.166  0.00  0.00    -0.298 OA
ATOM     29  C   UNL d   1      52.891  33.678  52.928  0.00  0.00     0.081 A 
ATOM     30  C   UNL d   1      50.586  33.618  51.856  0.00  0.00     0.146 A 
ATOM     31  C   UNL d   1      50.163  33.446  52.543  0.00  0.00     0.146 A 
ENDBRANCH   2  22
BRANCH   9  32
ATOM     32  O   UNL d   1      53.328  36.340  54.564  0.00  0.00    -0.328 OA
ATOM     33  C   UNL d   1      52.951  36.710  55.200  0.00  0.00     0.181 C 
ENDBRANCH   9  32
TORSDOF 5
ENDMDL
MODEL 4
REMARK VINA RESULT:      -2.9      1.521      3.981
REMARK  5 active torsions:
REMARK  status: ('A' for Active; 'I' for Inactive)
REMARK    1  A    between atoms: C_2  and  S_1 
REMARK    2  A    between atoms: C_9  and  S_1 
REMARK    3  A    between atoms: N_5  and  C_3 
REMARK    4  A    between atoms: O_28  and  C_23 
REMARK    5  A    between atoms: O_29  and  C_24 
ROOT
ATOM      1  C   UNL d   1      53.705  32.351  53.957  0.00  0.00     0.123 A 
ATOM      2  C   UNL d   1      53.106  31.955  53.556  0.00  0.00     0.078 A 
ATOM      3  C   UNL d   1      53.177  31.148  53.406  0.00  0.00     0.036 A 
ATOM      4  C   UNL d   1      54.376  31.941  54.208  0.00  0.00     0.112 A 
ATOM      5  N   UNL d   1      54.447  31.136  54.058  0.00  0.00    -0.243 NA
ATOM      6  C   UNL d   1      53.848  30.738  53.657  0.00  0.00     0.083 A 
ATOM      7  C   UNL d   1      52.577  30.752  53.005  0.00  0.00     0.027 A 
ATOM      8  C   UNL d   1      53.919  29.933  53.507  0.00  0.00     0.021 A 
ATOM      9  C   UNL d   1      52.648  29.945  52.855  0.00  0.00     0.094 A 
ATOM     10  C   UNL d   1      53.319  29.535  53.106  0.00  0.00     0.026 A 
ENDROOT
BRANCH   1  11
ATOM     11  S   UNL d   1      53.638  33.168  54.111  0.00  0.00     0.213 S 
ATOM     12  O   UNL d   1      53.996  33.337  53.377  0.00  0.00    -0.217 OA
ATOM     13  O   UNL d   1      53.282  32.999  54.842  0.00  0.00    -0.217 OA
BRANCH  11  14
ATOM     14  C   UNL d   1      53.572  33.985  54.265  0.00  0.00     0.088 A 
ATOM     15  C   UNL d   1      53.294  34.241  55.000  0.00  0.00     0.013 A 
ATOM     16  C   UNL d   1      53.226  35.046  55.157  0.00  0.00     0.025 A 
ATOM     17  C   UNL d   1      53.439  35.606  54.574  0.00  0.00     0.094 A 
ATOM     18  C   UNL d   1      53.718  35.336  53.837  0.00  0.00     0.025 A 
ATOM     19  C   UNL d   1      53.783  34.534  53.686  0.00  0.00     0.013 A 
BRANCH  17  20
ATOM     20  O   UNL d   1      53.371  36.419  54.730  0.00  0.00    -0.328 OA
ATOM     21  C   UNL d   1      52.717  36.709  55.141  0.00  0.00     0.181 C 
ENDBRANCH  17  20
ENDBRANCH  11  14
ENDBRANCH   1  11
BRANCH   2  22
ATOM     22  N   UNL d   1      52.435  32.364  53.305  0.00  0.00    -0.303 N 
ATOM     23  C   UNL d   1      51.773  32.411  53.793  0.00  0.00     0.081 A 
ATOM     24  C   UNL d   1      51.095  32.825  53.540  0.00  0.00     0.053 A 
ATOM     25  C   UNL d   1      51.087  33.187  52.801  0.00  0.00     0.239 A 
ATOM     26  C   UNL d   1      51.753  33.144  52.302  0.00  0.00     0.053 A 
ATOM     27  O   UNL d   1      50.995  33.581  52.070  0.00  0.00    -0.298 OA
ATOM     28  O   UNL d   1      50.386  33.282  53.223  0.00  0.00    -0.298 OA
ATOM     29  C   UNL d   1      52.431  32.730  52.555  0.00  0.00     0.081 A 
ATOM     30  C   UNL d   1      50.235  33.914  52.057  0.00  0.00     0.146 A 
ATOM     31  C   UNL d   1      49.861  33.729  52.769  0.00  0.00     0.146 A 
ENDBRANCH   2  22
BRANCH   9  32
ATOM     32  O   UNL d   1      52.042  29.552  52.451  0.00  0.00    -0.328 OA
ATOM     33  C   UNL d   1      51.860  28.771  52.650  0.00  0.00     0.181 C 
ENDBRANCH   9  32
TORSDOF 5
ENDMDL
MODEL 5
REMARK VINA RESULT:      -2.0      1.517      4.232
REMARK  5 active torsions:
REMARK  status: ('A' for Active; 'I' for Inactive)
REMARK    1  A    between atoms: C_2  and  S_1 
REMARK    2  A    between atoms: C_9  and  S_1 
REMARK    3  A    between atoms: N_5  and  C_3 
REMARK    4  A    between atoms: O_28  and  C_23 
REMARK    5  A    between atoms: O_29  and  C_24 
ROOT
ATOM      1  C   UNL d   1      51.904  32.196  53.203  0.00  0.00     0.123 A 
ATOM      2  C   UNL d   1      52.174  32.946  53.409  0.00  0.00     0.078 A 
ATOM      3  C   UNL d   1      51.704  33.605  53.255  0.00  0.00     0.036 A 
ATOM      4  C   UNL d   1      51.167  32.104  52.845  0.00  0.00     0.112 A 
ATOM      5  N   UNL d   1      50.698  32.763  52.693  0.00  0.00    -0.243 NA
ATOM      6  C   UNL d   1      50.967  33.514  52.897  0.00  0.00     0.083 A 
ATOM      7  C   UNL d   1      51.973  34.356  53.461  0.00  0.00     0.027 A 
ATOM      8  C   UNL d   1      50.498  34.173  52.745  0.00  0.00     0.021 A 
ATOM      9  C   UNL d   1      51.504  35.015  53.308  0.00  0.00     0.094 A 
ATOM     10  C   UNL d   1      50.766  34.924  52.949  0.00  0.00     0.026 A 
ENDROOT
BRANCH   1  11
ATOM     11  S   UNL d   1      52.376  31.524  53.356  0.00  0.00     0.213 S 
ATOM     12  O   UNL d   1      52.027  31.451  54.111  0.00  0.00    -0.217 OA
ATOM     13  O   UNL d   1      52.721  31.597  52.605  0.00  0.00    -0.217 OA
BRANCH  11  14
ATOM     14  C   UNL d   1      52.846  30.853  53.510  0.00  0.00     0.088 A 
ATOM     15  C   UNL d   1      52.766  30.454  54.229  0.00  0.00     0.013 A 
ATOM     16  C   UNL d   1      53.228  29.791  54.385  0.00  0.00     0.025 A 
ATOM     17  C   UNL d   1      53.779  29.520  53.817  0.00  0.00     0.094 A 
ATOM     18  C   UNL d   1      53.850  29.930  53.096  0.00  0.00     0.025 A 
ATOM     19  C   UNL d   1      53.388  30.589  52.946  0.00  0.00     0.013 A 
BRANCH  17  20
ATOM     20  O   UNL d   1      54.246  28.851  53.973  0.00  0.00    -0.328 OA
ATOM     21  C   UNL d   1      53.989  28.282  54.512  0.00  0.00     0.181 C 
ENDBRANCH  17  20
ENDBRANCH  11  14
ENDBRANCH   1  11
BRANCH   2  22
ATOM     22  N   UNL d   1      52.911  33.037  53.767  0.00  0.00    -0.303 N 
ATOM     23  C   UNL d   1      52.975  33.033  54.588  0.00  0.00     0.081 A 
ATOM     24  C   UNL d   1      53.720  33.125  54.950  0.00  0.00     0.053 A 
ATOM     25  C   UNL d   1      54.394  33.221  54.486  0.00  0.00     0.239 A 
ATOM     26  C   UNL d   1      54.336  33.227  53.654  0.00  0.00     0.053 A 
ATOM     27  O   UNL d   1      55.123  33.324  54.092  0.00  0.00    -0.298 OA
ATOM     28  O   UNL d   1      54.546  33.228  55.295  0.00  0.00    -0.298 OA
ATOM     29  C   UNL d   1      53.591  33.135  53.293  0.00  0.00     0.081 A 
ATOM     30  C   UNL d   1      55.714  33.392  54.670  0.00  0.00     0.146 A 
ATOM     31  C   UNL d   1      55.357  33.333  55.412  0.00  0.00     0.146 A 
ENDBRANCH   2  22
BRANCH   9  32
ATOM     32  O   UNL d   1      51.780  35.766  53.516  0.00  0.00    -0.328 OA
ATOM     33  C   UNL d   1      51.767  36.000  54.310  0.00  0.00     0.181 C 
ENDBRANCH   9  32
TORSDOF 5
ENDMDL
MODEL 6
REMARK VINA RESULT:      -1.9      1.920      3.753
REMARK  5 active torsions:
REMARK  status: ('A' for Active; 'I' for Inactive)
REMARK    1  A    between atoms: C_2  and  S_1 
REMARK    2  A    between atoms: C_9  and  S_1 
REMARK    3  A    between atoms: N_5  and  C_3 
REMARK    4  A    between atoms: O_28  and  C_23 
REMARK    5  A    between atoms: O_29  and  C_24 
ROOT
ATOM      1  C   UNL d   1      52.407  32.307  53.217  0.00  0.00     0.123 A 
ATOM      2  C   UNL d   1      53.031  31.876  53.537  0.00  0.00     0.078 A 
ATOM      3  C   UNL d   1      53.088  31.067  53.388  0.00  0.00     0.036 A 
ATOM      4  C   UNL d   1      51.841  31.931  52.750  0.00  0.00     0.112 A 
ATOM      5  N   UNL d   1      51.898  31.124  52.602  0.00  0.00    -0.243 NA
ATOM      6  C   UNL d   1      52.522  30.691  52.921  0.00  0.00     0.083 A 
ATOM      7  C   UNL d   1      53.712  30.636  53.708  0.00  0.00     0.027 A 
ATOM      8  C   UNL d   1      52.579  29.884  52.773  0.00  0.00     0.021 A 
ATOM      9  C   UNL d   1      53.769  29.827  53.560  0.00  0.00     0.094 A 
ATOM     10  C   UNL d   1      53.203  29.451  53.092  0.00  0.00     0.026 A 
ENDROOT
BRANCH   1  11
ATOM     11  S   UNL d   1      52.345  33.126  53.364  0.00  0.00     0.213 S 
ATOM     12  O   UNL d   1      51.879  32.969  54.039  0.00  0.00    -0.217 OA
ATOM     13  O   UNL d   1      52.808  33.281  52.693  0.00  0.00    -0.217 OA
BRANCH  11  14
ATOM     14  C   UNL d   1      52.281  33.944  53.512  0.00  0.00     0.088 A 
ATOM     15  C   UNL d   1      51.822  34.211  54.144  0.00  0.00     0.013 A 
ATOM     16  C   UNL d   1      51.756  35.018  54.294  0.00  0.00     0.025 A 
ATOM     17  C   UNL d   1      52.154  35.569  53.807  0.00  0.00     0.094 A 
ATOM     18  C   UNL d   1      52.614  35.288  53.172  0.00  0.00     0.025 A 
ATOM     19  C   UNL d   1      52.676  34.484  53.028  0.00  0.00     0.013 A 
BRANCH  17  20
ATOM     20  O   UNL d   1      52.089  36.383  53.956  0.00  0.00    -0.328 OA
ATOM     21  C   UNL d   1      52.434  36.709  54.631  0.00  0.00     0.181 C 
ENDBRANCH  17  20
ENDBRANCH  11  14
ENDBRANCH   1  11
BRANCH   2  22
ATOM     22  N   UNL d   1      53.598  32.251  54.004  0.00  0.00    -0.303 N 
ATOM     23  C   UNL d   1      53.495  32.299  54.820  0.00  0.00     0.081 A 
ATOM     24  C   UNL d   1      54.067  32.678  55.292  0.00  0.00     0.053 A 
ATOM     25  C   UNL d   1      54.737  33.006  54.943  0.00  0.00     0.239 A 
ATOM     26  C   UNL d   1      54.847  32.962  54.118  0.00  0.00     0.053 A 
ATOM     27  O   UNL d   1      55.441  33.363  54.671  0.00  0.00    -0.298 OA
ATOM     28  O   UNL d   1      54.712  33.098  55.761  0.00  0.00    -0.298 OA
ATOM     29  C   UNL d   1      54.275  32.582  53.646  0.00  0.00     0.081 A 
ATOM     30  C   UNL d   1      55.839  33.670  55.331  0.00  0.00     0.146 A 
ATOM     31  C   UNL d   1      55.388  33.506  56.003  0.00  0.00     0.146 A 
ENDBRANCH   2  22
BRANCH   9  32
ATOM     32  O   UNL d   1      54.399  29.399  53.884  0.00  0.00    -0.328 OA
ATOM     33  C   UNL d   1      54.244  28.718  54.326  0.00  0.00     0.181 C 
ENDBRANCH   9  32
TORSDOF 5
ENDMDL
