MODEL 1
REMARK VINA RESULT:      -8.5      0.000      0.000
REMARK  6 active torsions:
REMARK  status: ('A' for Active; 'I' for Inactive)
REMARK    1  A    between atoms: C_3  and  C_1 
REMARK    2  A    between atoms: C_4  and  N_2 
REMARK       I    between atoms: N_14  and  C_3 
REMARK    3  A    between atoms: N_5  and  C_19 
REMARK    4  A    between atoms: O_18  and  C_13 
REMARK    5  A    between atoms: C_17  and  N_14 
REMARK    6  A    between atoms: C_19  and  C_17 
ROOT
ATOM      1  N   UNL d   1      52.236  33.599  53.528  0.00  0.00    -0.300 N 
ATOM      2  N   UNL d   1      50.833  34.103  52.822  0.00  0.00    -0.299 N 
ATOM      3  C   UNL d   1      52.263  34.201  52.958  0.00  0.00     0.100 A 
ATOM      4  C   UNL d   1      51.518  33.250  53.745  0.00  0.00     0.100 A 
ATOM      5  C   UNL d   1      51.552  34.452  52.605  0.00  0.00     0.100 A 
ATOM      6  C   UNL d   1      50.823  33.505  53.391  0.00  0.00     0.100 A 
ENDROOT
BRANCH   2   7
ATOM      7  C   UNL d   1      50.139  34.358  52.468  0.00  0.00     0.101 C 
BRANCH   7   8
ATOM      8  C   UNL d   1      49.642  34.887  52.844  0.00  0.00     0.121 C 
BRANCH   8   9
ATOM      9  N   UNL d   1      48.929  35.099  52.517  0.00  0.00    -0.205 NA
ATOM     10  C   UNL d   1      48.469  35.681  52.880  0.00  0.00     0.280 C 
ATOM     11  O   UNL d   1      48.729  36.043  53.566  0.00  0.00    -0.265 OA
BRANCH  10  12
ATOM     12  C   UNL d   1      47.745  35.896  52.547  0.00  0.00     0.065 A 
ATOM     13  C   UNL d   1      47.169  36.373  52.906  0.00  0.00     0.040 A 
ATOM     14  S   UNL d   1      46.541  36.442  52.376  0.00  0.00    -0.086 SA
ATOM     15  C   UNL d   1      46.721  36.021  51.710  0.00  0.00     0.036 A 
ATOM     16  C   UNL d   1      47.471  35.679  51.812  0.00  0.00     0.012 A 
ENDBRANCH  10  12
ENDBRANCH   8   9
ENDBRANCH   7   8
ENDBRANCH   2   7
BRANCH   1  17
ATOM     17  C   UNL d   1      52.941  33.351  53.877  0.00  0.00     0.086 A 
ATOM     18  C   UNL d   1      53.281  32.625  53.670  0.00  0.00     0.110 A 
ATOM     19  C   UNL d   1      53.983  32.389  54.024  0.00  0.00     0.026 A 
ATOM     20  C   UNL d   1      54.354  32.866  54.584  0.00  0.00     0.002 A 
ATOM     21  C   UNL d   1      54.014  33.594  54.792  0.00  0.00     0.002 A 
ATOM     22  C   UNL d   1      53.312  33.839  54.444  0.00  0.00     0.019 A 
BRANCH  18  23
ATOM     23  O   UNL d   1      52.921  32.143  53.114  0.00  0.00    -0.327 OA
ATOM     24  C   UNL d   1      53.219  31.384  52.961  0.00  0.00     0.181 C 
ENDBRANCH  18  23
ENDBRANCH   1  17
TORSDOF 6
ENDMDL
MODEL 2
REMARK VINA RESULT:      -5.5      2.051      5.820
REMARK  6 active torsions:
REMARK  status: ('A' for Active; 'I' for Inactive)
REMARK    1  A    between atoms: C_3  and  C_1 
REMARK    2  A    between atoms: C_4  and  N_2 
REMARK       I    between atoms: N_14  and  C_3 
REMARK    3  A    between atoms: N_5  and  C_19 
REMARK    4  A    between atoms: O_18  and  C_13 
REMARK    5  A    between atoms: C_17  and  N_14 
REMARK    6  A    between atoms: C_19  and  C_17 
ROOT
ATOM      1  N   UNL d   1      48.940  35.024  52.270  0.00  0.00    -0.300 N 
ATOM      2  N   UNL d   1      50.387  34.276  52.530  0.00  0.00    -0.299 N 
ATOM      3  C   UNL d   1      49.422  34.837  51.621  0.00  0.00     0.100 A 
ATOM      4  C   UNL d   1      49.176  34.841  53.042  0.00  0.00     0.100 A 
ATOM      5  C   UNL d   1      50.151  34.459  51.758  0.00  0.00     0.100 A 
ATOM      6  C   UNL d   1      49.896  34.469  53.165  0.00  0.00     0.100 A 
ENDROOT
BRANCH   2   7
ATOM      7  C   UNL d   1      51.107  33.904  52.653  0.00  0.00     0.101 C 
BRANCH   7   8
ATOM      8  C   UNL d   1      51.710  34.275  53.063  0.00  0.00     0.121 C 
BRANCH   8   9
ATOM      9  N   UNL d   1      52.312  33.848  53.401  0.00  0.00    -0.205 NA
ATOM     10  C   UNL d   1      52.971  34.241  53.709  0.00  0.00     0.280 C 
ATOM     11  O   UNL d   1      53.016  35.057  53.673  0.00  0.00    -0.265 OA
BRANCH  10  12
ATOM     12  C   UNL d   1      53.583  33.807  54.052  0.00  0.00     0.065 A 
ATOM     13  C   UNL d   1      53.799  33.824  54.852  0.00  0.00     0.040 A 
ATOM     14  S   UNL d   1      54.436  33.307  54.946  0.00  0.00    -0.086 SA
ATOM     15  C   UNL d   1      54.608  32.981  54.227  0.00  0.00     0.036 A 
ATOM     16  C   UNL d   1      54.079  33.289  53.667  0.00  0.00     0.012 A 
ENDBRANCH  10  12
ENDBRANCH   8   9
ENDBRANCH   7   8
ENDBRANCH   2   7
BRANCH   1  17
ATOM     17  C   UNL d   1      48.218  35.398  52.133  0.00  0.00     0.086 A 
ATOM     18  C   UNL d   1      47.933  35.969  52.661  0.00  0.00     0.110 A 
ATOM     19  C   UNL d   1      47.213  36.334  52.514  0.00  0.00     0.026 A 
ATOM     20  C   UNL d   1      46.769  36.140  51.847  0.00  0.00     0.002 A 
ATOM     21  C   UNL d   1      47.054  35.568  51.318  0.00  0.00     0.002 A 
ATOM     22  C   UNL d   1      47.773  35.196  51.455  0.00  0.00     0.019 A 
BRANCH  18  23
ATOM     23  O   UNL d   1      48.366  36.170  53.327  0.00  0.00    -0.327 OA
ATOM     24  C   UNL d   1      48.061  36.709  53.878  0.00  0.00     0.181 C 
ENDBRANCH  18  23
ENDBRANCH   1  17
TORSDOF 6
ENDMDL
