MODEL 1
REMARK VINA RESULT:      62.0      0.000      0.000
REMARK  6 active torsions:
REMARK  status: ('A' for Active; 'I' for Inactive)
REMARK    1  A    between atoms: C_2  and  C_1 
REMARK       I    between atoms: N_5  and  C_2 
REMARK    2  A    between atoms: C_13  and  N_5 
REMARK    3  A    between atoms: C_14  and  C_6 
REMARK       I    between atoms: C_8  and  N_9 
REMARK    4  A    between atoms: N_9  and  C_15 
REMARK    5  A    between atoms: S_11  and  C_14 
REMARK    6  A    between atoms: C_16  and  S_11 
ROOT
ATOM      1  C   UNL d   1     -50.436  26.240  34.335  0.00  0.00     0.158 A 
ATOM      2  O   UNL d   1     -50.516  26.112  35.145  0.00  0.00    -0.302 OA
ATOM      3  C   UNL d   1     -51.061  26.730  34.098  0.00  0.00     0.032 A 
ATOM      4  C   UNL d   1     -51.178  26.514  35.408  0.00  0.00     0.107 A 
ATOM      5  C   UNL d   1     -51.520  26.899  34.762  0.00  0.00     0.027 A 
ENDROOT
BRANCH   1   6
ATOM      6  C   UNL d   1     -49.845  25.940  33.843  0.00  0.00     0.302 C 
ATOM      7  N   UNL d   1     -50.003  25.309  33.339  0.00  0.00    -0.206 NA
ATOM      8  O   UNL d   1     -49.096  26.276  33.860  0.00  0.00    -0.263 OA
BRANCH   7   9
ATOM      9  C   UNL d   1     -50.766  24.976  33.330  0.00  0.00     0.085 A 
ATOM     10  C   UNL d   1     -51.433  25.463  33.314  0.00  0.00     0.021 A 
ATOM     11  C   UNL d   1     -52.183  25.120  33.306  0.00  0.00     0.021 A 
ATOM     12  C   UNL d   1     -52.265  24.301  33.315  0.00  0.00     0.085 A 
ATOM     13  C   UNL d   1     -51.592  23.819  33.331  0.00  0.00     0.021 A 
ATOM     14  C   UNL d   1     -50.840  24.153  33.339  0.00  0.00     0.021 A 
BRANCH  12  15
ATOM     15  N   UNL d   1     -53.021  23.959  33.307  0.00  0.00    -0.208 NA
ATOM     16  C   UNL d   1     -53.280  23.529  33.962  0.00  0.00     0.279 C 
ATOM     17  O   UNL d   1     -52.797  23.437  34.620  0.00  0.00    -0.265 OA
ATOM     18  C   UNL d   1     -54.028  23.191  33.952  0.00  0.00     0.068 C 
ENDBRANCH  12  15
ENDBRANCH   7   9
ENDBRANCH   1   6
BRANCH   4  19
ATOM     19  C   UNL d   1     -51.463  26.538  36.182  0.00  0.00     0.060 C 
BRANCH  19  20
ATOM     20  S   UNL d   1     -50.938  26.622  36.810  0.00  0.00    -0.084 SA
BRANCH  20  21
ATOM     21  C   UNL d   1     -51.211  26.634  37.584  0.00  0.00     0.029 A 
ATOM     22  C   UNL d   1     -50.947  27.226  38.094  0.00  0.00     0.006 A 
ATOM     23  C   UNL d   1     -51.220  27.238  38.868  0.00  0.00     0.001 A 
ATOM     24  C   UNL d   1     -51.750  26.667  39.134  0.00  0.00     0.000 A 
ATOM     25  C   UNL d   1     -52.013  26.073  38.620  0.00  0.00     0.001 A 
ATOM     26  C   UNL d   1     -51.740  26.061  37.846  0.00  0.00     0.006 A 
ENDBRANCH  20  21
ENDBRANCH  19  20
ENDBRANCH   4  19
TORSDOF 6
ENDMDL
MODEL 2
REMARK VINA RESULT:      64.5      0.835      1.146
REMARK  6 active torsions:
REMARK  status: ('A' for Active; 'I' for Inactive)
REMARK    1  A    between atoms: C_2  and  C_1 
REMARK       I    between atoms: N_5  and  C_2 
REMARK    2  A    between atoms: C_13  and  N_5 
REMARK    3  A    between atoms: C_14  and  C_6 
REMARK       I    between atoms: C_8  and  N_9 
REMARK    4  A    between atoms: N_9  and  C_15 
REMARK    5  A    between atoms: S_11  and  C_14 
REMARK    6  A    between atoms: C_16  and  S_11 
ROOT
ATOM      1  C   UNL d   1     -50.549  26.756  34.667  0.00  0.00     0.158 A 
ATOM      2  O   UNL d   1     -50.375  26.498  35.431  0.00  0.00    -0.302 OA
ATOM      3  C   UNL d   1     -51.366  26.889  34.631  0.00  0.00     0.032 A 
ATOM      4  C   UNL d   1     -51.070  26.471  35.861  0.00  0.00     0.107 A 
ATOM      5  C   UNL d   1     -51.688  26.712  35.370  0.00  0.00     0.027 A 
ENDROOT
BRANCH   1   6
ATOM      6  C   UNL d   1     -50.015  26.865  34.048  0.00  0.00     0.302 C 
ATOM      7  N   UNL d   1     -49.977  26.323  33.430  0.00  0.00    -0.206 NA
ATOM      8  O   UNL d   1     -49.520  27.521  34.053  0.00  0.00    -0.263 OA
BRANCH   7   9
ATOM      9  C   UNL d   1     -50.484  25.663  33.436  0.00  0.00     0.085 A 
ATOM     10  C   UNL d   1     -50.181  24.906  33.570  0.00  0.00     0.021 A 
ATOM     11  C   UNL d   1     -50.695  24.261  33.573  0.00  0.00     0.021 A 
ATOM     12  C   UNL d   1     -51.501  24.372  33.445  0.00  0.00     0.085 A 
ATOM     13  C   UNL d   1     -51.798  25.134  33.312  0.00  0.00     0.021 A 
ATOM     14  C   UNL d   1     -51.292  25.783  33.307  0.00  0.00     0.021 A 
BRANCH  12  15
ATOM     15  N   UNL d   1     -52.016  23.721  33.450  0.00  0.00    -0.208 NA
ATOM     16  C   UNL d   1     -52.814  23.834  33.631  0.00  0.00     0.279 C 
ATOM     17  O   UNL d   1     -53.101  24.583  33.807  0.00  0.00    -0.265 OA
ATOM     18  C   UNL d   1     -53.321  23.189  33.635  0.00  0.00     0.068 C 
ENDBRANCH  12  15
ENDBRANCH   7   9
ENDBRANCH   1   6
BRANCH   4  19
ATOM     19  C   UNL d   1     -51.149  26.242  36.650  0.00  0.00     0.060 C 
BRANCH  19  20
ATOM     20  S   UNL d   1     -51.851  26.393  37.052  0.00  0.00    -0.084 SA
BRANCH  20  21
ATOM     21  C   UNL d   1     -52.049  25.964  37.723  0.00  0.00     0.029 A 
ATOM     22  C   UNL d   1     -51.539  25.974  38.371  0.00  0.00     0.006 A 
ATOM     23  C   UNL d   1     -51.737  25.544  39.042  0.00  0.00     0.001 A 
ATOM     24  C   UNL d   1     -52.435  25.109  39.070  0.00  0.00     0.000 A 
ATOM     25  C   UNL d   1     -52.945  25.101  38.418  0.00  0.00     0.001 A 
ATOM     26  C   UNL d   1     -52.747  25.530  37.747  0.00  0.00     0.006 A 
ENDBRANCH  20  21
ENDBRANCH  19  20
ENDBRANCH   4  19
TORSDOF 6
ENDMDL
