MODEL 1
REMARK VINA RESULT:      -2.1      0.000      0.000
REMARK  3 active torsions:
REMARK  status: ('A' for Active; 'I' for Inactive)
REMARK       I    between atoms: N_5  and  C_1 
REMARK       I    between atoms: N_6  and  C_1 
REMARK    1  A    between atoms: C_2  and  N_7 
REMARK    2  A    between atoms: C_9  and  N_5 
REMARK    3  A    between atoms: N_7  and  N_6 
ROOT
ATOM      1  C   UNL d   1      60.270   0.598  29.777  0.00  0.00     0.070 A 
ATOM      2  C   UNL d   1      59.587   0.575  30.244  0.00  0.00     0.032 A 
ATOM      3  C   UNL d   1      58.855   0.493  29.911  0.00  0.00     0.087 A 
ATOM      4  C   UNL d   1      60.175   0.534  28.958  0.00  0.00     0.068 A 
ATOM      5  C   UNL d   1      59.428   0.450  28.619  0.00  0.00     0.014 A 
ATOM      6 CL   UNL d   1      61.028   0.682  30.103  0.00  0.00    -0.081 Cl
ATOM      7  C   UNL d   1      58.768   0.430  29.096  0.00  0.00     0.020 A 
ATOM      8 CL   UNL d   1      60.874   0.556  28.457  0.00  0.00    -0.082 Cl
ENDROOT
BRANCH   3   9
ATOM      9  N   UNL d   1      58.161   0.472  30.423  0.00  0.00    -0.190 NA
ATOM     10  C   UNL d   1      57.727  -0.250  30.500  0.00  0.00     0.387 C 
ATOM     11  N   UNL d   1      57.968  -0.912  30.092  0.00  0.00    -0.086 NA
ATOM     12  O   UNL d   1      57.059  -0.270  30.991  0.00  0.00    -0.241 OA
BRANCH  11  13
ATOM     13  N   UNL d   1      58.625  -0.885  29.611  0.00  0.00    -0.111 NA
BRANCH  13  14
ATOM     14  C   UNL d   1      58.888  -1.561  29.202  0.00  0.00     0.260 C 
ATOM     15  S   UNL d   1      58.591  -1.735  28.455  0.00  0.00    -0.034 SA
ATOM     16  N   UNL d   1      59.453  -2.052  29.559  0.00  0.00    -0.113 N 
ENDBRANCH  13  14
ENDBRANCH  11  13
ENDBRANCH   3   9
TORSDOF 3
ENDMDL
MODEL 2
REMARK VINA RESULT:      -1.8      3.838      4.822
REMARK  3 active torsions:
REMARK  status: ('A' for Active; 'I' for Inactive)
REMARK       I    between atoms: N_5  and  C_1 
REMARK       I    between atoms: N_6  and  C_1 
REMARK    1  A    between atoms: C_2  and  N_7 
REMARK    2  A    between atoms: C_9  and  N_5 
REMARK    3  A    between atoms: N_7  and  N_6 
ROOT
ATOM      1  C   UNL d   1      56.803   0.677  34.173  0.00  0.00     0.070 A 
ATOM      2  C   UNL d   1      57.159   0.674  33.427  0.00  0.00     0.032 A 
ATOM      3  C   UNL d   1      56.715   0.669  32.751  0.00  0.00     0.087 A 
ATOM      4  C   UNL d   1      55.976   0.676  34.202  0.00  0.00     0.068 A 
ATOM      5  C   UNL d   1      55.524   0.672  33.513  0.00  0.00     0.014 A 
ATOM      6 CL   UNL d   1      57.243   0.682  34.876  0.00  0.00    -0.081 Cl
ATOM      7  C   UNL d   1      55.893   0.668  32.787  0.00  0.00     0.020 A 
ATOM      8 CL   UNL d   1      55.589   0.680  34.970  0.00  0.00    -0.082 Cl
ENDROOT
BRANCH   3   9
ATOM      9  N   UNL d   1      57.114   0.666  31.986  0.00  0.00    -0.190 NA
ATOM     10  C   UNL d   1      57.083  -0.031  31.508  0.00  0.00     0.387 C 
ATOM     11  N   UNL d   1      56.678  -0.686  31.774  0.00  0.00    -0.086 NA
ATOM     12  O   UNL d   1      57.466  -0.034  30.772  0.00  0.00    -0.241 OA
BRANCH  11  13
ATOM     13  N   UNL d   1      56.304  -0.675  32.497  0.00  0.00    -0.111 NA
BRANCH  13  14
ATOM     14  C   UNL d   1      55.932  -1.355  32.800  0.00  0.00     0.260 C 
ATOM     15  S   UNL d   1      55.117  -1.448  32.727  0.00  0.00    -0.034 SA
ATOM     16  N   UNL d   1      56.392  -1.934  33.175  0.00  0.00    -0.113 N 
ENDBRANCH  13  14
ENDBRANCH  11  13
ENDBRANCH   3   9
TORSDOF 3
ENDMDL
MODEL 3
REMARK VINA RESULT:      -1.6      4.300      5.109
REMARK  3 active torsions:
REMARK  status: ('A' for Active; 'I' for Inactive)
REMARK       I    between atoms: N_5  and  C_1 
REMARK       I    between atoms: N_6  and  C_1 
REMARK    1  A    between atoms: C_2  and  N_7 
REMARK    2  A    between atoms: C_9  and  N_5 
REMARK    3  A    between atoms: N_7  and  N_6 
ROOT
ATOM      1  C   UNL d   1      56.206  -1.112  32.393  0.00  0.00     0.070 A 
ATOM      2  C   UNL d   1      55.651  -0.892  32.964  0.00  0.00     0.032 A 
ATOM      3  C   UNL d   1      55.495  -0.115  33.120  0.00  0.00     0.087 A 
ATOM      4  C   UNL d   1      56.598  -0.507  31.987  0.00  0.00     0.068 A 
ATOM      5  C   UNL d   1      56.439   0.287  32.147  0.00  0.00     0.014 A 
ATOM      6 CL   UNL d   1      56.377  -1.906  32.221  0.00  0.00    -0.081 Cl
ATOM      7  C   UNL d   1      55.888   0.483  32.713  0.00  0.00     0.020 A 
ATOM      8 CL   UNL d   1      57.179  -0.717  31.390  0.00  0.00    -0.082 Cl
ENDROOT
BRANCH   3   9
ATOM      9  N   UNL d   1      54.910   0.086  33.722  0.00  0.00    -0.190 NA
ATOM     10  C   UNL d   1      55.160   0.489  34.422  0.00  0.00     0.387 C 
ATOM     11  N   UNL d   1      55.945   0.682  34.520  0.00  0.00    -0.086 NA
ATOM     12  O   UNL d   1      54.597   0.681  35.000  0.00  0.00    -0.241 OA
BRANCH  11  13
ATOM     13  N   UNL d   1      56.492   0.490  33.948  0.00  0.00    -0.111 NA
BRANCH  13  14
ATOM     14  C   UNL d   1      57.309   0.561  34.090  0.00  0.00     0.260 C 
ATOM     15  S   UNL d   1      57.591   0.618  34.861  0.00  0.00    -0.034 SA
ATOM     16  N   UNL d   1      57.830   0.573  33.446  0.00  0.00    -0.113 N 
ENDBRANCH  13  14
ENDBRANCH  11  13
ENDBRANCH   3   9
TORSDOF 3
ENDMDL
MODEL 4
REMARK VINA RESULT:      -1.2      1.854      2.361
REMARK  3 active torsions:
REMARK  status: ('A' for Active; 'I' for Inactive)
REMARK       I    between atoms: N_5  and  C_1 
REMARK       I    between atoms: N_6  and  C_1 
REMARK    1  A    between atoms: C_2  and  N_7 
REMARK    2  A    between atoms: C_9  and  N_5 
REMARK    3  A    between atoms: N_7  and  N_6 
ROOT
ATOM      1  C   UNL d   1      59.565  -2.169  29.070  0.00  0.00     0.070 A 
ATOM      2  C   UNL d   1      58.896  -1.701  29.197  0.00  0.00     0.032 A 
ATOM      3  C   UNL d   1      58.875  -0.928  28.962  0.00  0.00     0.087 A 
ATOM      4  C   UNL d   1      60.213  -1.817  28.695  0.00  0.00     0.068 A 
ATOM      5  C   UNL d   1      60.191  -1.028  28.455  0.00  0.00     0.014 A 
ATOM      6 CL   UNL d   1      59.603  -2.964  29.305  0.00  0.00    -0.081 Cl
ATOM      7  C   UNL d   1      59.522  -0.583  28.589  0.00  0.00     0.020 A 
ATOM      8 CL   UNL d   1      60.917  -2.289  28.555  0.00  0.00    -0.082 Cl
ENDROOT
BRANCH   3   9
ATOM      9  N   UNL d   1      58.163  -0.463  29.107  0.00  0.00    -0.190 NA
ATOM     10  C   UNL d   1      58.214   0.232  29.588  0.00  0.00     0.387 C 
ATOM     11  N   UNL d   1      58.931   0.451  29.905  0.00  0.00    -0.086 NA
ATOM     12  O   UNL d   1      57.529   0.678  29.727  0.00  0.00    -0.241 OA
BRANCH  11  13
ATOM     13  N   UNL d   1      59.599   0.008  29.764  0.00  0.00    -0.111 NA
BRANCH  13  14
ATOM     14  C   UNL d   1      60.335   0.218  30.092  0.00  0.00     0.260 C 
ATOM     15  S   UNL d   1      60.864   0.677  29.661  0.00  0.00    -0.034 SA
ATOM     16  N   UNL d   1      60.523  -0.040  30.857  0.00  0.00    -0.113 N 
ENDBRANCH  13  14
ENDBRANCH  11  13
ENDBRANCH   3   9
TORSDOF 3
ENDMDL
MODEL 5
REMARK VINA RESULT:      -0.8      1.953      2.382
REMARK  3 active torsions:
REMARK  status: ('A' for Active; 'I' for Inactive)
REMARK       I    between atoms: N_5  and  C_1 
REMARK       I    between atoms: N_6  and  C_1 
REMARK    1  A    between atoms: C_2  and  N_7 
REMARK    2  A    between atoms: C_9  and  N_5 
REMARK    3  A    between atoms: N_7  and  N_6 
ROOT
ATOM      1  C   UNL d   1      58.521   0.501  30.992  0.00  0.00     0.070 A 
ATOM      2  C   UNL d   1      59.226   0.661  30.590  0.00  0.00     0.032 A 
ATOM      3  C   UNL d   1      59.304   0.502  29.802  0.00  0.00     0.087 A 
ATOM      4  C   UNL d   1      57.899   0.174  30.557  0.00  0.00     0.068 A 
ATOM      5  C   UNL d   1      57.978   0.012  29.752  0.00  0.00     0.014 A 
ATOM      6 CL   UNL d   1      58.426   0.658  31.801  0.00  0.00    -0.081 Cl
ATOM      7  C   UNL d   1      58.681   0.177  29.374  0.00  0.00     0.020 A 
ATOM      8 CL   UNL d   1      57.158   0.001  30.959  0.00  0.00    -0.082 Cl
ENDROOT
BRANCH   3   9
ATOM      9  N   UNL d   1      60.051   0.679  29.409  0.00  0.00    -0.190 NA
ATOM     10  C   UNL d   1      60.415   0.086  28.928  0.00  0.00     0.387 C 
ATOM     11  N   UNL d   1      60.058  -0.641  28.844  0.00  0.00    -0.086 NA
ATOM     12  O   UNL d   1      61.133   0.256  28.551  0.00  0.00    -0.241 OA
BRANCH  11  13
ATOM     13  N   UNL d   1      59.353  -0.801  29.218  0.00  0.00    -0.111 NA
BRANCH  13  14
ATOM     14  C   UNL d   1      58.997  -1.552  29.167  0.00  0.00     0.260 C 
ATOM     15  S   UNL d   1      58.565  -1.761  28.498  0.00  0.00    -0.034 SA
ATOM     16  N   UNL d   1      59.086  -2.083  29.797  0.00  0.00    -0.113 N 
ENDBRANCH  13  14
ENDBRANCH  11  13
ENDBRANCH   3   9
TORSDOF 3
ENDMDL
MODEL 6
REMARK VINA RESULT:      -0.7      4.354      4.942
REMARK  3 active torsions:
REMARK  status: ('A' for Active; 'I' for Inactive)
REMARK       I    between atoms: N_5  and  C_1 
REMARK       I    between atoms: N_6  and  C_1 
REMARK    1  A    between atoms: C_2  and  N_7 
REMARK    2  A    between atoms: C_9  and  N_5 
REMARK    3  A    between atoms: N_7  and  N_6 
ROOT
ATOM      1  C   UNL d   1      57.480   0.676  34.320  0.00  0.00     0.070 A 
ATOM      2  C   UNL d   1      56.693   0.677  34.575  0.00  0.00     0.032 A 
ATOM      3  C   UNL d   1      56.081   0.680  34.047  0.00  0.00     0.087 A 
ATOM      4  C   UNL d   1      57.617   0.677  33.504  0.00  0.00     0.068 A 
ATOM      5  C   UNL d   1      56.992   0.680  32.965  0.00  0.00     0.014 A 
ATOM      6 CL   UNL d   1      58.118   0.673  34.849  0.00  0.00    -0.081 Cl
ATOM      7  C   UNL d   1      56.225   0.681  33.237  0.00  0.00     0.020 A 
ATOM      8 CL   UNL d   1      58.428   0.675  33.221  0.00  0.00    -0.082 Cl
ENDROOT
BRANCH   3   9
ATOM      9  N   UNL d   1      55.271   0.682  34.342  0.00  0.00    -0.190 NA
ATOM     10  C   UNL d   1      54.746   0.060  34.110  0.00  0.00     0.387 C 
ATOM     11  N   UNL d   1      55.011  -0.528  33.614  0.00  0.00    -0.086 NA
ATOM     12  O   UNL d   1      53.967   0.063  34.393  0.00  0.00    -0.241 OA
BRANCH  11  13
ATOM     13  N   UNL d   1      55.777  -0.524  33.339  0.00  0.00    -0.111 NA
BRANCH  13  14
ATOM     14  C   UNL d   1      56.074  -1.149  32.876  0.00  0.00     0.260 C 
ATOM     15  S   UNL d   1      56.061  -1.098  32.055  0.00  0.00    -0.034 SA
ATOM     16  N   UNL d   1      56.381  -1.819  33.255  0.00  0.00    -0.113 N 
ENDBRANCH  13  14
ENDBRANCH  11  13
ENDBRANCH   3   9
TORSDOF 3
ENDMDL
MODEL 7
REMARK VINA RESULT:      -0.2      4.182      5.219
REMARK  3 active torsions:
REMARK  status: ('A' for Active; 'I' for Inactive)
REMARK       I    between atoms: N_5  and  C_1 
REMARK       I    between atoms: N_6  and  C_1 
REMARK    1  A    between atoms: C_2  and  N_7 
REMARK    2  A    between atoms: C_9  and  N_5 
REMARK    3  A    between atoms: N_7  and  N_6 
ROOT
ATOM      1  C   UNL d   1      55.101   0.245  33.863  0.00  0.00     0.070 A 
ATOM      2  C   UNL d   1      55.842   0.457  34.163  0.00  0.00     0.032 A 
ATOM      3  C   UNL d   1      56.502   0.023  33.994  0.00  0.00     0.087 A 
ATOM      4  C   UNL d   1      55.061  -0.428  33.384  0.00  0.00     0.068 A 
ATOM      5  C   UNL d   1      55.735  -0.871  33.211  0.00  0.00     0.014 A 
ATOM      6 CL   UNL d   1      54.414   0.680  34.027  0.00  0.00    -0.081 Cl
ATOM      7  C   UNL d   1      56.455  -0.646  33.516  0.00  0.00     0.020 A 
ATOM      8 CL   UNL d   1      54.299  -0.664  33.063  0.00  0.00    -0.082 Cl
ENDROOT
BRANCH   3   9
ATOM      9  N   UNL d   1      57.262   0.268  34.321  0.00  0.00    -0.190 NA
ATOM     10  C   UNL d   1      57.901   0.440  33.794  0.00  0.00     0.387 C 
ATOM     11  N   UNL d   1      57.792   0.373  32.990  0.00  0.00    -0.086 NA
ATOM     12  O   UNL d   1      58.631   0.676  34.109  0.00  0.00    -0.241 OA
BRANCH  11  13
ATOM     13  N   UNL d   1      57.072   0.142  32.689  0.00  0.00    -0.111 NA
BRANCH  13  14
ATOM     14  C   UNL d   1      56.960   0.035  31.870  0.00  0.00     0.260 C 
ATOM     15  S   UNL d   1      56.711   0.664  31.401  0.00  0.00    -0.034 SA
ATOM     16  N   UNL d   1      57.104  -0.711  31.539  0.00  0.00    -0.113 N 
ENDBRANCH  13  14
ENDBRANCH  11  13
ENDBRANCH   3   9
TORSDOF 3
ENDMDL
MODEL 8
REMARK VINA RESULT:      -0.0      3.354      3.963
REMARK  3 active torsions:
REMARK  status: ('A' for Active; 'I' for Inactive)
REMARK       I    between atoms: N_5  and  C_1 
REMARK       I    between atoms: N_6  and  C_1 
REMARK    1  A    between atoms: C_2  and  N_7 
REMARK    2  A    between atoms: C_9  and  N_5 
REMARK    3  A    between atoms: N_7  and  N_6 
ROOT
ATOM      1  C   UNL d   1      57.986   0.143  31.371  0.00  0.00     0.070 A 
ATOM      2  C   UNL d   1      58.186   0.282  32.162  0.00  0.00     0.032 A 
ATOM      3  C   UNL d   1      57.637   0.545  32.693  0.00  0.00     0.087 A 
ATOM      4  C   UNL d   1      57.203   0.282  31.146  0.00  0.00     0.068 A 
ATOM      5  C   UNL d   1      56.642   0.550  31.689  0.00  0.00     0.014 A 
ATOM      6 CL   UNL d   1      58.537  -0.127  30.814  0.00  0.00    -0.081 Cl
ATOM      7  C   UNL d   1      56.860   0.682  32.462  0.00  0.00     0.020 A 
ATOM      8 CL   UNL d   1      56.976   0.143  30.328  0.00  0.00    -0.082 Cl
ENDROOT
BRANCH   3   9
ATOM      9  N   UNL d   1      57.875   0.682  33.511  0.00  0.00    -0.190 NA
ATOM     10  C   UNL d   1      57.414   0.348  34.137  0.00  0.00     0.387 C 
ATOM     11  N   UNL d   1      56.754  -0.095  33.960  0.00  0.00    -0.086 NA
ATOM     12  O   UNL d   1      57.643   0.480  34.922  0.00  0.00    -0.241 OA
BRANCH  11  13
ATOM     13  N   UNL d   1      56.535  -0.220  33.185  0.00  0.00    -0.111 NA
BRANCH  13  14
ATOM     14  C   UNL d   1      55.878  -0.694  32.993  0.00  0.00     0.260 C 
ATOM     15  S   UNL d   1      55.117  -0.439  33.174  0.00  0.00    -0.034 SA
ATOM     16  N   UNL d   1      56.004  -1.424  32.620  0.00  0.00    -0.113 N 
ENDBRANCH  13  14
ENDBRANCH  11  13
ENDBRANCH   3   9
TORSDOF 3
ENDMDL
MODEL 9
REMARK VINA RESULT:       0.2      2.702      3.597
REMARK  3 active torsions:
REMARK  status: ('A' for Active; 'I' for Inactive)
REMARK       I    between atoms: N_5  and  C_1 
REMARK       I    between atoms: N_6  and  C_1 
REMARK    1  A    between atoms: C_2  and  N_7 
REMARK    2  A    between atoms: C_9  and  N_5 
REMARK    3  A    between atoms: N_7  and  N_6 
ROOT
ATOM      1  C   UNL d   1      56.865  -0.761  31.845  0.00  0.00     0.070 A 
ATOM      2  C   UNL d   1      57.143  -0.714  31.067  0.00  0.00     0.032 A 
ATOM      3  C   UNL d   1      57.384  -0.012  30.749  0.00  0.00     0.087 A 
ATOM      4  C   UNL d   1      56.842  -0.061  32.284  0.00  0.00     0.068 A 
ATOM      5  C   UNL d   1      57.088   0.657  31.960  0.00  0.00     0.014 A 
ATOM      6 CL   UNL d   1      56.615  -1.474  32.185  0.00  0.00    -0.081 Cl
ATOM      7  C   UNL d   1      57.359   0.681  31.192  0.00  0.00     0.020 A 
ATOM      8 CL   UNL d   1      56.556  -0.090  33.095  0.00  0.00    -0.082 Cl
ENDROOT
BRANCH   3   9
ATOM      9  N   UNL d   1      57.669   0.007  29.935  0.00  0.00    -0.190 NA
ATOM     10  C   UNL d   1      58.456   0.276  29.780  0.00  0.00     0.387 C 
ATOM     11  N   UNL d   1      58.931   0.513  30.397  0.00  0.00    -0.086 NA
ATOM     12  O   UNL d   1      58.730   0.293  28.997  0.00  0.00    -0.241 OA
BRANCH  11  13
ATOM     13  N   UNL d   1      58.655   0.493  31.163  0.00  0.00    -0.111 NA
BRANCH  13  14
ATOM     14  C   UNL d   1      59.165   0.619  31.809  0.00  0.00     0.260 C 
ATOM     15  S   UNL d   1      59.977   0.678  31.690  0.00  0.00    -0.034 SA
ATOM     16  N   UNL d   1      58.842   0.682  32.570  0.00  0.00    -0.113 N 
ENDBRANCH  13  14
ENDBRANCH  11  13
ENDBRANCH   3   9
TORSDOF 3
ENDMDL
