MODEL 1
REMARK VINA RESULT:      40.0      0.000      0.000
REMARK  4 active torsions:
REMARK  status: ('A' for Active; 'I' for Inactive)
REMARK    1  A    between atoms: N_2  and  S_1 
REMARK    2  A    between atoms: C_5  and  S_1 
REMARK    3  A    between atoms: C_4  and  N_2 
REMARK    4  A    between atoms: C_7  and  C_3 
ROOT
ATOM      1  S   UNL d   1      24.007  12.305  -3.315  0.00  0.00     0.285 S 
ATOM      2  O   UNL d   1      23.308  12.775  -3.369  0.00  0.00    -0.198 OA
ATOM      3  O   UNL d   1      24.712  11.830  -3.264  0.00  0.00    -0.198 OA
ENDROOT
BRANCH   1   4
ATOM      4  N   UNL d   1      23.977  12.164  -4.146  0.00  0.00    -0.158 NA
BRANCH   4   5
ATOM      5  C   UNL d   1      24.182  12.765  -4.702  0.00  0.00     0.094 A 
ATOM      6  C   UNL d   1      24.539  12.565  -5.373  0.00  0.00     0.018 A 
ATOM      7  C   UNL d   1      24.760  13.116  -5.949  0.00  0.00     0.002 A 
ATOM      8  C   UNL d   1      24.679  11.788  -5.467  0.00  0.00     0.002 C 
ATOM      9  C   UNL d   1      24.590  13.937  -5.802  0.00  0.00     0.000 A 
ATOM     10  C   UNL d   1      24.226  14.095  -5.109  0.00  0.00     0.002 A 
ATOM     11  C   UNL d   1      24.766  14.557  -6.306  0.00  0.00     0.000 C 
ATOM     12  C   UNL d   1      24.002  13.546  -4.527  0.00  0.00     0.018 A 
ATOM     13  C   UNL d   1      23.638  13.773  -3.849  0.00  0.00     0.002 C 
ENDBRANCH   4   5
ENDBRANCH   1   4
BRANCH   1  14
ATOM     14  C   UNL d   1      24.035  12.449  -2.473  0.00  0.00     0.106 A 
ATOM     15  C   UNL d   1      23.320  12.656  -2.099  0.00  0.00     0.020 A 
ATOM     16  C   UNL d   1      23.330  12.799  -1.287  0.00  0.00     0.076 A 
ATOM     17  C   UNL d   1      24.030  12.739  -0.853  0.00  0.00     0.064 A 
ATOM     18  C   UNL d   1      24.733  12.534  -1.224  0.00  0.00     0.012 A 
ATOM     19 CL   UNL d   1      24.024  12.886  -0.032  0.00  0.00    -0.082 Cl
ATOM     20  C   UNL d   1      24.768  12.386  -2.019  0.00  0.00     0.014 A 
BRANCH  16  21
ATOM     21  C   UNL d   1      22.612  13.008  -0.908  0.00  0.00     0.212 C 
ATOM     22  O   UNL d   1      22.663  13.674  -0.448  0.00  0.00    -0.644 OA
ATOM     23  O   UNL d   1      21.907  12.533  -1.021  0.00  0.00    -0.644 OA
ENDBRANCH  16  21
ENDBRANCH   1  14
TORSDOF 4
ENDMDL
MODEL 2
REMARK VINA RESULT:      40.7      8.862     10.297
REMARK  4 active torsions:
REMARK  status: ('A' for Active; 'I' for Inactive)
REMARK    1  A    between atoms: N_2  and  S_1 
REMARK    2  A    between atoms: C_5  and  S_1 
REMARK    3  A    between atoms: C_4  and  N_2 
REMARK    4  A    between atoms: C_7  and  C_3 
ROOT
ATOM      1  S   UNL d   1      14.459  12.975  -0.795  0.00  0.00     0.285 S 
ATOM      2  O   UNL d   1      14.990  13.357  -1.328  0.00  0.00    -0.198 OA
ATOM      3  O   UNL d   1      13.926  12.593  -0.253  0.00  0.00    -0.198 OA
ENDROOT
BRANCH   1   4
ATOM      4  N   UNL d   1      14.896  13.281  -0.141  0.00  0.00    -0.158 NA
BRANCH   4   5
ATOM      5  C   UNL d   1      15.181  14.075  -0.136  0.00  0.00     0.094 A 
ATOM      6  C   UNL d   1      14.669  14.669  -0.071  0.00  0.00     0.018 A 
ATOM      7  C   UNL d   1      14.898  15.464  -0.061  0.00  0.00     0.002 A 
ATOM      8  C   UNL d   1      13.905  14.456  -0.015  0.00  0.00     0.002 C 
ATOM      9  C   UNL d   1      15.727  15.641  -0.124  0.00  0.00     0.000 A 
ATOM     10  C   UNL d   1      16.212  15.009  -0.187  0.00  0.00     0.002 A 
ATOM     11  C   UNL d   1      16.055  16.391  -0.123  0.00  0.00     0.000 C 
ATOM     12  C   UNL d   1      15.988  14.209  -0.198  0.00  0.00     0.018 A 
ATOM     13  C   UNL d   1      16.528  13.620  -0.265  0.00  0.00     0.002 C 
ENDBRANCH   4   5
ENDBRANCH   1   4
BRANCH   1  14
ATOM     14  C   UNL d   1      14.018  12.667  -1.459  0.00  0.00     0.106 A 
ATOM     15  C   UNL d   1      14.182  12.993  -2.207  0.00  0.00     0.020 A 
ATOM     16  C   UNL d   1      13.765  12.706  -2.859  0.00  0.00     0.076 A 
ATOM     17  C   UNL d   1      13.199  12.112  -2.773  0.00  0.00     0.064 A 
ATOM     18  C   UNL d   1      13.040  11.793  -2.035  0.00  0.00     0.012 A 
ATOM     19 CL   UNL d   1      12.786  11.832  -3.441  0.00  0.00    -0.082 Cl
ATOM     20  C   UNL d   1      13.426  12.044  -1.369  0.00  0.00     0.014 A 
BRANCH  16  21
ATOM     21  C   UNL d   1      13.928  13.033  -3.614  0.00  0.00     0.212 C 
ATOM     22  O   UNL d   1      14.464  12.606  -4.049  0.00  0.00    -0.644 OA
ATOM     23  O   UNL d   1      13.542  13.754  -3.868  0.00  0.00    -0.644 OA
ENDBRANCH  16  21
ENDBRANCH   1  14
TORSDOF 4
ENDMDL
MODEL 3
REMARK VINA RESULT:      41.1      9.142     10.006
REMARK  4 active torsions:
REMARK  status: ('A' for Active; 'I' for Inactive)
REMARK    1  A    between atoms: N_2  and  S_1 
REMARK    2  A    between atoms: C_5  and  S_1 
REMARK    3  A    between atoms: C_4  and  N_2 
REMARK    4  A    between atoms: C_7  and  C_3 
ROOT
ATOM      1  S   UNL d   1      14.676  12.904  -1.378  0.00  0.00     0.285 S 
ATOM      2  O   UNL d   1      14.618  13.233  -2.152  0.00  0.00    -0.198 OA
ATOM      3  O   UNL d   1      14.735  12.567  -0.598  0.00  0.00    -0.198 OA
ENDROOT
BRANCH   1   4
ATOM      4  N   UNL d   1      14.494  12.141  -1.688  0.00  0.00    -0.158 NA
BRANCH   4   5
ATOM      5  C   UNL d   1      14.047  12.050  -2.398  0.00  0.00     0.094 A 
ATOM      6  C   UNL d   1      13.262  12.106  -2.369  0.00  0.00     0.018 A 
ATOM      7  C   UNL d   1      12.780  12.025  -3.036  0.00  0.00     0.002 A 
ATOM      8  C   UNL d   1      12.956  12.247  -1.649  0.00  0.00     0.002 C 
ATOM      9  C   UNL d   1      13.155  11.875  -3.785  0.00  0.00     0.000 A 
ATOM     10  C   UNL d   1      13.952  11.825  -3.768  0.00  0.00     0.002 A 
ATOM     11  C   UNL d   1      12.769  11.779  -4.500  0.00  0.00     0.000 C 
ATOM     12  C   UNL d   1      14.442  11.906  -3.101  0.00  0.00     0.018 A 
ATOM     13  C   UNL d   1      15.240  11.845  -3.154  0.00  0.00     0.002 C 
ENDBRANCH   4   5
ENDBRANCH   1   4
BRANCH   1  14
ATOM     14  C   UNL d   1      14.861  13.678  -1.065  0.00  0.00     0.106 A 
ATOM     15  C   UNL d   1      14.769  14.326  -1.580  0.00  0.00     0.020 A 
ATOM     16  C   UNL d   1      14.942  15.080  -1.295  0.00  0.00     0.076 A 
ATOM     17  C   UNL d   1      15.201  15.192  -0.519  0.00  0.00     0.064 A 
ATOM     18  C   UNL d   1      15.291  14.551  -0.014  0.00  0.00     0.012 A 
ATOM     19 CL   UNL d   1      15.373  15.960  -0.245  0.00  0.00    -0.082 Cl
ATOM     20  C   UNL d   1      15.132  13.795  -0.254  0.00  0.00     0.014 A 
BRANCH  16  21
ATOM     21  C   UNL d   1      14.850  15.735  -1.810  0.00  0.00     0.212 C 
ATOM     22  O   UNL d   1      14.232  16.223  -1.617  0.00  0.00    -0.644 OA
ATOM     23  O   UNL d   1      15.383  15.844  -2.472  0.00  0.00    -0.644 OA
ENDBRANCH  16  21
ENDBRANCH   1  14
TORSDOF 4
ENDMDL
MODEL 4
REMARK VINA RESULT:      41.7      9.554     10.825
REMARK  4 active torsions:
REMARK  status: ('A' for Active; 'I' for Inactive)
REMARK    1  A    between atoms: N_2  and  S_1 
REMARK    2  A    between atoms: C_5  and  S_1 
REMARK    3  A    between atoms: C_4  and  N_2 
REMARK    4  A    between atoms: C_7  and  C_3 
ROOT
ATOM      1  S   UNL d   1      13.242  12.492  -2.513  0.00  0.00     0.285 S 
ATOM      2  O   UNL d   1      13.289  13.187  -2.038  0.00  0.00    -0.198 OA
ATOM      3  O   UNL d   1      13.195  11.787  -2.989  0.00  0.00    -0.198 OA
ENDROOT
BRANCH   1   4
ATOM      4  N   UNL d   1      13.270  12.014  -1.818  0.00  0.00    -0.158 NA
BRANCH   4   5
ATOM      5  C   UNL d   1      13.971  11.955  -1.353  0.00  0.00     0.094 A 
ATOM      6  C   UNL d   1      13.912  11.876  -0.572  0.00  0.00     0.018 A 
ATOM      7  C   UNL d   1      14.569  11.813  -0.074  0.00  0.00     0.002 A 
ATOM      8  C   UNL d   1      13.170  11.859  -0.286  0.00  0.00     0.002 C 
ATOM      9  C   UNL d   1      15.342  11.836  -0.427  0.00  0.00     0.000 A 
ATOM     10  C   UNL d   1      15.356  11.917  -1.222  0.00  0.00     0.002 A 
ATOM     11  C   UNL d   1      16.052  11.783  -0.024  0.00  0.00     0.000 C 
ATOM     12  C   UNL d   1      14.700  11.980  -1.728  0.00  0.00     0.018 A 
ATOM     13  C   UNL d   1      14.785  12.060  -2.522  0.00  0.00     0.002 C 
ENDBRANCH   4   5
ENDBRANCH   1   4
BRANCH   1  14
ATOM     14  C   UNL d   1      13.215  12.977  -3.216  0.00  0.00     0.106 A 
ATOM     15  C   UNL d   1      13.578  13.725  -3.174  0.00  0.00     0.020 A 
ATOM     16  C   UNL d   1      13.561  14.206  -3.844  0.00  0.00     0.076 A 
ATOM     17  C   UNL d   1      13.193  13.955  -4.538  0.00  0.00     0.064 A 
ATOM     18  C   UNL d   1      12.835  13.218  -4.577  0.00  0.00     0.012 A 
ATOM     19 CL   UNL d   1      13.183  14.453  -5.208  0.00  0.00    -0.082 Cl
ATOM     20  C   UNL d   1      12.829  12.714  -3.943  0.00  0.00     0.014 A 
BRANCH  16  21
ATOM     21  C   UNL d   1      13.926  14.960  -3.806  0.00  0.00     0.212 C 
ATOM     22  O   UNL d   1      14.019  15.319  -4.527  0.00  0.00    -0.644 OA
ATOM     23  O   UNL d   1      14.167  15.288  -3.051  0.00  0.00    -0.644 OA
ENDBRANCH  16  21
ENDBRANCH   1  14
TORSDOF 4
ENDMDL
