MODEL 1
REMARK VINA RESULT:      45.8      0.000      0.000
REMARK  6 active torsions:
REMARK  status: ('A' for Active; 'I' for Inactive)
REMARK    1  A    between atoms: C_10  and  N_3 
REMARK    2  A    between atoms: C_11  and  N_8 
REMARK    3  A    between atoms: C_12  and  C_11 
REMARK    4  A    between atoms: O_15  and  C_12 
REMARK    5  A    between atoms: C_18  and  O_15 
REMARK    6  A    between atoms: C_22  and  C_18 
ROOT
ATOM      1  C   UNL d   1      44.886 -13.892  43.792  0.00  0.00     0.191 A 
ATOM      2  C   UNL d   1      45.619 -13.853  44.183  0.00  0.00     0.196 A 
ATOM      3  N   UNL d   1      44.737 -13.142  43.473  0.00  0.00    -0.193 N 
ATOM      4  N   UNL d   1      45.365 -12.659  43.666  0.00  0.00    -0.058 NA
ATOM      5  N   UNL d   1      45.905 -13.081  44.097  0.00  0.00    -0.122 NA
ATOM      6  N   UNL d   1      44.468 -14.593  43.784  0.00  0.00    -0.204 NA
ATOM      7  C   UNL d   1      45.913 -14.517  44.556  0.00  0.00     0.289 A 
ATOM      8  N   UNL d   1      45.495 -15.226  44.550  0.00  0.00    -0.249 N 
ATOM      9  C   UNL d   1      44.762 -15.264  44.158  0.00  0.00     0.187 A 
ATOM     10  O   UNL d   1      46.646 -14.479  44.947  0.00  0.00    -0.265 OA
ENDROOT
BRANCH   8  11
ATOM     11  C   UNL d   1      45.788 -15.905  44.926  0.00  0.00     0.153 C 
BRANCH  11  12
ATOM     12  C   UNL d   1      45.556 -16.660  44.672  0.00  0.00     0.318 C 
ATOM     13  O   UNL d   1      44.773 -16.902  44.764  0.00  0.00    -0.257 OA
BRANCH  12  14
ATOM     14  O   UNL d   1      46.110 -17.159  44.331  0.00  0.00    -0.270 OA
BRANCH  14  15
ATOM     15  C   UNL d   1      46.225 -17.919  44.634  0.00  0.00     0.126 C 
BRANCH  15  16
ATOM     16  C   UNL d   1      46.353 -18.540  44.128  0.00  0.00     0.025 A 
ATOM     17  C   UNL d   1      46.487 -19.297  44.432  0.00  0.00     0.002 A 
ATOM     18  C   UNL d   1      46.619 -19.935  43.923  0.00  0.00     0.000 A 
ATOM     19  C   UNL d   1      46.615 -19.808  43.109  0.00  0.00     0.000 A 
ATOM     20  C   UNL d   1      46.482 -19.051  42.803  0.00  0.00     0.000 A 
ATOM     21  C   UNL d   1      46.352 -18.421  43.312  0.00  0.00     0.002 A 
ENDBRANCH  15  16
ENDBRANCH  14  15
ENDBRANCH  12  14
ENDBRANCH  11  12
ENDBRANCH   8  11
BRANCH   3  22
ATOM     22  C   UNL d   1      44.102 -12.891  43.044  0.00  0.00     0.086 A 
ATOM     23  C   UNL d   1      44.213 -12.531  42.294  0.00  0.00     0.019 A 
ATOM     24  C   UNL d   1      43.570 -12.282  41.870  0.00  0.00     0.002 A 
ATOM     25  C   UNL d   1      42.792 -12.382  42.173  0.00  0.00     0.000 A 
ATOM     26  C   UNL d   1      42.693 -12.731  42.899  0.00  0.00     0.002 A 
ATOM     27  C   UNL d   1      42.118 -12.123  41.732  0.00  0.00     0.000 C 
ATOM     28  C   UNL d   1      43.337 -12.988  43.339  0.00  0.00     0.019 A 
ENDBRANCH   3  22
TORSDOF 6
ENDMDL
