MODEL 1
REMARK VINA RESULT:     -11.2      0.000      0.000
REMARK  4 active torsions:
REMARK  status: ('A' for Active; 'I' for Inactive)
REMARK       I    between atoms: C_2  and  N_1 
REMARK       I    between atoms: N_8  and  C_2 
REMARK    1  A    between atoms: C_14  and  N_8 
REMARK    2  A    between atoms: C_15  and  N_8 
REMARK    3  A    between atoms: C_17  and  C_14 
REMARK    4  A    between atoms: C_16  and  C_15 
ROOT
ATOM      1  N   UNL d   1      52.934  32.579  53.503  0.00  0.00    -0.259 N 
ATOM      2  C   UNL d   1      52.368  33.002  53.079  0.00  0.00     0.339 C 
ATOM      3  S   UNL d   1      54.074  31.735  54.360  0.00  0.00    -0.084 SA
ATOM      4  C   UNL d   1      53.028  31.769  53.386  0.00  0.00     0.074 A 
ATOM      5  C   UNL d   1      53.414  32.974  54.054  0.00  0.00     0.074 A 
ATOM      6  C   UNL d   1      53.592  31.339  53.807  0.00  0.00     0.046 A 
ATOM      7  C   UNL d   1      53.981  32.545  54.478  0.00  0.00     0.046 A 
ATOM      8  N   UNL d   1      52.274  33.813  53.196  0.00  0.00    -0.258 N 
ATOM      9  O   UNL d   1      51.886  32.610  52.527  0.00  0.00    -0.245 OA
ATOM     10  C   UNL d   1      52.547  31.375  52.835  0.00  0.00     0.018 A 
ATOM     11  C   UNL d   1      53.327  33.776  54.176  0.00  0.00     0.018 A 
ATOM     12  C   UNL d   1      54.461  32.932  55.026  0.00  0.00     0.008 A 
ATOM     13  C   UNL d   1      53.692  30.533  53.697  0.00  0.00     0.008 A 
ATOM     14  C   UNL d   1      53.807  34.170  54.726  0.00  0.00     0.002 A 
ATOM     15  C   UNL d   1      52.646  30.568  52.724  0.00  0.00     0.002 A 
ATOM     16  C   UNL d   1      53.205  30.148  53.143  0.00  0.00     0.001 A 
ATOM     17  C   UNL d   1      54.368  33.743  55.144  0.00  0.00     0.001 A 
ENDROOT
BRANCH   8  18
ATOM     18  C   UNL d   1      52.756  34.207  53.748  0.00  0.00     0.085 C 
BRANCH  18  19
ATOM     19  C   UNL d   1      52.931  34.992  53.627  0.00  0.00     0.019 C 
ATOM     20  C   UNL d   1      52.693  35.542  54.195  0.00  0.00     0.002 C 
ENDBRANCH  18  19
ENDBRANCH   8  18
BRANCH   8  21
ATOM     21  C   UNL d   1      51.707  34.228  52.768  0.00  0.00     0.085 C 
BRANCH  21  22
ATOM     22  C   UNL d   1      50.897  34.097  52.908  0.00  0.00     0.019 C 
ATOM     23  C   UNL d   1      50.333  34.459  52.446  0.00  0.00     0.002 C 
ENDBRANCH  21  22
ENDBRANCH   8  21
TORSDOF 4
ENDMDL
MODEL 2
REMARK VINA RESULT:     -10.4      1.063      2.539
REMARK  4 active torsions:
REMARK  status: ('A' for Active; 'I' for Inactive)
REMARK       I    between atoms: C_2  and  N_1 
REMARK       I    between atoms: N_8  and  C_2 
REMARK    1  A    between atoms: C_14  and  N_8 
REMARK    2  A    between atoms: C_15  and  N_8 
REMARK    3  A    between atoms: C_17  and  C_14 
REMARK    4  A    between atoms: C_16  and  C_15 
ROOT
ATOM      1  N   UNL d   1      53.151  32.593  53.761  0.00  0.00    -0.259 N 
ATOM      2  C   UNL d   1      53.696  32.857  54.321  0.00  0.00     0.339 C 
ATOM      3  S   UNL d   1      52.055  32.068  52.635  0.00  0.00    -0.084 SA
ATOM      4  C   UNL d   1      53.124  31.798  53.544  0.00  0.00     0.074 A 
ATOM      5  C   UNL d   1      52.626  33.134  53.414  0.00  0.00     0.074 A 
ATOM      6  C   UNL d   1      52.583  31.527  52.985  0.00  0.00     0.046 A 
ATOM      7  C   UNL d   1      52.080  32.863  52.851  0.00  0.00     0.046 A 
ATOM      8  N   UNL d   1      53.723  33.652  54.538  0.00  0.00    -0.258 N 
ATOM      9  O   UNL d   1      54.223  32.319  54.670  0.00  0.00    -0.245 OA
ATOM     10  C   UNL d   1      53.651  31.259  53.893  0.00  0.00     0.018 A 
ATOM     11  C   UNL d   1      52.646  33.922  53.623  0.00  0.00     0.018 A 
ATOM     12  C   UNL d   1      51.555  33.395  52.503  0.00  0.00     0.008 A 
ATOM     13  C   UNL d   1      52.549  30.739  52.763  0.00  0.00     0.008 A 
ATOM     14  C   UNL d   1      52.120  34.461  53.275  0.00  0.00     0.002 A 
ATOM     15  C   UNL d   1      53.619  30.470  53.672  0.00  0.00     0.002 A 
ATOM     16  C   UNL d   1      53.081  30.207  53.118  0.00  0.00     0.001 A 
ATOM     17  C   UNL d   1      51.581  34.191  52.719  0.00  0.00     0.001 A 
ENDROOT
BRANCH   8  18
ATOM     18  C   UNL d   1      53.195  34.193  54.189  0.00  0.00     0.085 C 
BRANCH  18  19
ATOM     19  C   UNL d   1      52.954  34.840  54.618  0.00  0.00     0.019 C 
ATOM     20  C   UNL d   1      53.195  35.590  54.370  0.00  0.00     0.002 C 
ENDBRANCH  18  19
ENDBRANCH   8  18
BRANCH   8  21
ATOM     21  C   UNL d   1      54.270  33.908  55.098  0.00  0.00     0.085 C 
BRANCH  21  22
ATOM     22  C   UNL d   1      55.084  33.806  54.965  0.00  0.00     0.019 C 
ATOM     23  C   UNL d   1      55.628  34.053  55.518  0.00  0.00     0.002 C 
ENDBRANCH  21  22
ENDBRANCH   8  21
TORSDOF 4
ENDMDL
MODEL 3
REMARK VINA RESULT:      -9.0      1.019      3.036
REMARK  4 active torsions:
REMARK  status: ('A' for Active; 'I' for Inactive)
REMARK       I    between atoms: C_2  and  N_1 
REMARK       I    between atoms: N_8  and  C_2 
REMARK    1  A    between atoms: C_14  and  N_8 
REMARK    2  A    between atoms: C_15  and  N_8 
REMARK    3  A    between atoms: C_17  and  C_14 
REMARK    4  A    between atoms: C_16  and  C_15 
ROOT
ATOM      1  N   UNL d   1      52.304  33.359  53.306  0.00  0.00    -0.259 N 
ATOM      2  C   UNL d   1      52.510  32.602  53.053  0.00  0.00     0.339 C 
ATOM      3  S   UNL d   1      51.894  34.881  53.817  0.00  0.00    -0.084 SA
ATOM      4  C   UNL d   1      51.605  33.712  53.048  0.00  0.00     0.074 A 
ATOM      5  C   UNL d   1      52.805  33.769  53.825  0.00  0.00     0.074 A 
ATOM      6  C   UNL d   1      51.392  34.468  53.296  0.00  0.00     0.046 A 
ATOM      7  C   UNL d   1      52.593  34.530  54.076  0.00  0.00     0.046 A 
ATOM      8  N   UNL d   1      53.209  32.249  53.312  0.00  0.00    -0.258 N 
ATOM      9  O   UNL d   1      52.011  32.189  52.534  0.00  0.00    -0.245 OA
ATOM     10  C   UNL d   1      51.104  33.300  52.528  0.00  0.00     0.018 A 
ATOM     11  C   UNL d   1      53.499  33.427  54.085  0.00  0.00     0.018 A 
ATOM     12  C   UNL d   1      53.087  34.943  54.592  0.00  0.00     0.008 A 
ATOM     13  C   UNL d   1      50.699  34.827  53.045  0.00  0.00     0.008 A 
ATOM     14  C   UNL d   1      53.999  33.839  54.604  0.00  0.00     0.002 A 
ATOM     15  C   UNL d   1      50.410  33.657  52.276  0.00  0.00     0.002 A 
ATOM     16  C   UNL d   1      50.205  34.405  52.524  0.00  0.00     0.001 A 
ATOM     17  C   UNL d   1      53.787  34.591  54.851  0.00  0.00     0.001 A 
ENDROOT
BRANCH   8  18
ATOM     18  C   UNL d   1      53.711  32.662  53.832  0.00  0.00     0.085 C 
BRANCH  18  19
ATOM     19  C   UNL d   1      54.432  32.338  54.022  0.00  0.00     0.019 C 
ATOM     20  C   UNL d   1      55.102  32.603  53.617  0.00  0.00     0.002 C 
ENDBRANCH  18  19
ENDBRANCH   8  18
BRANCH   8  21
ATOM     21  C   UNL d   1      53.409  31.493  53.055  0.00  0.00     0.085 C 
BRANCH  21  22
ATOM     22  C   UNL d   1      52.999  30.830  53.345  0.00  0.00     0.019 C 
ATOM     23  C   UNL d   1      53.179  30.083  53.080  0.00  0.00     0.002 C 
ENDBRANCH  21  22
ENDBRANCH   8  21
TORSDOF 4
ENDMDL
MODEL 4
REMARK VINA RESULT:      -8.4      1.140      3.227
REMARK  4 active torsions:
REMARK  status: ('A' for Active; 'I' for Inactive)
REMARK       I    between atoms: C_2  and  N_1 
REMARK       I    between atoms: N_8  and  C_2 
REMARK    1  A    between atoms: C_14  and  N_8 
REMARK    2  A    between atoms: C_15  and  N_8 
REMARK    3  A    between atoms: C_17  and  C_14 
REMARK    4  A    between atoms: C_16  and  C_15 
ROOT
ATOM      1  N   UNL d   1      53.299  33.160  54.046  0.00  0.00    -0.259 N 
ATOM      2  C   UNL d   1      53.235  32.345  53.942  0.00  0.00     0.339 C 
ATOM      3  S   UNL d   1      53.424  34.799  54.250  0.00  0.00    -0.084 SA
ATOM      4  C   UNL d   1      53.898  33.477  54.515  0.00  0.00     0.074 A 
ATOM      5  C   UNL d   1      52.756  33.665  53.673  0.00  0.00     0.074 A 
ATOM      6  C   UNL d   1      53.969  34.292  54.623  0.00  0.00     0.046 A 
ATOM      7  C   UNL d   1      52.825  34.484  53.780  0.00  0.00     0.046 A 
ATOM      8  N   UNL d   1      52.636  32.027  53.473  0.00  0.00    -0.258 N 
ATOM      9  O   UNL d   1      53.777  31.836  54.313  0.00  0.00    -0.245 OA
ATOM     10  C   UNL d   1      54.441  32.970  54.887  0.00  0.00     0.018 A 
ATOM     11  C   UNL d   1      52.160  33.359  53.207  0.00  0.00     0.018 A 
ATOM     12  C   UNL d   1      52.288  34.991  53.413  0.00  0.00     0.008 A 
ATOM     13  C   UNL d   1      54.561  34.616  55.088  0.00  0.00     0.008 A 
ATOM     14  C   UNL d   1      51.618  33.865  52.835  0.00  0.00     0.002 A 
ATOM     15  C   UNL d   1      55.034  33.293  55.352  0.00  0.00     0.002 A 
ATOM     16  C   UNL d   1      55.099  34.099  55.456  0.00  0.00     0.001 A 
ATOM     17  C   UNL d   1      51.688  34.674  52.943  0.00  0.00     0.001 A 
ENDROOT
BRANCH   8  18
ATOM     18  C   UNL d   1      52.092  32.535  53.100  0.00  0.00     0.085 C 
BRANCH  18  19
ATOM     19  C   UNL d   1      51.471  32.211  52.687  0.00  0.00     0.019 C 
ATOM     20  C   UNL d   1      50.740  32.139  53.064  0.00  0.00     0.002 C 
ENDBRANCH  18  19
ENDBRANCH   8  18
BRANCH   8  21
ATOM     21  C   UNL d   1      52.578  31.212  53.374  0.00  0.00     0.085 C 
BRANCH  21  22
ATOM     22  C   UNL d   1      53.154  30.800  52.938  0.00  0.00     0.019 C 
ATOM     23  C   UNL d   1      53.150  29.987  52.911  0.00  0.00     0.002 C 
ENDBRANCH  21  22
ENDBRANCH   8  21
TORSDOF 4
ENDMDL
