MODEL 1
REMARK VINA RESULT:      -5.1      0.000      0.000
REMARK  5 active torsions:
REMARK  status: ('A' for Active; 'I' for Inactive)
REMARK    1  A    between atoms: N_2  and  S_1 
REMARK    2  A    between atoms: C_5  and  S_1 
REMARK    3  A    between atoms: C_3  and  N_2 
REMARK    4  A    between atoms: C_4  and  C_3 
REMARK       I    between atoms: N_8  and  C_4 
REMARK    5  A    between atoms: C_12  and  N_8 
ROOT
ATOM      1  N   UNL d   1      58.029   0.129  30.650  0.00  0.00    -0.223 N 
ATOM      2  C   UNL d   1      58.467   0.682  31.082  0.00  0.00     0.112 C 
ENDROOT
BRANCH   1   3
ATOM      3  S   UNL d   1      58.138   0.074  29.835  0.00  0.00     0.272 S 
ATOM      4  O   UNL d   1      57.631   0.477  29.322  0.00  0.00    -0.200 OA
ATOM      5  O   UNL d   1      58.521  -0.239  30.493  0.00  0.00    -0.200 OA
BRANCH   3   6
ATOM      6  C   UNL d   1      58.755  -0.384  29.527  0.00  0.00     0.104 A 
ATOM      7  C   UNL d   1      59.516  -0.068  29.457  0.00  0.00     0.013 A 
ATOM      8  C   UNL d   1      60.130  -0.535  29.147  0.00  0.00     0.001 A 
ATOM      9  C   UNL d   1      59.982  -1.311  28.909  0.00  0.00     0.000 A 
ATOM     10  C   UNL d   1      59.221  -1.627  28.979  0.00  0.00     0.001 A 
ATOM     11  C   UNL d   1      60.594  -1.770  28.602  0.00  0.00     0.000 C 
ATOM     12  C   UNL d   1      58.609  -1.167  29.286  0.00  0.00     0.013 A 
ENDBRANCH   3   6
ENDBRANCH   1   3
BRANCH   1  13
ATOM     13  C   UNL d   1      57.490  -0.362  31.035  0.00  0.00     0.154 C 
BRANCH  13  14
ATOM     14  C   UNL d   1      56.992  -0.051  31.615  0.00  0.00     0.298 C 
ATOM     15  N   UNL d   1      56.875  -0.468  32.319  0.00  0.00    -0.207 NA
ATOM     16  O   UNL d   1      56.614   0.674  31.491  0.00  0.00    -0.264 OA
BRANCH  15  17
ATOM     17  C   UNL d   1      56.377  -0.158  32.899  0.00  0.00     0.085 A 
ATOM     18  C   UNL d   1      56.673   0.364  33.457  0.00  0.00     0.019 A 
ATOM     19  C   UNL d   1      56.176   0.675  34.037  0.00  0.00     0.002 A 
ATOM     20  C   UNL d   1      55.380   0.459  34.054  0.00  0.00     0.000 A 
ATOM     21  C   UNL d   1      55.085  -0.068  33.490  0.00  0.00     0.002 A 
ATOM     22  C   UNL d   1      55.585  -0.373  32.915  0.00  0.00     0.019 A 
ENDBRANCH  15  17
ENDBRANCH  13  14
ENDBRANCH   1  13
TORSDOF 5
ENDMDL
MODEL 2
REMARK VINA RESULT:      -4.9      1.042      4.884
REMARK  5 active torsions:
REMARK  status: ('A' for Active; 'I' for Inactive)
REMARK    1  A    between atoms: N_2  and  S_1 
REMARK    2  A    between atoms: C_5  and  S_1 
REMARK    3  A    between atoms: C_3  and  N_2 
REMARK    4  A    between atoms: C_4  and  C_3 
REMARK       I    between atoms: N_8  and  C_4 
REMARK    5  A    between atoms: C_12  and  N_8 
ROOT
ATOM      1  N   UNL d   1      57.327  -0.068  31.611  0.00  0.00    -0.223 N 
ATOM      2  C   UNL d   1      57.878   0.325  32.086  0.00  0.00     0.112 C 
ENDROOT
BRANCH   1   3
ATOM      3  S   UNL d   1      56.750  -0.538  31.965  0.00  0.00     0.272 S 
ATOM      4  O   UNL d   1      56.633  -1.314  31.707  0.00  0.00    -0.200 OA
ATOM      5  O   UNL d   1      57.014   0.234  32.073  0.00  0.00    -0.200 OA
BRANCH   3   6
ATOM      6  C   UNL d   1      56.286  -0.236  32.580  0.00  0.00     0.104 A 
ATOM      7  C   UNL d   1      56.377  -0.520  33.351  0.00  0.00     0.013 A 
ATOM      8  C   UNL d   1      55.907  -0.210  33.964  0.00  0.00     0.001 A 
ATOM      9  C   UNL d   1      55.351   0.378  33.803  0.00  0.00     0.000 A 
ATOM     10  C   UNL d   1      55.259   0.662  33.032  0.00  0.00     0.001 A 
ATOM     11  C   UNL d   1      54.886   0.682  34.413  0.00  0.00     0.000 C 
ATOM     12  C   UNL d   1      55.724   0.357  32.422  0.00  0.00     0.013 A 
ENDBRANCH   3   6
ENDBRANCH   1   3
BRANCH   1  13
ATOM     13  C   UNL d   1      57.357   0.011  30.791  0.00  0.00     0.154 C 
BRANCH  13  14
ATOM     14  C   UNL d   1      58.086   0.056  30.408  0.00  0.00     0.298 C 
ATOM     15  N   UNL d   1      58.135  -0.110  29.599  0.00  0.00    -0.207 NA
ATOM     16  O   UNL d   1      58.765   0.264  30.833  0.00  0.00    -0.264 OA
BRANCH  15  17
ATOM     17  C   UNL d   1      58.865  -0.065  29.217  0.00  0.00     0.085 A 
ATOM     18  C   UNL d   1      59.087   0.626  28.837  0.00  0.00     0.019 A 
ATOM     19  C   UNL d   1      59.817   0.670  28.455  0.00  0.00     0.002 A 
ATOM     20  C   UNL d   1      60.322   0.018  28.455  0.00  0.00     0.000 A 
ATOM     21  C   UNL d   1      60.093  -0.678  28.840  0.00  0.00     0.002 A 
ATOM     22  C   UNL d   1      59.366  -0.716  29.218  0.00  0.00     0.019 A 
ENDBRANCH  15  17
ENDBRANCH  13  14
ENDBRANCH   1  13
TORSDOF 5
ENDMDL
