MODEL 1
REMARK VINA RESULT:      -7.8      0.000      0.000
REMARK  6 active torsions:
REMARK  status: ('A' for Active; 'I' for Inactive)
REMARK    1  A    between atoms: C_5  and  N_1 
REMARK    2  A    between atoms: C_7  and  C_5 
REMARK    3  A    between atoms: O_14  and  C_10 
REMARK    4  A    between atoms: C_18  and  O_14 
REMARK    5  A    between atoms: C_19  and  C_18 
REMARK    6  A    between atoms: C_20  and  C_19 
ROOT
ATOM      1  C   UNL d   1     -48.279  13.373  22.240  0.00  0.00     0.087 C 
ENDROOT
BRANCH   1   2
ATOM      2  N   UNL d   1     -49.065  13.491  22.014  0.00  0.00    -0.251 N 
ATOM      3  C   UNL d   1     -49.515  13.056  21.472  0.00  0.00     0.378 A 
ATOM      4  O   UNL d   1     -50.269  13.396  21.441  0.00  0.00    -0.258 OA
ATOM      5  O   UNL d   1     -49.263  12.403  21.041  0.00  0.00    -0.237 OA
ATOM      6  C   UNL d   1     -50.282  14.038  21.962  0.00  0.00     0.121 A 
ATOM      7  C   UNL d   1     -49.538  14.097  22.316  0.00  0.00     0.092 A 
ATOM      8  C   UNL d   1     -50.871  14.584  22.166  0.00  0.00     0.026 A 
ATOM      9  C   UNL d   1     -49.381  14.688  22.865  0.00  0.00     0.020 A 
ATOM     10  C   UNL d   1     -49.968  15.226  23.065  0.00  0.00     0.002 A 
ATOM     11  C   UNL d   1     -50.715  15.174  22.714  0.00  0.00     0.002 A 
ATOM     12  C   UNL d   1     -49.812  15.819  23.615  0.00  0.00     0.000 C 
ENDBRANCH   1   2
BRANCH   1  13
ATOM     13  C   UNL d   1     -48.077  12.736  22.728  0.00  0.00     0.041 A 
ATOM     14  C   UNL d   1     -47.297  12.543  22.846  0.00  0.00     0.102 A 
ATOM     15  C   UNL d   1     -47.098  11.913  23.328  0.00  0.00     0.025 A 
ATOM     16  C   UNL d   1     -47.689  11.473  23.697  0.00  0.00     0.002 A 
ATOM     17  C   UNL d   1     -48.480  11.670  23.577  0.00  0.00     0.000 A 
ATOM     18  C   UNL d   1     -48.675  12.306  23.089  0.00  0.00     0.004 A 
BRANCH  14  19
ATOM     19  O   UNL d   1     -46.700  12.981  22.478  0.00  0.00    -0.305 OA
BRANCH  19  20
ATOM     20  C   UNL d   1     -45.908  12.838  22.659  0.00  0.00     0.123 C 
BRANCH  20  21
ATOM     21  C   UNL d   1     -45.315  13.221  22.245  0.00  0.00     0.027 C 
BRANCH  21  22
ATOM     22  C   UNL d   1     -44.704  12.790  21.900  0.00  0.00     0.002 C 
ATOM     23  C   UNL d   1     -44.044  13.178  21.586  0.00  0.00     0.000 C 
ENDBRANCH  21  22
ENDBRANCH  20  21
ENDBRANCH  19  20
ENDBRANCH  14  19
ENDBRANCH   1  13
TORSDOF 6
ENDMDL
MODEL 2
REMARK VINA RESULT:      -7.4      1.486      1.993
REMARK  6 active torsions:
REMARK  status: ('A' for Active; 'I' for Inactive)
REMARK    1  A    between atoms: C_5  and  N_1 
REMARK    2  A    between atoms: C_7  and  C_5 
REMARK    3  A    between atoms: O_14  and  C_10 
REMARK    4  A    between atoms: C_18  and  O_14 
REMARK    5  A    between atoms: C_19  and  C_18 
REMARK    6  A    between atoms: C_20  and  C_19 
ROOT
ATOM      1  C   UNL d   1     -48.037  12.667  22.569  0.00  0.00     0.087 C 
ENDROOT
BRANCH   1   2
ATOM      2  N   UNL d   1     -48.626  12.816  22.011  0.00  0.00    -0.251 N 
ATOM      3  C   UNL d   1     -48.552  12.884  21.189  0.00  0.00     0.378 A 
ATOM      4  O   UNL d   1     -49.304  13.035  20.879  0.00  0.00    -0.258 OA
ATOM      5  O   UNL d   1     -47.856  12.814  20.755  0.00  0.00    -0.237 OA
ATOM      6  C   UNL d   1     -49.840  13.061  21.508  0.00  0.00     0.121 A 
ATOM      7  C   UNL d   1     -49.421  12.925  22.208  0.00  0.00     0.092 A 
ATOM      8  C   UNL d   1     -50.658  13.189  21.545  0.00  0.00     0.026 A 
ATOM      9  C   UNL d   1     -49.809  12.918  22.932  0.00  0.00     0.020 A 
ATOM     10  C   UNL d   1     -50.618  13.045  22.964  0.00  0.00     0.002 A 
ATOM     11  C   UNL d   1     -51.044  13.181  22.268  0.00  0.00     0.002 A 
ATOM     12  C   UNL d   1     -51.008  13.037  23.690  0.00  0.00     0.000 C 
ENDBRANCH   1   2
BRANCH   1  13
ATOM     13  C   UNL d   1     -47.442  13.225  22.707  0.00  0.00     0.041 A 
ATOM     14  C   UNL d   1     -46.713  12.988  22.975  0.00  0.00     0.102 A 
ATOM     15  C   UNL d   1     -46.126  13.541  23.112  0.00  0.00     0.025 A 
ATOM     16  C   UNL d   1     -46.272  14.340  22.977  0.00  0.00     0.002 A 
ATOM     17  C   UNL d   1     -47.013  14.580  22.705  0.00  0.00     0.000 A 
ATOM     18  C   UNL d   1     -47.601  14.018  22.569  0.00  0.00     0.004 A 
BRANCH  14  19
ATOM     19  O   UNL d   1     -46.561  12.187  23.112  0.00  0.00    -0.305 OA
BRANCH  19  20
ATOM     20  C   UNL d   1     -45.786  11.924  23.223  0.00  0.00     0.123 C 
BRANCH  20  21
ATOM     21  C   UNL d   1     -45.635  11.129  23.342  0.00  0.00     0.027 C 
BRANCH  21  22
ATOM     22  C   UNL d   1     -44.878  10.827  23.214  0.00  0.00     0.002 C 
ATOM     23  C   UNL d   1     -44.589  10.212  23.687  0.00  0.00     0.000 C 
ENDBRANCH  21  22
ENDBRANCH  20  21
ENDBRANCH  19  20
ENDBRANCH  14  19
ENDBRANCH   1  13
TORSDOF 6
ENDMDL
MODEL 3
REMARK VINA RESULT:      -6.8      1.444      2.533
REMARK  6 active torsions:
REMARK  status: ('A' for Active; 'I' for Inactive)
REMARK    1  A    between atoms: C_5  and  N_1 
REMARK    2  A    between atoms: C_7  and  C_5 
REMARK    3  A    between atoms: O_14  and  C_10 
REMARK    4  A    between atoms: C_18  and  O_14 
REMARK    5  A    between atoms: C_19  and  C_18 
REMARK    6  A    between atoms: C_20  and  C_19 
ROOT
ATOM      1  C   UNL d   1     -48.690  13.966  23.241  0.00  0.00     0.087 C 
ENDROOT
BRANCH   1   2
ATOM      2  N   UNL d   1     -49.370  14.329  22.945  0.00  0.00    -0.251 N 
ATOM      3  C   UNL d   1     -49.680  15.072  23.134  0.00  0.00     0.378 A 
ATOM      4  O   UNL d   1     -50.368  15.180  22.688  0.00  0.00    -0.258 OA
ATOM      5  O   UNL d   1     -49.364  15.611  23.670  0.00  0.00    -0.237 OA
ATOM      6  C   UNL d   1     -50.482  14.504  22.225  0.00  0.00     0.121 A 
ATOM      7  C   UNL d   1     -49.864  13.978  22.384  0.00  0.00     0.092 A 
ATOM      8  C   UNL d   1     -51.064  14.290  21.676  0.00  0.00     0.026 A 
ATOM      9  C   UNL d   1     -49.826  13.251  22.003  0.00  0.00     0.020 A 
ATOM     10  C   UNL d   1     -50.405  13.043  21.460  0.00  0.00     0.002 A 
ATOM     11  C   UNL d   1     -51.026  13.564  21.296  0.00  0.00     0.002 A 
ATOM     12  C   UNL d   1     -50.368  12.314  21.078  0.00  0.00     0.000 C 
ENDBRANCH   1   2
BRANCH   1  13
ATOM     13  C   UNL d   1     -47.943  14.197  22.974  0.00  0.00     0.041 A 
ATOM     14  C   UNL d   1     -47.307  13.699  23.053  0.00  0.00     0.102 A 
ATOM     15  C   UNL d   1     -46.568  13.930  22.787  0.00  0.00     0.025 A 
ATOM     16  C   UNL d   1     -46.467  14.669  22.439  0.00  0.00     0.002 A 
ATOM     17  C   UNL d   1     -47.113  15.175  22.359  0.00  0.00     0.000 A 
ATOM     18  C   UNL d   1     -47.856  14.937  22.629  0.00  0.00     0.004 A 
BRANCH  14  19
ATOM     19  O   UNL d   1     -47.403  12.955  23.402  0.00  0.00    -0.305 OA
BRANCH  19  20
ATOM     20  C   UNL d   1     -46.754  12.453  23.493  0.00  0.00     0.123 C 
BRANCH  20  21
ATOM     21  C   UNL d   1     -46.868  11.648  23.587  0.00  0.00     0.027 C 
BRANCH  21  22
ATOM     22  C   UNL d   1     -46.220  11.143  23.658  0.00  0.00     0.002 C 
ATOM     23  C   UNL d   1     -46.331  10.323  23.698  0.00  0.00     0.000 C 
ENDBRANCH  21  22
ENDBRANCH  20  21
ENDBRANCH  19  20
ENDBRANCH  14  19
ENDBRANCH   1  13
TORSDOF 6
ENDMDL
MODEL 4
REMARK VINA RESULT:      -6.5      1.248      4.034
REMARK  6 active torsions:
REMARK  status: ('A' for Active; 'I' for Inactive)
REMARK    1  A    between atoms: C_5  and  N_1 
REMARK    2  A    between atoms: C_7  and  C_5 
REMARK    3  A    between atoms: O_14  and  C_10 
REMARK    4  A    between atoms: C_18  and  O_14 
REMARK    5  A    between atoms: C_19  and  C_18 
REMARK    6  A    between atoms: C_20  and  C_19 
ROOT
ATOM      1  C   UNL d   1     -48.423  12.763  23.361  0.00  0.00     0.087 C 
ENDROOT
BRANCH   1   2
ATOM      2  N   UNL d   1     -47.659  12.453  23.324  0.00  0.00    -0.251 N 
ATOM      3  C   UNL d   1     -47.411  11.676  23.463  0.00  0.00     0.378 A 
ATOM      4  O   UNL d   1     -46.592  11.648  23.355  0.00  0.00    -0.258 OA
ATOM      5  O   UNL d   1     -47.892  11.040  23.671  0.00  0.00    -0.237 OA
ATOM      6  C   UNL d   1     -46.334  12.407  23.151  0.00  0.00     0.121 A 
ATOM      7  C   UNL d   1     -46.994  12.905  23.131  0.00  0.00     0.092 A 
ATOM      8  C   UNL d   1     -45.587  12.720  22.978  0.00  0.00     0.026 A 
ATOM      9  C   UNL d   1     -46.912  13.700  22.943  0.00  0.00     0.020 A 
ATOM     10  C   UNL d   1     -46.170  14.006  22.772  0.00  0.00     0.002 A 
ATOM     11  C   UNL d   1     -45.506  13.514  22.790  0.00  0.00     0.002 A 
ATOM     12  C   UNL d   1     -46.087  14.803  22.583  0.00  0.00     0.000 C 
ENDBRANCH   1   2
BRANCH   1  13
ATOM     13  C   UNL d   1     -48.967  12.605  22.758  0.00  0.00     0.041 A 
ATOM     14  C   UNL d   1     -49.670  13.010  22.725  0.00  0.00     0.102 A 
ATOM     15  C   UNL d   1     -50.207  12.853  22.129  0.00  0.00     0.025 A 
ATOM     16  C   UNL d   1     -50.036  12.283  21.559  0.00  0.00     0.002 A 
ATOM     17  C   UNL d   1     -49.322  11.872  21.594  0.00  0.00     0.000 A 
ATOM     18  C   UNL d   1     -48.784  12.035  22.197  0.00  0.00     0.004 A 
BRANCH  14  19
ATOM     19  O   UNL d   1     -49.847  13.584  23.295  0.00  0.00    -0.305 OA
BRANCH  19  20
ATOM     20  C   UNL d   1     -50.336  14.221  23.104  0.00  0.00     0.123 C 
BRANCH  20  21
ATOM     21  C   UNL d   1     -50.734  14.624  23.695  0.00  0.00     0.027 C 
BRANCH  21  22
ATOM     22  C   UNL d   1     -50.830  15.441  23.647  0.00  0.00     0.002 C 
ATOM     23  C   UNL d   1     -50.206  15.921  23.391  0.00  0.00     0.000 C 
ENDBRANCH  21  22
ENDBRANCH  20  21
ENDBRANCH  19  20
ENDBRANCH  14  19
ENDBRANCH   1  13
TORSDOF 6
ENDMDL
MODEL 5
REMARK VINA RESULT:      -6.0      6.086      9.607
REMARK  6 active torsions:
REMARK  status: ('A' for Active; 'I' for Inactive)
REMARK    1  A    between atoms: C_5  and  N_1 
REMARK    2  A    between atoms: C_7  and  C_5 
REMARK    3  A    between atoms: O_14  and  C_10 
REMARK    4  A    between atoms: C_18  and  O_14 
REMARK    5  A    between atoms: C_19  and  C_18 
REMARK    6  A    between atoms: C_20  and  C_19 
ROOT
ATOM      1  C   UNL d   1     -40.661  14.448  18.736  0.00  0.00     0.087 C 
ENDROOT
BRANCH   1   2
ATOM      2  N   UNL d   1     -40.326  14.678  18.018  0.00  0.00    -0.251 N 
ATOM      3  C   UNL d   1     -40.514  15.334  17.548  0.00  0.00     0.378 A 
ATOM      4  O   UNL d   1     -40.020  15.319  16.884  0.00  0.00    -0.258 OA
ATOM      5  O   UNL d   1     -41.088  15.901  17.709  0.00  0.00    -0.237 OA
ATOM      6  C   UNL d   1     -39.529  14.655  16.945  0.00  0.00     0.121 A 
ATOM      7  C   UNL d   1     -39.718  14.260  17.646  0.00  0.00     0.092 A 
ATOM      8  C   UNL d   1     -38.932  14.352  16.458  0.00  0.00     0.026 A 
ATOM      9  C   UNL d   1     -39.320  13.574  17.859  0.00  0.00     0.020 A 
ATOM     10  C   UNL d   1     -38.728  13.277  17.374  0.00  0.00     0.002 A 
ATOM     11  C   UNL d   1     -38.534  13.667  16.672  0.00  0.00     0.002 A 
ATOM     12  C   UNL d   1     -38.328  12.589  17.587  0.00  0.00     0.000 C 
ENDBRANCH   1   2
BRANCH   1  13
ATOM     13  C   UNL d   1     -40.482  14.859  19.431  0.00  0.00     0.041 A 
ATOM     14  C   UNL d   1     -40.800  14.622  20.140  0.00  0.00     0.102 A 
ATOM     15  C   UNL d   1     -40.621  15.030  20.827  0.00  0.00     0.025 A 
ATOM     16  C   UNL d   1     -40.119  15.682  20.801  0.00  0.00     0.002 A 
ATOM     17  C   UNL d   1     -39.797  15.922  20.080  0.00  0.00     0.000 A 
ATOM     18  C   UNL d   1     -39.980  15.507  19.391  0.00  0.00     0.004 A 
BRANCH  14  19
ATOM     19  O   UNL d   1     -41.305  13.968  20.171  0.00  0.00    -0.305 OA
BRANCH  19  20
ATOM     20  C   UNL d   1     -41.750  13.820  20.850  0.00  0.00     0.123 C 
BRANCH  20  21
ATOM     21  C   UNL d   1     -42.388  13.309  20.819  0.00  0.00     0.027 C 
BRANCH  21  22
ATOM     22  C   UNL d   1     -42.669  12.954  21.509  0.00  0.00     0.002 C 
ATOM     23  C   UNL d   1     -43.437  12.646  21.537  0.00  0.00     0.000 C 
ENDBRANCH  21  22
ENDBRANCH  20  21
ENDBRANCH  19  20
ENDBRANCH  14  19
ENDBRANCH   1  13
TORSDOF 6
ENDMDL
MODEL 6
REMARK VINA RESULT:      -5.7      1.141      2.511
REMARK  6 active torsions:
REMARK  status: ('A' for Active; 'I' for Inactive)
REMARK    1  A    between atoms: C_5  and  N_1 
REMARK    2  A    between atoms: C_7  and  C_5 
REMARK    3  A    between atoms: O_14  and  C_10 
REMARK    4  A    between atoms: C_18  and  O_14 
REMARK    5  A    between atoms: C_19  and  C_18 
REMARK    6  A    between atoms: C_20  and  C_19 
ROOT
ATOM      1  C   UNL d   1     -48.941  13.590  21.757  0.00  0.00     0.087 C 
ENDROOT
BRANCH   1   2
ATOM      2  N   UNL d   1     -49.672  13.296  22.002  0.00  0.00    -0.251 N 
ATOM      3  C   UNL d   1     -50.429  13.573  21.812  0.00  0.00     0.378 A 
ATOM      4  O   UNL d   1     -50.979  13.089  22.197  0.00  0.00    -0.258 OA
ATOM      5  O   UNL d   1     -50.606  14.214  21.327  0.00  0.00    -0.237 OA
ATOM      6  C   UNL d   1     -50.562  12.516  22.623  0.00  0.00     0.121 A 
ATOM      7  C   UNL d   1     -49.754  12.644  22.503  0.00  0.00     0.092 A 
ATOM      8  C   UNL d   1     -50.804  11.890  23.108  0.00  0.00     0.026 A 
ATOM      9  C   UNL d   1     -49.196  12.157  22.859  0.00  0.00     0.020 A 
ATOM     10  C   UNL d   1     -49.441  11.538  23.339  0.00  0.00     0.002 A 
ATOM     11  C   UNL d   1     -50.247  11.404  23.464  0.00  0.00     0.002 A 
ATOM     12  C   UNL d   1     -48.882  11.049  23.697  0.00  0.00     0.000 C 
ENDBRANCH   1   2
BRANCH   1  13
ATOM     13  C   UNL d   1     -48.630  14.275  22.101  0.00  0.00     0.041 A 
ATOM     14  C   UNL d   1     -47.836  14.325  22.266  0.00  0.00     0.102 A 
ATOM     15  C   UNL d   1     -47.530  15.003  22.607  0.00  0.00     0.025 A 
ATOM     16  C   UNL d   1     -48.025  15.636  22.783  0.00  0.00     0.002 A 
ATOM     17  C   UNL d   1     -48.831  15.584  22.614  0.00  0.00     0.000 A 
ATOM     18  C   UNL d   1     -49.134  14.898  22.271  0.00  0.00     0.004 A 
BRANCH  14  19
ATOM     19  O   UNL d   1     -47.334  13.692  22.091  0.00  0.00    -0.305 OA
BRANCH  19  20
ATOM     20  C   UNL d   1     -46.522  13.755  22.229  0.00  0.00     0.123 C 
BRANCH  20  21
ATOM     21  C   UNL d   1     -46.039  13.102  22.139  0.00  0.00     0.027 C 
BRANCH  21  22
ATOM     22  C   UNL d   1     -45.223  13.197  22.064  0.00  0.00     0.002 C 
ATOM     23  C   UNL d   1     -44.708  12.596  22.307  0.00  0.00     0.000 C 
ENDBRANCH  21  22
ENDBRANCH  20  21
ENDBRANCH  19  20
ENDBRANCH  14  19
ENDBRANCH   1  13
TORSDOF 6
ENDMDL
MODEL 7
REMARK VINA RESULT:      -5.2      7.700      9.893
REMARK  6 active torsions:
REMARK  status: ('A' for Active; 'I' for Inactive)
REMARK    1  A    between atoms: C_5  and  N_1 
REMARK    2  A    between atoms: C_7  and  C_5 
REMARK    3  A    between atoms: O_14  and  C_10 
REMARK    4  A    between atoms: C_18  and  O_14 
REMARK    5  A    between atoms: C_19  and  C_18 
REMARK    6  A    between atoms: C_20  and  C_19 
ROOT
ATOM      1  C   UNL d   1     -39.581  15.132  19.032  0.00  0.00     0.087 C 
ENDROOT
BRANCH   1   2
ATOM      2  N   UNL d   1     -39.323  15.013  19.808  0.00  0.00    -0.251 N 
ATOM      3  C   UNL d   1     -38.583  15.184  20.136  0.00  0.00     0.378 A 
ATOM      4  O   UNL d   1     -38.602  14.963  20.933  0.00  0.00    -0.258 OA
ATOM      5  O   UNL d   1     -37.940  15.515  19.744  0.00  0.00    -0.237 OA
ATOM      6  C   UNL d   1     -39.354  14.656  21.095  0.00  0.00     0.121 A 
ATOM      7  C   UNL d   1     -39.799  14.687  20.399  0.00  0.00     0.092 A 
ATOM      8  C   UNL d   1     -39.699  14.350  21.783  0.00  0.00     0.026 A 
ATOM      9  C   UNL d   1     -40.575  14.419  20.387  0.00  0.00     0.020 A 
ATOM     10  C   UNL d   1     -40.914  14.116  21.071  0.00  0.00     0.002 A 
ATOM     11  C   UNL d   1     -40.474  14.081  21.770  0.00  0.00     0.002 A 
ATOM     12  C   UNL d   1     -41.692  13.846  21.060  0.00  0.00     0.000 C 
ENDBRANCH   1   2
BRANCH   1  13
ATOM     13  C   UNL d   1     -39.318  14.637  18.425  0.00  0.00     0.041 A 
ATOM     14  C   UNL d   1     -39.601  14.729  17.669  0.00  0.00     0.102 A 
ATOM     15  C   UNL d   1     -39.340  14.239  17.069  0.00  0.00     0.025 A 
ATOM     16  C   UNL d   1     -38.788  13.649  17.229  0.00  0.00     0.002 A 
ATOM     17  C   UNL d   1     -38.500  13.556  17.997  0.00  0.00     0.000 A 
ATOM     18  C   UNL d   1     -38.768  14.053  18.598  0.00  0.00     0.004 A 
BRANCH  14  19
ATOM     19  O   UNL d   1     -40.156  15.320  17.503  0.00  0.00    -0.305 OA
BRANCH  19  20
ATOM     20  C   UNL d   1     -40.727  15.201  16.919  0.00  0.00     0.123 C 
BRANCH  20  21
ATOM     21  C   UNL d   1     -41.260  15.794  16.739  0.00  0.00     0.027 C 
BRANCH  21  22
ATOM     22  C   UNL d   1     -42.014  15.605  16.464  0.00  0.00     0.002 C 
ATOM     23  C   UNL d   1     -42.290  15.922  15.751  0.00  0.00     0.000 C 
ENDBRANCH  21  22
ENDBRANCH  20  21
ENDBRANCH  19  20
ENDBRANCH  14  19
ENDBRANCH   1  13
TORSDOF 6
ENDMDL
MODEL 8
REMARK VINA RESULT:      -5.0      1.193      1.652
REMARK  6 active torsions:
REMARK  status: ('A' for Active; 'I' for Inactive)
REMARK    1  A    between atoms: C_5  and  N_1 
REMARK    2  A    between atoms: C_7  and  C_5 
REMARK    3  A    between atoms: O_14  and  C_10 
REMARK    4  A    between atoms: C_18  and  O_14 
REMARK    5  A    between atoms: C_19  and  C_18 
REMARK    6  A    between atoms: C_20  and  C_19 
ROOT
ATOM      1  C   UNL d   1     -48.982  12.767  22.940  0.00  0.00     0.087 C 
ENDROOT
BRANCH   1   2
ATOM      2  N   UNL d   1     -49.735  13.018  23.168  0.00  0.00    -0.251 N 
ATOM      3  C   UNL d   1     -50.413  12.562  23.297  0.00  0.00     0.378 A 
ATOM      4  O   UNL d   1     -51.024  13.073  23.517  0.00  0.00    -0.258 OA
ATOM      5  O   UNL d   1     -50.473  11.744  23.220  0.00  0.00    -0.237 OA
ATOM      6  C   UNL d   1     -50.723  13.844  23.524  0.00  0.00     0.121 A 
ATOM      7  C   UNL d   1     -49.926  13.810  23.308  0.00  0.00     0.092 A 
ATOM      8  C   UNL d   1     -51.064  14.579  23.697  0.00  0.00     0.026 A 
ATOM      9  C   UNL d   1     -49.475  14.495  23.266  0.00  0.00     0.020 A 
ATOM     10  C   UNL d   1     -49.816  15.221  23.438  0.00  0.00     0.002 A 
ATOM     11  C   UNL d   1     -50.613  15.263  23.655  0.00  0.00     0.002 A 
ATOM     12  C   UNL d   1     -49.364  15.908  23.396  0.00  0.00     0.000 C 
ENDBRANCH   1   2
BRANCH   1  13
ATOM     13  C   UNL d   1     -48.822  12.597  22.147  0.00  0.00     0.041 A 
ATOM     14  C   UNL d   1     -48.057  12.484  21.899  0.00  0.00     0.102 A 
ATOM     15  C   UNL d   1     -47.900  12.316  21.114  0.00  0.00     0.025 A 
ATOM     16  C   UNL d   1     -48.517  12.261  20.572  0.00  0.00     0.002 A 
ATOM     17  C   UNL d   1     -49.294  12.376  20.825  0.00  0.00     0.000 A 
ATOM     18  C   UNL d   1     -49.446  12.545  21.617  0.00  0.00     0.004 A 
BRANCH  14  19
ATOM     19  O   UNL d   1     -47.433  12.538  22.439  0.00  0.00    -0.305 OA
BRANCH  19  20
ATOM     20  C   UNL d   1     -46.699  12.830  22.198  0.00  0.00     0.123 C 
BRANCH  20  21
ATOM     21  C   UNL d   1     -46.069  12.838  22.720  0.00  0.00     0.027 C 
BRANCH  21  22
ATOM     22  C   UNL d   1     -45.464  13.391  22.631  0.00  0.00     0.002 C 
ATOM     23  C   UNL d   1     -44.855  13.261  22.086  0.00  0.00     0.000 C 
ENDBRANCH  21  22
ENDBRANCH  20  21
ENDBRANCH  19  20
ENDBRANCH  14  19
ENDBRANCH   1  13
TORSDOF 6
ENDMDL
MODEL 9
REMARK VINA RESULT:      -4.9      1.661      2.237
REMARK  6 active torsions:
REMARK  status: ('A' for Active; 'I' for Inactive)
REMARK    1  A    between atoms: C_5  and  N_1 
REMARK    2  A    between atoms: C_7  and  C_5 
REMARK    3  A    between atoms: O_14  and  C_10 
REMARK    4  A    between atoms: C_18  and  O_14 
REMARK    5  A    between atoms: C_19  and  C_18 
REMARK    6  A    between atoms: C_20  and  C_19 
ROOT
ATOM      1  C   UNL d   1     -49.093  13.141  23.545  0.00  0.00     0.087 C 
ENDROOT
BRANCH   1   2
ATOM      2  N   UNL d   1     -49.389  13.888  23.352  0.00  0.00    -0.251 N 
ATOM      3  C   UNL d   1     -50.165  14.167  23.419  0.00  0.00     0.378 A 
ATOM      4  O   UNL d   1     -50.175  14.951  23.154  0.00  0.00    -0.258 OA
ATOM      5  O   UNL d   1     -50.814  13.744  23.697  0.00  0.00    -0.237 OA
ATOM      6  C   UNL d   1     -49.407  15.154  22.925  0.00  0.00     0.121 A 
ATOM      7  C   UNL d   1     -48.920  14.496  23.048  0.00  0.00     0.092 A 
ATOM      8  C   UNL d   1     -49.077  15.849  22.620  0.00  0.00     0.026 A 
ATOM      9  C   UNL d   1     -48.119  14.530  22.869  0.00  0.00     0.020 A 
ATOM     10  C   UNL d   1     -47.796  15.221  22.567  0.00  0.00     0.002 A 
ATOM     11  C   UNL d   1     -48.277  15.883  22.442  0.00  0.00     0.002 A 
ATOM     12  C   UNL d   1     -46.993  15.257  22.388  0.00  0.00     0.000 C 
ENDBRANCH   1   2
BRANCH   1  13
ATOM     13  C   UNL d   1     -49.222  12.498  23.041  0.00  0.00     0.041 A 
ATOM     14  C   UNL d   1     -48.735  11.850  23.072  0.00  0.00     0.102 A 
ATOM     15  C   UNL d   1     -48.864  11.214  22.573  0.00  0.00     0.025 A 
ATOM     16  C   UNL d   1     -49.489  11.231  22.038  0.00  0.00     0.002 A 
ATOM     17  C   UNL d   1     -49.984  11.890  22.007  0.00  0.00     0.000 A 
ATOM     18  C   UNL d   1     -49.849  12.528  22.512  0.00  0.00     0.004 A 
BRANCH  14  19
ATOM     19  O   UNL d   1     -48.105  11.828  23.608  0.00  0.00    -0.305 OA
BRANCH  19  20
ATOM     20  C   UNL d   1     -47.502  11.272  23.518  0.00  0.00     0.123 C 
BRANCH  20  21
ATOM     21  C   UNL d   1     -46.725  11.482  23.663  0.00  0.00     0.027 C 
BRANCH  21  22
ATOM     22  C   UNL d   1     -46.120  10.932  23.556  0.00  0.00     0.002 C 
ATOM     23  C   UNL d   1     -45.332  11.145  23.698  0.00  0.00     0.000 C 
ENDBRANCH  21  22
ENDBRANCH  20  21
ENDBRANCH  19  20
ENDBRANCH  14  19
ENDBRANCH   1  13
TORSDOF 6
ENDMDL
