MODEL 1
REMARK VINA RESULT:      41.2      0.000      0.000
REMARK  6 active torsions:
REMARK  status: ('A' for Active; 'I' for Inactive)
REMARK    1  A    between atoms: S_3  and  C_1 
REMARK    2  A    between atoms: C_11  and  S_3 
REMARK    3  A    between atoms: S_8  and  C_4 
REMARK    4  A    between atoms: C_7  and  C_5 
REMARK    5  A    between atoms: C_16  and  S_8 
REMARK    6  A    between atoms: C_19  and  C_16 
ROOT
ATOM      1  C   UNL d   1      13.922  12.957  -3.072  0.00  0.00     0.200 A 
ATOM      2  N   UNL d   1      13.781  12.429  -3.693  0.00  0.00    -0.206 NA
ATOM      3  C   UNL d   1      13.774  13.723  -3.351  0.00  0.00     0.160 A 
ATOM      4  C   UNL d   1      13.546  12.867  -4.358  0.00  0.00     0.207 A 
ATOM      5  O   UNL d   1      13.544  13.664  -4.139  0.00  0.00    -0.279 OA
ENDROOT
BRANCH   1   6
ATOM      6  S   UNL d   1      14.167  12.748  -2.311  0.00  0.00     0.229 S 
ATOM      7  O   UNL d   1      14.928  12.953  -2.545  0.00  0.00    -0.215 OA
ATOM      8  O   UNL d   1      13.406  12.541  -2.071  0.00  0.00    -0.215 OA
BRANCH   6   9
ATOM      9  C   UNL d   1      14.403  12.537  -1.546  0.00  0.00     0.089 A 
ATOM     10  C   UNL d   1      15.164  12.723  -1.269  0.00  0.00     0.011 A 
ATOM     11  C   UNL d   1      15.390  12.512  -0.517  0.00  0.00     0.001 A 
ATOM     12  C   UNL d   1      14.864  12.114  -0.025  0.00  0.00     0.000 A 
ATOM     13  C   UNL d   1      14.111  11.926  -0.289  0.00  0.00     0.001 A 
ATOM     14  C   UNL d   1      13.875  12.136  -1.050  0.00  0.00     0.011 A 
ENDBRANCH   6   9
ENDBRANCH   1   6
BRANCH   3  15
ATOM     15  S   UNL d   1      13.845  14.420  -2.914  0.00  0.00    -0.060 SA
BRANCH  15  16
ATOM     16  C   UNL d   1      14.082  15.117  -3.290  0.00  0.00     0.037 C 
BRANCH  16  17
ATOM     17  C   UNL d   1      14.489  15.699  -2.870  0.00  0.00     0.006 C 
ATOM     18  C   UNL d   1      15.040  16.174  -3.261  0.00  0.00     0.001 C 
ATOM     19  C   UNL d   1      14.342  15.800  -2.067  0.00  0.00     0.001 C 
ENDBRANCH  16  17
ENDBRANCH  15  16
ENDBRANCH   3  15
BRANCH   4  20
ATOM     20  C   UNL d   1      13.350  12.558  -5.102  0.00  0.00     0.141 A 
ATOM     21  O   UNL d   1      13.683  11.886  -5.460  0.00  0.00    -0.302 OA
ATOM     22  C   UNL d   1      13.331  11.780  -6.187  0.00  0.00     0.123 A 
ATOM     23  C   UNL d   1      12.776  12.378  -6.300  0.00  0.00     0.029 A 
ATOM     24  C   UNL d   1      12.786  12.859  -5.631  0.00  0.00     0.030 A 
ENDBRANCH   4  20
TORSDOF 6
ENDMDL
MODEL 2
REMARK VINA RESULT:      42.2      1.191      3.118
REMARK  6 active torsions:
REMARK  status: ('A' for Active; 'I' for Inactive)
REMARK    1  A    between atoms: S_3  and  C_1 
REMARK    2  A    between atoms: C_11  and  S_3 
REMARK    3  A    between atoms: S_8  and  C_4 
REMARK    4  A    between atoms: C_7  and  C_5 
REMARK    5  A    between atoms: C_16  and  S_8 
REMARK    6  A    between atoms: C_19  and  C_16 
ROOT
ATOM      1  C   UNL d   1      14.296  13.972  -2.513  0.00  0.00     0.200 A 
ATOM      2  N   UNL d   1      14.599  14.742  -2.501  0.00  0.00    -0.206 NA
ATOM      3  C   UNL d   1      13.941  13.850  -3.252  0.00  0.00     0.160 A 
ATOM      4  C   UNL d   1      14.433  15.097  -3.233  0.00  0.00     0.207 A 
ATOM      5  O   UNL d   1      14.027  14.541  -3.690  0.00  0.00    -0.279 OA
ENDROOT
BRANCH   1   6
ATOM      6  S   UNL d   1      14.342  13.428  -1.893  0.00  0.00     0.229 S 
ATOM      7  O   UNL d   1      14.105  14.039  -1.395  0.00  0.00    -0.215 OA
ATOM      8  O   UNL d   1      14.580  12.812  -2.387  0.00  0.00    -0.215 OA
BRANCH   6   9
ATOM      9  C   UNL d   1      14.392  12.876  -1.278  0.00  0.00     0.089 A 
ATOM     10  C   UNL d   1      13.708  12.509  -0.980  0.00  0.00     0.011 A 
ATOM     11  C   UNL d   1      13.763  11.967  -0.376  0.00  0.00     0.001 A 
ATOM     12  C   UNL d   1      14.498  11.780  -0.056  0.00  0.00     0.000 A 
ATOM     13  C   UNL d   1      15.178  12.136  -0.343  0.00  0.00     0.001 A 
ATOM     14  C   UNL d   1      15.130  12.686  -0.955  0.00  0.00     0.011 A 
ENDBRANCH   6   9
ENDBRANCH   1   6
BRANCH   3  15
ATOM     15  S   UNL d   1      13.568  13.157  -3.502  0.00  0.00    -0.060 SA
BRANCH  15  16
ATOM     16  C   UNL d   1      13.171  13.144  -4.227  0.00  0.00     0.037 C 
BRANCH  16  17
ATOM     17  C   UNL d   1      13.134  12.448  -4.669  0.00  0.00     0.006 C 
ATOM     18  C   UNL d   1      12.769  11.780  -4.348  0.00  0.00     0.001 C 
ATOM     19  C   UNL d   1      13.461  12.426  -5.423  0.00  0.00     0.001 C 
ENDBRANCH  16  17
ENDBRANCH  15  16
ENDBRANCH   3  15
BRANCH   4  20
ATOM     20  C   UNL d   1      14.638  15.868  -3.459  0.00  0.00     0.141 A 
ATOM     21  O   UNL d   1      14.932  16.466  -2.961  0.00  0.00    -0.302 OA
ATOM     22  C   UNL d   1      15.060  17.135  -3.410  0.00  0.00     0.123 A 
ATOM     23  C   UNL d   1      14.851  16.972  -4.190  0.00  0.00     0.029 A 
ATOM     24  C   UNL d   1      14.591  16.191  -4.222  0.00  0.00     0.030 A 
ENDBRANCH   4  20
TORSDOF 6
ENDMDL
