MODEL 1
REMARK VINA RESULT:      -4.7      0.000      0.000
REMARK  5 active torsions:
REMARK  status: ('A' for Active; 'I' for Inactive)
REMARK    1  A    between atoms: C_2  and  C_1 
REMARK    2  A    between atoms: N_5  and  C_2 
REMARK    3  A    between atoms: C_9  and  C_4 
REMARK    4  A    between atoms: C_21  and  N_10 
REMARK    5  A    between atoms: C_18  and  C_21 
ROOT
ATOM      1  N   UNL d   1      59.830  -5.055  28.459  0.00  0.00    -0.191 NA
ATOM      2  C   UNL d   1      59.778  -4.289  28.748  0.00  0.00     0.103 C 
ATOM      3  C   UNL d   1      59.726  -3.513  29.033  0.00  0.00     0.097 C 
ENDROOT
BRANCH   3   4
ATOM      4  C   UNL d   1      59.737  -2.885  28.507  0.00  0.00     0.091 C 
BRANCH   4   5
ATOM      5  N   UNL d   1      59.438  -2.151  28.740  0.00  0.00    -0.299 N 
ATOM      6  C   UNL d   1      59.950  -1.513  28.867  0.00  0.00     0.100 A 
ATOM      7  C   UNL d   1      59.659  -0.783  29.099  0.00  0.00     0.100 A 
ATOM      8  N   UNL d   1      58.845  -0.685  29.207  0.00  0.00    -0.291 N 
ATOM      9  C   UNL d   1      58.326  -1.310  29.084  0.00  0.00     0.100 A 
ATOM     10  C   UNL d   1      58.624  -2.048  28.849  0.00  0.00     0.100 A 
BRANCH   8  11
ATOM     11  C   UNL d   1      58.552   0.051  29.440  0.00  0.00     0.143 C 
ATOM     12  S   UNL d   1      58.506   0.672  28.900  0.00  0.00    -0.057 SA
BRANCH  11  13
ATOM     13  C   UNL d   1      58.302   0.166  30.227  0.00  0.00     0.126 A 
ATOM     14  O   UNL d   1      57.568  -0.061  30.537  0.00  0.00    -0.305 OA
ATOM     15  C   UNL d   1      57.554   0.158  31.331  0.00  0.00     0.100 A 
ATOM     16  C   UNL d   1      58.280   0.521  31.513  0.00  0.00     0.027 A 
ATOM     17  C   UNL d   1      58.738   0.524  30.829  0.00  0.00     0.029 A 
BRANCH  15  18
ATOM     18  C   UNL d   1      56.934   0.041  31.858  0.00  0.00     0.024 A 
ATOM     19  C   UNL d   1      56.752  -0.723  32.107  0.00  0.00     0.013 A 
ATOM     20  C   UNL d   1      56.130  -0.854  32.637  0.00  0.00     0.058 A 
ATOM     21 CL   UNL d   1      55.946  -1.622  32.888  0.00  0.00    -0.082 Cl
ATOM     22  C   UNL d   1      55.688  -0.206  32.917  0.00  0.00     0.011 A 
ATOM     23  C   UNL d   1      55.876   0.558  32.663  0.00  0.00     0.001 A 
ATOM     24  C   UNL d   1      56.497   0.682  32.135  0.00  0.00     0.002 A 
ENDBRANCH  15  18
ENDBRANCH  11  13
ENDBRANCH   8  11
ENDBRANCH   4   5
ENDBRANCH   3   4
TORSDOF 5
ENDMDL
