MODEL 1
REMARK VINA RESULT:      19.0      0.000      0.000
REMARK  5 active torsions:
REMARK  status: ('A' for Active; 'I' for Inactive)
REMARK    1  A    between atoms: O_6  and  C_1 
REMARK    2  A    between atoms: C_2  and  C_4 
REMARK    3  A    between atoms: O_7  and  C_3 
REMARK    4  A    between atoms: C_8  and  O_6 
REMARK    5  A    between atoms: C_9  and  O_7 
ROOT
ATOM      1  C   UNL d   1      13.289  12.669  -3.840  0.00  0.00     0.126 A 
ATOM      2  C   UNL d   1      13.581  12.622  -3.071  0.00  0.00     0.126 A 
ATOM      3  C   UNL d   1      13.452  14.093  -3.810  0.00  0.00     0.067 A 
ATOM      4  C   UNL d   1      13.224  13.403  -4.211  0.00  0.00     0.033 A 
ATOM      5  C   UNL d   1      13.810  13.313  -2.670  0.00  0.00     0.027 A 
ATOM      6  C   UNL d   1      13.743  14.042  -3.043  0.00  0.00     0.008 A 
ENDROOT
BRANCH   1   7
ATOM      7  O   UNL d   1      13.062  11.983  -4.238  0.00  0.00    -0.271 OA
BRANCH   7   8
ATOM      8  C   UNL d   1      13.322  11.847  -5.008  0.00  0.00     0.300 C 
ATOM      9  O   UNL d   1      14.144  11.779  -5.170  0.00  0.00    -0.259 OA
ATOM     10  C   UNL d   1      12.774  11.779  -5.621  0.00  0.00     0.074 C 
ENDBRANCH   7   8
ENDBRANCH   1   7
BRANCH   2  11
ATOM     11  O   UNL d   1      13.648  11.872  -2.693  0.00  0.00    -0.271 OA
BRANCH  11  12
ATOM     12  C   UNL d   1      13.753  11.829  -1.879  0.00  0.00     0.300 C 
ATOM     13  O   UNL d   1      14.514  11.833  -1.559  0.00  0.00    -0.259 OA
ATOM     14  C   UNL d   1      13.090  11.781  -1.382  0.00  0.00     0.074 C 
ENDBRANCH  11  12
ENDBRANCH   2  11
BRANCH   3  15
ATOM     15  C   UNL d   1      13.389  14.848  -4.180  0.00  0.00     0.211 C 
ATOM     16  O   UNL d   1      12.839  14.950  -4.787  0.00  0.00    -0.644 OA
ATOM     17  O   UNL d   1      13.879  15.478  -3.933  0.00  0.00    -0.644 OA
ENDBRANCH   3  15
TORSDOF 5
ENDMDL
MODEL 2
REMARK VINA RESULT:      21.7      0.666      2.790
REMARK  5 active torsions:
REMARK  status: ('A' for Active; 'I' for Inactive)
REMARK    1  A    between atoms: O_6  and  C_1 
REMARK    2  A    between atoms: C_2  and  C_4 
REMARK    3  A    between atoms: O_7  and  C_3 
REMARK    4  A    between atoms: C_8  and  O_6 
REMARK    5  A    between atoms: C_9  and  O_7 
ROOT
ATOM      1  C   UNL d   1      13.214  12.709  -3.716  0.00  0.00     0.126 A 
ATOM      2  C   UNL d   1      13.359  13.520  -3.686  0.00  0.00     0.126 A 
ATOM      3  C   UNL d   1      13.920  12.542  -2.480  0.00  0.00     0.067 A 
ATOM      4  C   UNL d   1      13.493  12.219  -3.114  0.00  0.00     0.033 A 
ATOM      5  C   UNL d   1      13.786  13.843  -3.052  0.00  0.00     0.027 A 
ATOM      6  C   UNL d   1      14.063  13.352  -2.454  0.00  0.00     0.008 A 
ENDROOT
BRANCH   1   7
ATOM      7  O   UNL d   1      12.789  12.388  -4.346  0.00  0.00    -0.271 OA
BRANCH   7   8
ATOM      8  C   UNL d   1      13.184  11.984  -4.946  0.00  0.00     0.300 C 
ATOM      9  O   UNL d   1      13.993  11.779  -4.854  0.00  0.00    -0.259 OA
ATOM     10  C   UNL d   1      12.782  11.781  -5.637  0.00  0.00     0.074 C 
ENDBRANCH   7   8
ENDBRANCH   1   7
BRANCH   2  11
ATOM     11  O   UNL d   1      13.073  14.019  -4.301  0.00  0.00    -0.271 OA
BRANCH  11  12
ATOM     12  C   UNL d   1      13.300  14.808  -4.330  0.00  0.00     0.300 C 
ATOM     13  O   UNL d   1      12.824  15.390  -3.987  0.00  0.00    -0.259 OA
ATOM     14  C   UNL d   1      14.009  15.018  -4.706  0.00  0.00     0.074 C 
ENDBRANCH  11  12
ENDBRANCH   2  11
BRANCH   3  15
ATOM     15  C   UNL d   1      14.210  12.051  -1.859  0.00  0.00     0.211 C 
ATOM     16  O   UNL d   1      13.682  11.779  -1.285  0.00  0.00    -0.644 OA
ATOM     17  O   UNL d   1      15.019  11.845  -1.831  0.00  0.00    -0.644 OA
ENDBRANCH   3  15
TORSDOF 5
ENDMDL
