MODEL 1
REMARK VINA RESULT:       3.4      0.000      0.000
REMARK  0 active torsions:
REMARK  status: ('A' for Active; 'I' for Inactive)
ROOT
ATOM      1  N   UNL d   1     -52.608  24.569  33.307  0.00  0.00    -0.169 NA
ATOM      2  C   UNL d   1     -51.873  24.939  33.307  0.00  0.00     0.199 A 
ATOM      3  C   UNL d   1     -51.170  24.507  33.306  0.00  0.00     0.130 A 
ATOM      4  N   UNL d   1     -51.926  23.299  33.308  0.00  0.00    -0.151 NA
ATOM      5  C   UNL d   1     -51.202  23.691  33.307  0.00  0.00     0.292 A 
ATOM      6  C   UNL d   1     -52.629  23.730  33.308  0.00  0.00     0.373 A 
ATOM      7  O   UNL d   1     -50.496  23.254  33.307  0.00  0.00    -0.264 OA
ATOM      8  O   UNL d   1     -53.363  23.346  33.309  0.00  0.00    -0.242 OA
ATOM      9  N   UNL d   1     -51.845  25.772  33.306  0.00  0.00    -0.126 N 
ATOM     10 BR   UNL d   1     -50.442  24.897  33.306  0.00  0.00    -0.041 Br
ENDROOT
TORSDOF 0
ENDMDL
MODEL 2
REMARK VINA RESULT:       4.9      1.046      1.821
REMARK  0 active torsions:
REMARK  status: ('A' for Active; 'I' for Inactive)
ROOT
ATOM      1  N   UNL d   1     -51.200  24.455  33.307  0.00  0.00    -0.169 NA
ATOM      2  C   UNL d   1     -51.913  24.865  33.315  0.00  0.00     0.199 A 
ATOM      3  C   UNL d   1     -52.639  24.474  33.330  0.00  0.00     0.130 A 
ATOM      4  N   UNL d   1     -51.952  23.225  33.332  0.00  0.00    -0.151 NA
ATOM      5  C   UNL d   1     -52.653  23.657  33.339  0.00  0.00     0.292 A 
ATOM      6  C   UNL d   1     -51.226  23.617  33.316  0.00  0.00     0.373 A 
ATOM      7  O   UNL d   1     -53.382  23.260  33.354  0.00  0.00    -0.264 OA
ATOM      8  O   UNL d   1     -50.514  23.192  33.310  0.00  0.00    -0.242 OA
ATOM      9  N   UNL d   1     -51.895  25.699  33.306  0.00  0.00    -0.126 N 
ATOM     10 BR   UNL d   1     -53.344  24.904  33.337  0.00  0.00    -0.041 Br
ENDROOT
TORSDOF 0
ENDMDL
MODEL 3
REMARK VINA RESULT:       5.5      1.580      2.377
REMARK  0 active torsions:
REMARK  status: ('A' for Active; 'I' for Inactive)
ROOT
ATOM      1  N   UNL d   1     -50.398  25.198  33.309  0.00  0.00    -0.169 NA
ATOM      2  C   UNL d   1     -50.641  24.412  33.312  0.00  0.00     0.199 A 
ATOM      3  C   UNL d   1     -51.440  24.205  33.316  0.00  0.00     0.130 A 
ATOM      4  N   UNL d   1     -51.786  25.587  33.315  0.00  0.00    -0.151 NA
ATOM      5  C   UNL d   1     -52.006  24.794  33.317  0.00  0.00     0.292 A 
ATOM      6  C   UNL d   1     -50.987  25.794  33.311  0.00  0.00     0.373 A 
ATOM      7  O   UNL d   1     -52.810  24.589  33.322  0.00  0.00    -0.264 OA
ATOM      8  O   UNL d   1     -50.755  26.590  33.308  0.00  0.00    -0.242 OA
ATOM      9  N   UNL d   1     -50.061  23.813  33.310  0.00  0.00    -0.126 N 
ATOM     10 BR   UNL d   1     -51.665  23.410  33.319  0.00  0.00    -0.041 Br
ENDROOT
TORSDOF 0
ENDMDL
