MODEL 1
REMARK VINA RESULT:      85.2      0.000      0.000
REMARK  6 active torsions:
REMARK  status: ('A' for Active; 'I' for Inactive)
REMARK    1  A    between atoms: N_3  and  C_1 
REMARK       I    between atoms: C_5  and  N_3 
REMARK    2  A    between atoms: C_19  and  N_3 
REMARK    3  A    between atoms: C_8  and  C_5 
REMARK    4  A    between atoms: C_20  and  C_19 
REMARK    5  A    between atoms: C_23  and  C_20 
REMARK    6  A    between atoms: N_21  and  C_23 
ROOT
ATOM      1  N   UNL d   1     -49.373  27.692  34.807  0.00  0.00    -0.253 N 
ATOM      2  C   UNL d   1     -49.602  27.581  34.021  0.00  0.00     0.266 C 
ATOM      3  O   UNL d   1     -49.303  28.057  33.431  0.00  0.00    -0.267 OA
ENDROOT
BRANCH   1   4
ATOM      4  C   UNL d   1     -48.832  28.297  34.991  0.00  0.00     0.182 A 
ATOM      5  N   UNL d   1     -48.911  29.092  34.782  0.00  0.00    -0.222 NA
ATOM      6  C   UNL d   1     -48.261  29.505  35.067  0.00  0.00     0.089 A 
ATOM      7  C   UNL d   1     -48.043  30.289  35.029  0.00  0.00     0.018 A 
ATOM      8  C   UNL d   1     -47.772  28.960  35.458  0.00  0.00     0.050 A 
ATOM      9  C   UNL d   1     -47.343  30.548  35.375  0.00  0.00     0.002 A 
ATOM     10  C   UNL d   1     -48.526  30.841  34.640  0.00  0.00     0.002 C 
ATOM     11  C   UNL d   1     -46.865  30.007  35.760  0.00  0.00     0.001 A 
ATOM     12  C   UNL d   1     -47.085  29.214  35.798  0.00  0.00     0.008 A 
ATOM     13  S   UNL d   1     -48.124  28.213  35.412  0.00  0.00    -0.048 SA
ENDBRANCH   1   4
BRANCH   1  14
ATOM     14  C   UNL d   1     -49.675  27.210  35.403  0.00  0.00     0.086 C 
BRANCH  14  15
ATOM     15  C   UNL d   1     -49.898  27.543  36.129  0.00  0.00     0.038 C 
BRANCH  15  16
ATOM     16  C   UNL d   1     -49.934  27.070  36.803  0.00  0.00     0.082 C 
BRANCH  16  17
ATOM     17  N   UNL d   1     -50.476  27.240  37.397  0.00  0.00    -0.300 N 
ATOM     18  C   UNL d   1     -51.016  26.668  37.639  0.00  0.00     0.100 C 
ATOM     19  C   UNL d   1     -50.478  27.983  37.748  0.00  0.00     0.100 C 
ENDBRANCH  16  17
ENDBRANCH  15  16
ENDBRANCH  14  15
ENDBRANCH   1  14
BRANCH   2  20
ATOM     20  C   UNL d   1     -50.139  26.979  33.843  0.00  0.00     0.057 A 
ATOM     21  C   UNL d   1     -49.883  26.200  33.763  0.00  0.00     0.013 A 
ATOM     22  C   UNL d   1     -50.437  25.609  33.584  0.00  0.00     0.049 A 
ATOM     23  S   UNL d   1     -50.342  24.794  33.473  0.00  0.00    -0.064 SA
ATOM     24  C   UNL d   1     -51.236  25.793  33.485  0.00  0.00     0.088 A 
ATOM     25  C   UNL d   1     -51.089  24.479  33.306  0.00  0.00     0.135 A 
ATOM     26  N   UNL d   1     -51.639  25.098  33.314  0.00  0.00    -0.236 NA
ATOM     27  C   UNL d   1     -51.491  26.573  33.565  0.00  0.00     0.020 A 
ATOM     28  C   UNL d   1     -50.948  27.168  33.743  0.00  0.00     0.006 A 
ENDBRANCH   2  20
TORSDOF 6
ENDMDL
MODEL 2
REMARK VINA RESULT:      87.3      0.742      1.242
REMARK  6 active torsions:
REMARK  status: ('A' for Active; 'I' for Inactive)
REMARK    1  A    between atoms: N_3  and  C_1 
REMARK       I    between atoms: C_5  and  N_3 
REMARK    2  A    between atoms: C_19  and  N_3 
REMARK    3  A    between atoms: C_8  and  C_5 
REMARK    4  A    between atoms: C_20  and  C_19 
REMARK    5  A    between atoms: C_23  and  C_20 
REMARK    6  A    between atoms: N_21  and  C_23 
ROOT
ATOM      1  N   UNL d   1     -49.532  27.384  34.701  0.00  0.00    -0.253 N 
ATOM      2  C   UNL d   1     -49.707  27.192  33.917  0.00  0.00     0.266 C 
ATOM      3  O   UNL d   1     -49.441  27.661  33.306  0.00  0.00    -0.267 OA
ENDROOT
BRANCH   1   4
ATOM      4  C   UNL d   1     -49.079  28.064  34.861  0.00  0.00     0.182 A 
ATOM      5  N   UNL d   1     -48.526  28.141  35.469  0.00  0.00    -0.222 NA
ATOM      6  C   UNL d   1     -48.202  28.895  35.436  0.00  0.00     0.089 A 
ATOM      7  C   UNL d   1     -47.641  29.276  35.887  0.00  0.00     0.018 A 
ATOM      8  C   UNL d   1     -48.559  29.291  34.800  0.00  0.00     0.050 A 
ATOM      9  C   UNL d   1     -47.423  30.051  35.719  0.00  0.00     0.002 A 
ATOM     10  C   UNL d   1     -47.280  28.887  36.525  0.00  0.00     0.002 C 
ATOM     11  C   UNL d   1     -47.777  30.438  35.090  0.00  0.00     0.001 A 
ATOM     12  C   UNL d   1     -48.345  30.052  34.634  0.00  0.00     0.008 A 
ATOM     13  S   UNL d   1     -49.101  28.778  34.444  0.00  0.00    -0.048 SA
ENDBRANCH   1   4
BRANCH   1  14
ATOM     14  C   UNL d   1     -49.802  26.909  35.319  0.00  0.00     0.086 C 
BRANCH  14  15
ATOM     15  C   UNL d   1     -50.025  27.256  36.037  0.00  0.00     0.038 C 
BRANCH  15  16
ATOM     16  C   UNL d   1     -50.329  26.786  36.642  0.00  0.00     0.082 C 
BRANCH  16  17
ATOM     17  N   UNL d   1     -50.671  27.136  37.304  0.00  0.00    -0.300 N 
ATOM     18  C   UNL d   1     -50.218  27.611  37.799  0.00  0.00     0.100 C 
ATOM     19  C   UNL d   1     -51.466  27.009  37.468  0.00  0.00     0.100 C 
ENDBRANCH  16  17
ENDBRANCH  15  16
ENDBRANCH  14  15
ENDBRANCH   1  14
BRANCH   2  20
ATOM     20  C   UNL d   1     -50.157  26.516  33.762  0.00  0.00     0.057 A 
ATOM     21  C   UNL d   1     -50.979  26.561  33.720  0.00  0.00     0.013 A 
ATOM     22  C   UNL d   1     -51.413  25.872  33.564  0.00  0.00     0.049 A 
ATOM     23  S   UNL d   1     -52.229  25.753  33.492  0.00  0.00    -0.064 SA
ATOM     24  C   UNL d   1     -51.033  25.148  33.451  0.00  0.00     0.088 A 
ATOM     25  C   UNL d   1     -52.347  24.948  33.333  0.00  0.00     0.135 A 
ATOM     26  N   UNL d   1     -51.607  24.577  33.308  0.00  0.00    -0.236 NA
ATOM     27  C   UNL d   1     -50.211  25.104  33.493  0.00  0.00     0.020 A 
ATOM     28  C   UNL d   1     -49.769  25.783  33.648  0.00  0.00     0.006 A 
ENDBRANCH   2  20
TORSDOF 6
ENDMDL
MODEL 3
REMARK VINA RESULT:      87.5      1.015      4.526
REMARK  6 active torsions:
REMARK  status: ('A' for Active; 'I' for Inactive)
REMARK    1  A    between atoms: N_3  and  C_1 
REMARK       I    between atoms: C_5  and  N_3 
REMARK    2  A    between atoms: C_19  and  N_3 
REMARK    3  A    between atoms: C_8  and  C_5 
REMARK    4  A    between atoms: C_20  and  C_19 
REMARK    5  A    between atoms: C_23  and  C_20 
REMARK    6  A    between atoms: N_21  and  C_23 
ROOT
ATOM      1  N   UNL d   1     -50.325  26.905  34.456  0.00  0.00    -0.253 N 
ATOM      2  C   UNL d   1     -49.694  27.194  34.006  0.00  0.00     0.266 C 
ATOM      3  O   UNL d   1     -49.485  26.833  33.306  0.00  0.00    -0.267 OA
ENDROOT
BRANCH   1   4
ATOM      4  C   UNL d   1     -50.744  26.238  34.185  0.00  0.00     0.182 A 
ATOM      5  N   UNL d   1     -50.420  25.494  34.037  0.00  0.00    -0.222 NA
ATOM      6  C   UNL d   1     -51.017  24.993  33.779  0.00  0.00     0.089 A 
ATOM      7  C   UNL d   1     -51.025  24.210  33.556  0.00  0.00     0.018 A 
ATOM      8  C   UNL d   1     -51.721  25.432  33.767  0.00  0.00     0.050 A 
ATOM      9  C   UNL d   1     -51.723  23.847  33.317  0.00  0.00     0.002 A 
ATOM     10  C   UNL d   1     -50.325  23.763  33.565  0.00  0.00     0.002 C 
ATOM     11  C   UNL d   1     -52.416  24.284  33.306  0.00  0.00     0.001 A 
ATOM     12  C   UNL d   1     -52.408  25.077  33.532  0.00  0.00     0.008 A 
ATOM     13  S   UNL d   1     -51.554  26.202  34.018  0.00  0.00    -0.048 SA
ENDBRANCH   1   4
BRANCH   1  14
ATOM     14  C   UNL d   1     -50.537  27.270  35.163  0.00  0.00     0.086 C 
BRANCH  14  15
ATOM     15  C   UNL d   1     -50.752  26.809  35.817  0.00  0.00     0.038 C 
BRANCH  15  16
ATOM     16  C   UNL d   1     -50.932  27.173  36.534  0.00  0.00     0.082 C 
BRANCH  16  17
ATOM     17  N   UNL d   1     -51.139  26.717  37.187  0.00  0.00    -0.300 N 
ATOM     18  C   UNL d   1     -50.841  26.904  37.931  0.00  0.00     0.100 C 
ATOM     19  C   UNL d   1     -51.645  26.076  37.094  0.00  0.00     0.100 C 
ENDBRANCH  16  17
ENDBRANCH  15  16
ENDBRANCH  14  15
ENDBRANCH   1  14
BRANCH   2  20
ATOM     20  C   UNL d   1     -49.281  27.855  34.278  0.00  0.00     0.057 A 
ATOM     21  C   UNL d   1     -48.635  27.768  34.782  0.00  0.00     0.013 A 
ATOM     22  C   UNL d   1     -48.232  28.444  35.044  0.00  0.00     0.049 A 
ATOM     23  S   UNL d   1     -47.577  28.522  35.543  0.00  0.00    -0.064 SA
ATOM     24  C   UNL d   1     -48.471  29.197  34.806  0.00  0.00     0.088 A 
ATOM     25  C   UNL d   1     -47.414  29.332  35.611  0.00  0.00     0.135 A 
ATOM     26  N   UNL d   1     -47.968  29.747  35.155  0.00  0.00    -0.236 NA
ATOM     27  C   UNL d   1     -49.117  29.285  34.302  0.00  0.00     0.020 A 
ATOM     28  C   UNL d   1     -49.524  28.619  34.035  0.00  0.00     0.006 A 
ENDBRANCH   2  20
TORSDOF 6
ENDMDL
