MODEL 1
REMARK VINA RESULT:      -5.0      0.000      0.000
REMARK  5 active torsions:
REMARK  status: ('A' for Active; 'I' for Inactive)
REMARK    1  A    between atoms: C_2  and  N_1 
REMARK    2  A    between atoms: N_5  and  C_3 
REMARK       I    between atoms: C_4  and  N_5 
REMARK       I    between atoms: N_9  and  C_4 
REMARK    3  A    between atoms: O_11  and  N_9 
REMARK    4  A    between atoms: C_13  and  O_11 
REMARK    5  A    between atoms: C_14  and  C_13 
ROOT
ATOM      1  C   UNL d   1     -42.015-122.542 -50.363  0.00  0.00     0.156 A 
ATOM      2  C   UNL d   1     -41.574-122.999 -50.889  0.00  0.00     0.160 A 
ATOM      3  C   UNL d   1     -42.012-122.718 -49.563  0.00  0.00     0.026 A 
ATOM      4  C   UNL d   1     -41.125-123.642 -50.607  0.00  0.00     0.034 A 
ATOM      5  C   UNL d   1     -41.566-123.357 -49.280  0.00  0.00     0.002 A 
ATOM      6  C   UNL d   1     -41.123-123.817 -49.812  0.00  0.00     0.003 A 
ENDROOT
BRANCH   2   7
ATOM      7  N   UNL d   1     -41.577-122.821 -51.698  0.00  0.00    -0.335 NA
ATOM      8  C   UNL d   1     -41.580-122.645 -52.503  0.00  0.00     0.499 C 
ATOM      9  O   UNL d   1     -41.312-123.403 -52.661  0.00  0.00    -0.211 OA
ATOM     10  N   UNL d   1     -41.582-122.469 -53.304  0.00  0.00    -0.199 NA
BRANCH  10  11
ATOM     11  O   UNL d   1     -41.585-122.291 -54.112  0.00  0.00    -0.156 OA
BRANCH  11  12
ATOM     12  C   UNL d   1     -42.058-121.823 -54.602  0.00  0.00     0.163 C 
BRANCH  12  13
ATOM     13  C   UNL d   1     -41.697-122.155 -55.259  0.00  0.00     0.030 C 
ATOM     14  C   UNL d   1     -42.356-121.975 -55.713  0.00  0.00     0.002 C 
ENDBRANCH  12  13
ENDBRANCH  11  12
ENDBRANCH  10  11
ENDBRANCH   2   7
BRANCH   1  15
ATOM     15  N   UNL d   1     -42.461-121.903 -50.646  0.00  0.00    -0.111 N 
ATOM     16  O   UNL d   1     -43.270-121.977 -50.782  0.00  0.00    -0.532 OA
ATOM     17  O   UNL d   1     -42.080-121.174 -50.794  0.00  0.00    -0.532 OA
ENDBRANCH   1  15
TORSDOF 5
ENDMDL
MODEL 2
REMARK VINA RESULT:      -4.4      1.129      4.113
REMARK  5 active torsions:
REMARK  status: ('A' for Active; 'I' for Inactive)
REMARK    1  A    between atoms: C_2  and  N_1 
REMARK    2  A    between atoms: N_5  and  C_3 
REMARK       I    between atoms: C_4  and  N_5 
REMARK       I    between atoms: N_9  and  C_4 
REMARK    3  A    between atoms: O_11  and  N_9 
REMARK    4  A    between atoms: C_13  and  O_11 
REMARK    5  A    between atoms: C_14  and  C_13 
ROOT
ATOM      1  C   UNL d   1     -41.822-122.338 -54.219  0.00  0.00     0.156 A 
ATOM      2  C   UNL d   1     -41.591-122.994 -53.775  0.00  0.00     0.160 A 
ATOM      3  C   UNL d   1     -41.707-122.329 -55.030  0.00  0.00     0.026 A 
ATOM      4  C   UNL d   1     -41.239-123.649 -54.152  0.00  0.00     0.034 A 
ATOM      5  C   UNL d   1     -41.358-122.979 -55.406  0.00  0.00     0.002 A 
ATOM      6  C   UNL d   1     -41.125-123.639 -54.958  0.00  0.00     0.003 A 
ENDROOT
BRANCH   2   7
ATOM      7  N   UNL d   1     -41.707-123.003 -52.955  0.00  0.00    -0.335 NA
ATOM      8  C   UNL d   1     -41.822-123.013 -52.139  0.00  0.00     0.499 C 
ATOM      9  O   UNL d   1     -41.662-123.817 -52.135  0.00  0.00    -0.211 OA
ATOM     10  N   UNL d   1     -41.937-123.022 -51.327  0.00  0.00    -0.199 NA
BRANCH  10  11
ATOM     11  O   UNL d   1     -42.053-123.032 -50.507  0.00  0.00    -0.156 OA
BRANCH  11  12
ATOM     12  C   UNL d   1     -42.561-122.636 -49.989  0.00  0.00     0.163 C 
BRANCH  12  13
ATOM     13  C   UNL d   1     -42.370-123.176 -49.401  0.00  0.00     0.030 C 
ATOM     14  C   UNL d   1     -42.853-122.773 -48.875  0.00  0.00     0.002 C 
ENDBRANCH  12  13
ENDBRANCH  11  12
ENDBRANCH  10  11
ENDBRANCH   2   7
BRANCH   1  15
ATOM     15  N   UNL d   1     -42.171-121.688 -53.842  0.00  0.00    -0.111 N 
ATOM     16  O   UNL d   1     -41.715-121.143 -53.425  0.00  0.00    -0.532 OA
ATOM     17  O   UNL d   1     -43.000-121.587 -53.887  0.00  0.00    -0.532 OA
ENDBRANCH   1  15
TORSDOF 5
ENDMDL
MODEL 3
REMARK VINA RESULT:      -4.3      1.183      1.643
REMARK  5 active torsions:
REMARK  status: ('A' for Active; 'I' for Inactive)
REMARK    1  A    between atoms: C_2  and  N_1 
REMARK    2  A    between atoms: N_5  and  C_3 
REMARK       I    between atoms: C_4  and  N_5 
REMARK       I    between atoms: N_9  and  C_4 
REMARK    3  A    between atoms: O_11  and  N_9 
REMARK    4  A    between atoms: C_13  and  O_11 
REMARK    5  A    between atoms: C_14  and  C_13 
ROOT
ATOM      1  C   UNL d   1     -42.692-123.161 -49.231  0.00  0.00     0.156 A 
ATOM      2  C   UNL d   1     -41.919-123.141 -49.518  0.00  0.00     0.160 A 
ATOM      3  C   UNL d   1     -42.832-123.213 -48.426  0.00  0.00     0.026 A 
ATOM      4  C   UNL d   1     -41.278-123.173 -48.987  0.00  0.00     0.034 A 
ATOM      5  C   UNL d   1     -42.195-123.246 -47.896  0.00  0.00     0.002 A 
ATOM      6  C   UNL d   1     -41.416-123.226 -48.186  0.00  0.00     0.003 A 
ENDROOT
BRANCH   2   7
ATOM      7  N   UNL d   1     -41.778-123.088 -50.332  0.00  0.00    -0.335 NA
ATOM      8  C   UNL d   1     -41.638-123.035 -51.142  0.00  0.00     0.499 C 
ATOM      9  O   UNL d   1     -41.123-122.412 -51.003  0.00  0.00    -0.211 OA
ATOM     10  N   UNL d   1     -41.498-122.982 -51.948  0.00  0.00    -0.199 NA
BRANCH  10  11
ATOM     11  O   UNL d   1     -41.357-122.929 -52.763  0.00  0.00    -0.156 OA
BRANCH  11  12
ATOM     12  C   UNL d   1     -41.817-122.728 -53.419  0.00  0.00     0.163 C 
BRANCH  12  13
ATOM     13  C   UNL d   1     -41.256-123.071 -53.910  0.00  0.00     0.030 C 
ATOM     14  C   UNL d   1     -41.591-122.693 -54.556  0.00  0.00     0.002 C 
ENDBRANCH  12  13
ENDBRANCH  11  12
ENDBRANCH  10  11
ENDBRANCH   2   7
BRANCH   1  15
ATOM     15  N   UNL d   1     -43.329-123.128 -49.761  0.00  0.00    -0.111 N 
ATOM     16  O   UNL d   1     -43.680-123.817 -50.046  0.00  0.00    -0.532 OA
ATOM     17  O   UNL d   1     -43.616-122.383 -50.008  0.00  0.00    -0.532 OA
ENDBRANCH   1  15
TORSDOF 5
ENDMDL
MODEL 4
REMARK VINA RESULT:      -4.2      0.987      4.438
REMARK  5 active torsions:
REMARK  status: ('A' for Active; 'I' for Inactive)
REMARK    1  A    between atoms: C_2  and  N_1 
REMARK    2  A    between atoms: N_5  and  C_3 
REMARK       I    between atoms: C_4  and  N_5 
REMARK       I    between atoms: N_9  and  C_4 
REMARK    3  A    between atoms: O_11  and  N_9 
REMARK    4  A    between atoms: C_13  and  O_11 
REMARK    5  A    between atoms: C_14  and  C_13 
ROOT
ATOM      1  C   UNL d   1     -41.957-122.665 -54.602  0.00  0.00     0.156 A 
ATOM      2  C   UNL d   1     -41.947-122.008 -54.103  0.00  0.00     0.160 A 
ATOM      3  C   UNL d   1     -42.069-122.569 -55.408  0.00  0.00     0.026 A 
ATOM      4  C   UNL d   1     -42.053-121.244 -54.420  0.00  0.00     0.034 A 
ATOM      5  C   UNL d   1     -42.174-121.810 -55.724  0.00  0.00     0.002 A 
ATOM      6  C   UNL d   1     -42.164-121.149 -55.220  0.00  0.00     0.003 A 
ENDROOT
BRANCH   2   7
ATOM      7  N   UNL d   1     -41.834-122.105 -53.289  0.00  0.00    -0.335 NA
ATOM      8  C   UNL d   1     -41.721-122.202 -52.478  0.00  0.00     0.499 C 
ATOM      9  O   UNL d   1     -41.178-121.587 -52.490  0.00  0.00    -0.211 OA
ATOM     10  N   UNL d   1     -41.608-122.298 -51.672  0.00  0.00    -0.199 NA
BRANCH  10  11
ATOM     11  O   UNL d   1     -41.495-122.395 -50.857  0.00  0.00    -0.156 OA
BRANCH  11  12
ATOM     12  C   UNL d   1     -41.500-123.043 -50.344  0.00  0.00     0.163 C 
BRANCH  12  13
ATOM     13  C   UNL d   1     -41.747-122.551 -49.736  0.00  0.00     0.030 C 
ATOM     14  C   UNL d   1     -41.607-123.151 -49.194  0.00  0.00     0.002 C 
ENDBRANCH  12  13
ENDBRANCH  11  12
ENDBRANCH  10  11
ENDBRANCH   2   7
BRANCH   1  15
ATOM     15  N   UNL d   1     -41.852-123.424 -54.285  0.00  0.00    -0.111 N 
ATOM     16  O   UNL d   1     -41.123-123.806 -54.330  0.00  0.00    -0.532 OA
ATOM     17  O   UNL d   1     -42.498-123.805 -53.916  0.00  0.00    -0.532 OA
ENDBRANCH   1  15
TORSDOF 5
ENDMDL
