MODEL 1
REMARK VINA RESULT:      51.2      0.000      0.000
REMARK  4 active torsions:
REMARK  status: ('A' for Active; 'I' for Inactive)
REMARK    1  A    between atoms: C_15  and  N_5 
REMARK    2  A    between atoms: N_13  and  C_7 
REMARK    3  A    between atoms: C_18  and  N_13 
REMARK    4  A    between atoms: C_16  and  C_15 
ROOT
ATOM      1  N   UNL d   1      13.875  14.177  -3.157  0.00  0.00     0.039 N 
ATOM      2  C   UNL d   1      13.438  13.828  -3.761  0.00  0.00     0.755 A 
ATOM      3  C   UNL d   1      14.118  13.748  -2.507  0.00  0.00     0.134 A 
ATOM      4  C   UNL d   1      13.924  12.945  -2.446  0.00  0.00     0.081 A 
ATOM      5  N   UNL d   1      13.243  13.022  -3.702  0.00  0.00    -0.103 N 
ATOM      6  C   UNL d   1      13.486  12.582  -3.044  0.00  0.00     0.281 A 
ATOM      7  C   UNL d   1      13.984  14.966  -3.362  0.00  0.00     0.768 A 
ATOM      8  N   UNL d   1      13.282  14.395  -4.327  0.00  0.00     0.060 NA
ATOM      9  S   UNL d   1      14.550  13.951  -1.838  0.00  0.00    -0.068 SA
ATOM     10  N   UNL d   1      13.619  15.100  -4.082  0.00  0.00     0.061 NA
ATOM     11  C   UNL d   1      14.237  12.655  -1.741  0.00  0.00     0.013 A 
ATOM     12  C   UNL d   1      14.624  13.277  -1.364  0.00  0.00     0.031 A 
ATOM     13  O   UNL d   1      13.293  11.780  -2.983  0.00  0.00    -0.266 OA
ATOM     14  C   UNL d   1      14.220  11.910  -1.394  0.00  0.00     0.001 A 
ATOM     15  C   UNL d   1      14.998  13.160  -0.637  0.00  0.00     0.006 A 
ATOM     16  C   UNL d   1      14.590  11.787  -0.670  0.00  0.00     0.000 A 
ATOM     17  C   UNL d   1      14.981  12.415  -0.290  0.00  0.00     0.001 A 
ENDROOT
BRANCH   7  18
ATOM     18  N   UNL d   1      14.395  15.529  -2.913  0.00  0.00    -0.059 NA
BRANCH  18  19
ATOM     19  C   UNL d   1      14.735  16.192  -3.282  0.00  0.00     0.100 A 
ATOM     20  C   UNL d   1      14.990  16.829  -2.816  0.00  0.00     0.020 A 
ATOM     21  C   UNL d   1      15.329  17.492  -3.177  0.00  0.00     0.002 A 
ATOM     22  C   UNL d   1      15.411  17.511  -4.002  0.00  0.00     0.000 A 
ATOM     23  C   UNL d   1      15.154  16.870  -4.466  0.00  0.00     0.002 A 
ATOM     24  C   UNL d   1      14.814  16.207  -4.097  0.00  0.00     0.020 A 
ENDBRANCH  18  19
ENDBRANCH   7  18
BRANCH   5  25
ATOM     25  C   UNL d   1      12.807  12.662  -4.298  0.00  0.00     0.101 C 
BRANCH  25  26
ATOM     26  C   UNL d   1      13.113  12.013  -4.702  0.00  0.00     0.020 C 
ATOM     27  C   UNL d   1      12.795  11.782  -5.426  0.00  0.00     0.002 C 
ENDBRANCH  25  26
ENDBRANCH   5  25
TORSDOF 4
ENDMDL
