MODEL 1
REMARK VINA RESULT:      53.7      0.000      0.000
REMARK  3 active torsions:
REMARK  status: ('A' for Active; 'I' for Inactive)
REMARK    1  A    between atoms: C_4  and  S_1 
REMARK    2  A    between atoms: N_7  and  S_1 
REMARK    3  A    between atoms: C_14  and  N_7 
ROOT
ATOM      1  S   UNL d   1      59.222  49.704  50.353  0.00  0.00     0.285 S 
ATOM      2  O   UNL d   1      58.979  49.704  51.127  0.00  0.00    -0.198 OA
ATOM      3  O   UNL d   1      59.492  49.704  49.543  0.00  0.00    -0.198 OA
ENDROOT
BRANCH   1   4
ATOM      4  C   UNL d   1      58.427  49.703  50.089  0.00  0.00     0.105 A 
ATOM      5  C   UNL d   1      57.827  49.700  50.628  0.00  0.00     0.012 A 
ATOM      6  C   UNL d   1      57.023  49.700  50.352  0.00  0.00     0.001 A 
ATOM      7  C   UNL d   1      57.982  49.698  51.465  0.00  0.00     0.001 C 
ATOM      8  C   UNL d   1      56.844  49.701  49.575  0.00  0.00     0.000 A 
ATOM      9  C   UNL d   1      57.494  49.704  48.992  0.00  0.00     0.001 A 
ATOM     10  C   UNL d   1      56.041  49.700  49.387  0.00  0.00     0.000 C 
ATOM     11  C   UNL d   1      58.241  49.705  49.259  0.00  0.00     0.013 A 
ENDBRANCH   1   4
BRANCH   1  12
ATOM     12  N   UNL d   1      60.007  49.705  50.586  0.00  0.00    -0.158 NA
BRANCH  12  13
ATOM     13  C   UNL d   1      60.439  48.974  50.712  0.00  0.00     0.094 A 
ATOM     14  C   UNL d   1      60.722  48.530  50.084  0.00  0.00     0.029 A 
ATOM     15  C   UNL d   1      61.128  47.842  50.202  0.00  0.00     0.059 A 
ATOM     16  S   UNL d   1      61.467  47.300  49.657  0.00  0.00    -0.018 SA
ATOM     17  C   UNL d   1      61.271  47.568  50.953  0.00  0.00     0.110 A 
ATOM     18  C   UNL d   1      61.800  46.719  50.146  0.00  0.00     0.332 A 
ATOM     19  O   UNL d   1      62.209  46.048  49.806  0.00  0.00    -0.251 OA
ATOM     20  O   UNL d   1      61.694  46.861  50.898  0.00  0.00    -0.268 OA
ATOM     21  C   UNL d   1      61.010  47.976  51.587  0.00  0.00     0.027 A 
ATOM     22  C   UNL d   1      60.585  48.692  51.500  0.00  0.00     0.022 A 
ENDBRANCH  12  13
ENDBRANCH   1  12
TORSDOF 3
ENDMDL
