MODEL 1
REMARK VINA RESULT:      -3.5      0.000      0.000
REMARK  7 active torsions:
REMARK  status: ('A' for Active; 'I' for Inactive)
REMARK    1  A    between atoms: C_10  and  C_3 
REMARK    2  A    between atoms: N_12  and  C_4 
REMARK    3  A    between atoms: O_23  and  C_11 
REMARK    4  A    between atoms: C_25  and  N_12 
REMARK    5  A    between atoms: O_26  and  C_13 
REMARK    6  A    between atoms: C_18  and  C_28 
REMARK    7  A    between atoms: C_28  and  C_25 
ROOT
ATOM      1  C   UNL d   1     -40.538  14.530  19.308  0.00  0.00     0.168 A 
ATOM      2  N   UNL d   1     -41.171  14.143  19.697  0.00  0.00    -0.184 N 
ATOM      3  C   UNL d   1     -40.417  14.411  18.527  0.00  0.00     0.057 A 
ATOM      4  C   UNL d   1     -41.279  14.272  20.474  0.00  0.00     0.218 A 
ATOM      5  N   UNL d   1     -41.527  13.535  18.486  0.00  0.00    -0.160 NA
ATOM      6  N   UNL d   1     -40.054  15.019  19.721  0.00  0.00    -0.227 NA
ATOM      7  C   UNL d   1     -40.795  14.765  20.899  0.00  0.00     0.071 A 
ATOM      8  C   UNL d   1     -40.913  13.910  18.109  0.00  0.00     0.124 A 
ATOM      9  C   UNL d   1     -40.171  15.146  20.516  0.00  0.00     0.087 A 
ATOM     10  C   UNL d   1     -39.661  15.663  20.953  0.00  0.00     0.021 C 
ENDROOT
BRANCH   4  11
ATOM     11  N   UNL d   1     -41.917  13.883  20.870  0.00  0.00    -0.380 NA
BRANCH  11  12
ATOM     12  C   UNL d   1     -42.530  13.721  21.427  0.00  0.00     0.163 C 
BRANCH  12  13
ATOM     13  C   UNL d   1     -42.834  12.939  21.476  0.00  0.00     0.035 C 
BRANCH  13  14
ATOM     14  C   UNL d   1     -43.606  12.824  21.796  0.00  0.00     0.005 A 
ATOM     15  C   UNL d   1     -43.735  12.183  22.347  0.00  0.00     0.026 A 
ATOM     16  C   UNL d   1     -44.514  12.060  22.675  0.00  0.00     0.116 A 
ATOM     17  C   UNL d   1     -45.153  12.580  22.449  0.00  0.00     0.116 A 
ATOM     18  C   UNL d   1     -45.015  13.205  21.909  0.00  0.00     0.026 A 
ATOM     19  C   UNL d   1     -44.233  13.325  21.582  0.00  0.00     0.002 A 
BRANCH  16  20
ATOM     20  O   UNL d   1     -44.649  11.436  23.212  0.00  0.00    -0.326 OA
ATOM     21  C   UNL d   1     -44.085  10.816  23.291  0.00  0.00     0.181 C 
ENDBRANCH  16  20
BRANCH  17  22
ATOM     22  O   UNL d   1     -45.920  12.459  22.772  0.00  0.00    -0.326 OA
ATOM     23  C   UNL d   1     -46.462  13.105  22.847  0.00  0.00     0.181 C 
ENDBRANCH  17  22
ENDBRANCH  13  14
ENDBRANCH  12  13
ENDBRANCH  11  12
ENDBRANCH   4  11
BRANCH   3  24
ATOM     24  C   UNL d   1     -39.803  14.786  18.150  0.00  0.00     0.005 A 
ATOM     25  C   UNL d   1     -39.891  15.542  17.897  0.00  0.00     0.001 A 
ATOM     26  C   UNL d   1     -39.278  15.917  17.520  0.00  0.00     0.011 A 
ATOM     27  C   UNL d   1     -38.585  15.530  17.401  0.00  0.00     0.058 A 
ATOM     28  C   UNL d   1     -38.506  14.767  17.660  0.00  0.00     0.011 A 
ATOM     29 CL   UNL d   1     -37.942  15.922  17.006  0.00  0.00    -0.082 Cl
ATOM     30  C   UNL d   1     -39.110  14.398  18.032  0.00  0.00     0.001 A 
ENDBRANCH   3  24
TORSDOF 7
ENDMDL
MODEL 2
REMARK VINA RESULT:      -3.1      3.359      6.934
REMARK  7 active torsions:
REMARK  status: ('A' for Active; 'I' for Inactive)
REMARK    1  A    between atoms: C_10  and  C_3 
REMARK    2  A    between atoms: N_12  and  C_4 
REMARK    3  A    between atoms: O_23  and  C_11 
REMARK    4  A    between atoms: C_25  and  N_12 
REMARK    5  A    between atoms: O_26  and  C_13 
REMARK    6  A    between atoms: C_18  and  C_28 
REMARK    7  A    between atoms: C_28  and  C_25 
ROOT
ATOM      1  C   UNL d   1     -45.115  12.858  22.273  0.00  0.00     0.168 A 
ATOM      2  N   UNL d   1     -44.431  13.218  21.951  0.00  0.00    -0.184 N 
ATOM      3  C   UNL d   1     -45.810  13.253  22.278  0.00  0.00     0.057 A 
ATOM      4  C   UNL d   1     -43.748  12.813  21.953  0.00  0.00     0.218 A 
ATOM      5  N   UNL d   1     -45.187  14.360  21.656  0.00  0.00    -0.160 NA
ATOM      6  N   UNL d   1     -45.071  12.116  22.575  0.00  0.00    -0.227 NA
ATOM      7  C   UNL d   1     -43.694  12.062  22.257  0.00  0.00     0.071 A 
ATOM      8  C   UNL d   1     -45.850  14.011  21.968  0.00  0.00     0.124 A 
ATOM      9  C   UNL d   1     -44.368  11.707  22.574  0.00  0.00     0.087 A 
ATOM     10  C   UNL d   1     -44.321  10.924  22.894  0.00  0.00     0.021 C 
ENDROOT
BRANCH   4  11
ATOM     11  N   UNL d   1     -43.054  13.173  21.629  0.00  0.00    -0.380 NA
BRANCH  11  12
ATOM     12  C   UNL d   1     -42.265  13.275  21.349  0.00  0.00     0.163 C 
BRANCH  12  13
ATOM     13  C   UNL d   1     -42.035  14.029  21.057  0.00  0.00     0.035 C 
BRANCH  13  14
ATOM     14  C   UNL d   1     -41.228  14.151  20.841  0.00  0.00     0.005 A 
ATOM     15  C   UNL d   1     -41.025  14.198  20.012  0.00  0.00     0.026 A 
ATOM     16  C   UNL d   1     -40.210  14.321  19.785  0.00  0.00     0.116 A 
ATOM     17  C   UNL d   1     -39.611  14.395  20.390  0.00  0.00     0.116 A 
ATOM     18  C   UNL d   1     -39.823  14.347  21.199  0.00  0.00     0.026 A 
ATOM     19  C   UNL d   1     -40.640  14.224  21.422  0.00  0.00     0.002 A 
BRANCH  16  20
ATOM     20  O   UNL d   1     -40.003  14.369  18.978  0.00  0.00    -0.326 OA
ATOM     21  C   UNL d   1     -40.602  14.404  18.388  0.00  0.00     0.181 C 
ENDBRANCH  16  20
BRANCH  17  22
ATOM     22  O   UNL d   1     -38.810  14.516  20.166  0.00  0.00    -0.326 OA
ATOM     23  C   UNL d   1     -38.193  14.498  20.747  0.00  0.00     0.181 C 
ENDBRANCH  17  22
ENDBRANCH  13  14
ENDBRANCH  12  13
ENDBRANCH  11  12
ENDBRANCH   4  11
BRANCH   3  24
ATOM     24  C   UNL d   1     -46.473  12.904  22.590  0.00  0.00     0.005 A 
ATOM     25  C   UNL d   1     -46.572  12.873  23.386  0.00  0.00     0.001 A 
ATOM     26  C   UNL d   1     -47.235  12.524  23.698  0.00  0.00     0.011 A 
ATOM     27  C   UNL d   1     -47.790  12.211  23.209  0.00  0.00     0.058 A 
ATOM     28  C   UNL d   1     -47.680  12.247  22.408  0.00  0.00     0.011 A 
ATOM     29 CL   UNL d   1     -48.484  11.845  23.536  0.00  0.00    -0.082 Cl
ATOM     30  C   UNL d   1     -47.027  12.590  22.101  0.00  0.00     0.001 A 
ENDBRANCH   3  24
TORSDOF 7
ENDMDL
MODEL 3
REMARK VINA RESULT:      -2.6      4.165      7.691
REMARK  7 active torsions:
REMARK  status: ('A' for Active; 'I' for Inactive)
REMARK    1  A    between atoms: C_10  and  C_3 
REMARK    2  A    between atoms: N_12  and  C_4 
REMARK    3  A    between atoms: O_23  and  C_11 
REMARK    4  A    between atoms: C_25  and  N_12 
REMARK    5  A    between atoms: O_26  and  C_13 
REMARK    6  A    between atoms: C_18  and  C_28 
REMARK    7  A    between atoms: C_28  and  C_25 
ROOT
ATOM      1  C   UNL d   1     -47.183  12.811  22.643  0.00  0.00     0.168 A 
ATOM      2  N   UNL d   1     -46.360  12.698  22.532  0.00  0.00    -0.184 N 
ATOM      3  C   UNL d   1     -47.661  12.180  22.751  0.00  0.00     0.057 A 
ATOM      4  C   UNL d   1     -45.897  13.335  22.426  0.00  0.00     0.218 A 
ATOM      5  N   UNL d   1     -46.547  11.314  22.644  0.00  0.00    -0.160 NA
ATOM      6  N   UNL d   1     -47.488  13.553  22.641  0.00  0.00    -0.227 NA
ATOM      7  C   UNL d   1     -46.198  14.090  22.423  0.00  0.00     0.071 A 
ATOM      8  C   UNL d   1     -47.345  11.423  22.752  0.00  0.00     0.124 A 
ATOM      9  C   UNL d   1     -47.008  14.201  22.532  0.00  0.00     0.087 A 
ATOM     10  C   UNL d   1     -47.330  14.984  22.530  0.00  0.00     0.021 C 
ENDROOT
BRANCH   4  11
ATOM     11  N   UNL d   1     -45.066  13.226  22.314  0.00  0.00    -0.380 NA
BRANCH  11  12
ATOM     12  C   UNL d   1     -44.246  13.395  22.207  0.00  0.00     0.163 C 
BRANCH  12  13
ATOM     13  C   UNL d   1     -43.888  13.207  21.471  0.00  0.00     0.035 C 
BRANCH  13  14
ATOM     14  C   UNL d   1     -43.069  13.379  21.362  0.00  0.00     0.005 A 
ATOM     15  C   UNL d   1     -42.845  14.148  21.062  0.00  0.00     0.026 A 
ATOM     16  C   UNL d   1     -42.018  14.330  20.950  0.00  0.00     0.116 A 
ATOM     17  C   UNL d   1     -41.427  13.742  21.139  0.00  0.00     0.116 A 
ATOM     18  C   UNL d   1     -41.660  12.993  21.433  0.00  0.00     0.026 A 
ATOM     19  C   UNL d   1     -42.489  12.814  21.544  0.00  0.00     0.002 A 
BRANCH  16  20
ATOM     20  O   UNL d   1     -41.790  15.078  20.658  0.00  0.00    -0.326 OA
ATOM     21  C   UNL d   1     -42.082  15.781  21.017  0.00  0.00     0.181 C 
ENDBRANCH  16  20
BRANCH  17  22
ATOM     22  O   UNL d   1     -40.613  13.922  21.029  0.00  0.00    -0.326 OA
ATOM     23  C   UNL d   1     -40.024  13.577  21.530  0.00  0.00     0.181 C 
ENDBRANCH  17  22
ENDBRANCH  13  14
ENDBRANCH  12  13
ENDBRANCH  11  12
ENDBRANCH   4  11
BRANCH   3  24
ATOM     24  C   UNL d   1     -48.458  12.289  22.858  0.00  0.00     0.005 A 
ATOM     25  C   UNL d   1     -48.744  12.454  23.590  0.00  0.00     0.001 A 
ATOM     26  C   UNL d   1     -49.542  12.563  23.698  0.00  0.00     0.011 A 
ATOM     27  C   UNL d   1     -50.041  12.505  23.072  0.00  0.00     0.058 A 
ATOM     28  C   UNL d   1     -49.743  12.338  22.339  0.00  0.00     0.011 A 
ATOM     29 CL   UNL d   1     -50.876  12.619  23.185  0.00  0.00    -0.082 Cl
ATOM     30  C   UNL d   1     -48.958  12.231  22.233  0.00  0.00     0.001 A 
ENDBRANCH   3  24
TORSDOF 7
ENDMDL
MODEL 4
REMARK VINA RESULT:      -2.0      3.523      4.451
REMARK  7 active torsions:
REMARK  status: ('A' for Active; 'I' for Inactive)
REMARK    1  A    between atoms: C_10  and  C_3 
REMARK    2  A    between atoms: N_12  and  C_4 
REMARK    3  A    between atoms: O_23  and  C_11 
REMARK    4  A    between atoms: C_25  and  N_12 
REMARK    5  A    between atoms: O_26  and  C_13 
REMARK    6  A    between atoms: C_18  and  C_28 
REMARK    7  A    between atoms: C_28  and  C_25 
ROOT
ATOM      1  C   UNL d   1     -39.258  15.087  17.008  0.00  0.00     0.168 A 
ATOM      2  N   UNL d   1     -39.401  15.454  17.748  0.00  0.00    -0.184 N 
ATOM      3  C   UNL d   1     -38.539  15.144  16.667  0.00  0.00     0.057 A 
ATOM      4  C   UNL d   1     -40.122  15.389  18.076  0.00  0.00     0.218 A 
ATOM      5  N   UNL d   1     -38.079  15.918  17.758  0.00  0.00    -0.160 NA
ATOM      6  N   UNL d   1     -39.846  14.679  16.645  0.00  0.00    -0.227 NA
ATOM      7  C   UNL d   1     -40.722  14.978  17.715  0.00  0.00     0.071 A 
ATOM      8  C   UNL d   1     -37.941  15.562  17.041  0.00  0.00     0.124 A 
ATOM      9  C   UNL d   1     -40.582  14.617  16.987  0.00  0.00     0.087 A 
ATOM     10  C   UNL d   1     -41.203  14.186  16.604  0.00  0.00     0.021 C 
ENDROOT
BRANCH   4  11
ATOM     11  N   UNL d   1     -40.269  15.758  18.822  0.00  0.00    -0.380 NA
BRANCH  11  12
ATOM     12  C   UNL d   1     -40.246  15.922  19.650  0.00  0.00     0.163 C 
BRANCH  12  13
ATOM     13  C   UNL d   1     -40.504  15.329  20.186  0.00  0.00     0.035 C 
BRANCH  13  14
ATOM     14  C   UNL d   1     -40.106  15.250  20.926  0.00  0.00     0.005 A 
ATOM     15  C   UNL d   1     -39.948  14.467  21.229  0.00  0.00     0.026 A 
ATOM     16  C   UNL d   1     -39.545  14.379  21.978  0.00  0.00     0.116 A 
ATOM     17  C   UNL d   1     -39.307  15.075  22.412  0.00  0.00     0.116 A 
ATOM     18  C   UNL d   1     -39.468  15.838  22.104  0.00  0.00     0.026 A 
ATOM     19  C   UNL d   1     -39.871  15.922  21.354  0.00  0.00     0.002 A 
BRANCH  16  20
ATOM     20  O   UNL d   1     -39.387  13.618  22.281  0.00  0.00    -0.326 OA
ATOM     21  C   UNL d   1     -38.788  13.139  21.934  0.00  0.00     0.181 C 
ENDBRANCH  16  20
BRANCH  17  22
ATOM     22  O   UNL d   1     -38.911  14.989  23.149  0.00  0.00    -0.326 OA
ATOM     23  C   UNL d   1     -38.603  15.665  23.554  0.00  0.00     0.181 C 
ENDBRANCH  17  22
ENDBRANCH  13  14
ENDBRANCH  12  13
ENDBRANCH  11  12
ENDBRANCH   4  11
BRANCH   3  24
ATOM     24  C   UNL d   1     -38.401  14.788  15.950  0.00  0.00     0.005 A 
ATOM     25  C   UNL d   1     -38.253  14.000  15.916  0.00  0.00     0.001 A 
ATOM     26  C   UNL d   1     -38.115  13.644  15.200  0.00  0.00     0.011 A 
ATOM     27  C   UNL d   1     -38.127  14.082  14.527  0.00  0.00     0.058 A 
ATOM     28  C   UNL d   1     -38.276  14.876  14.572  0.00  0.00     0.011 A 
ATOM     29 CL   UNL d   1     -37.982  13.710  13.777  0.00  0.00    -0.082 Cl
ATOM     30  C   UNL d   1     -38.412  15.226  15.277  0.00  0.00     0.001 A 
ENDBRANCH   3  24
TORSDOF 7
ENDMDL
MODEL 5
REMARK VINA RESULT:      -1.6      1.079      2.028
REMARK  7 active torsions:
REMARK  status: ('A' for Active; 'I' for Inactive)
REMARK    1  A    between atoms: C_10  and  C_3 
REMARK    2  A    between atoms: N_12  and  C_4 
REMARK    3  A    between atoms: O_23  and  C_11 
REMARK    4  A    between atoms: C_25  and  N_12 
REMARK    5  A    between atoms: O_26  and  C_13 
REMARK    6  A    between atoms: C_18  and  C_28 
REMARK    7  A    between atoms: C_28  and  C_25 
ROOT
ATOM      1  C   UNL d   1     -39.754  14.434  18.343  0.00  0.00     0.168 A 
ATOM      2  N   UNL d   1     -40.036  14.157  19.082  0.00  0.00    -0.184 N 
ATOM      3  C   UNL d   1     -39.046  14.185  18.068  0.00  0.00     0.057 A 
ATOM      4  C   UNL d   1     -40.742  14.413  19.343  0.00  0.00     0.218 A 
ATOM      5  N   UNL d   1     -38.872  13.391  19.226  0.00  0.00    -0.160 NA
ATOM      6  N   UNL d   1     -40.196  14.948  17.914  0.00  0.00    -0.227 NA
ATOM      7  C   UNL d   1     -41.195  14.933  18.915  0.00  0.00     0.071 A 
ATOM      8  C   UNL d   1     -38.598  13.660  18.510  0.00  0.00     0.124 A 
ATOM      9  C   UNL d   1     -40.917  15.205  18.187  0.00  0.00     0.087 A 
ATOM     10  C   UNL d   1     -41.384  15.748  17.735  0.00  0.00     0.021 C 
ENDROOT
BRANCH   4  11
ATOM     11  N   UNL d   1     -41.030  14.136  20.088  0.00  0.00    -0.380 NA
BRANCH  11  12
ATOM     12  C   UNL d   1     -41.441  13.675  20.663  0.00  0.00     0.163 C 
BRANCH  12  13
ATOM     13  C   UNL d   1     -42.280  13.715  20.689  0.00  0.00     0.035 C 
BRANCH  13  14
ATOM     14  C   UNL d   1     -42.695  13.188  21.200  0.00  0.00     0.005 A 
ATOM     15  C   UNL d   1     -43.508  13.362  21.401  0.00  0.00     0.026 A 
ATOM     16  C   UNL d   1     -43.935  12.832  21.919  0.00  0.00     0.116 A 
ATOM     17  C   UNL d   1     -43.545  12.137  22.227  0.00  0.00     0.116 A 
ATOM     18  C   UNL d   1     -42.748  11.978  22.022  0.00  0.00     0.026 A 
ATOM     19  C   UNL d   1     -42.323  12.510  21.503  0.00  0.00     0.002 A 
BRANCH  16  20
ATOM     20  O   UNL d   1     -44.728  12.995  22.121  0.00  0.00    -0.326 OA
ATOM     21  C   UNL d   1     -45.291  13.172  21.520  0.00  0.00     0.181 C 
ENDBRANCH  16  20
BRANCH  17  22
ATOM     22  O   UNL d   1     -43.966  11.617  22.735  0.00  0.00    -0.326 OA
ATOM     23  C   UNL d   1     -43.595  10.920  23.040  0.00  0.00     0.181 C 
ENDBRANCH  17  22
ENDBRANCH  13  14
ENDBRANCH  12  13
ENDBRANCH  11  12
ENDBRANCH   4  11
BRANCH   3  24
ATOM     24  C   UNL d   1     -38.772  14.453  17.352  0.00  0.00     0.005 A 
ATOM     25  C   UNL d   1     -38.943  14.047  16.681  0.00  0.00     0.001 A 
ATOM     26  C   UNL d   1     -38.669  14.315  15.965  0.00  0.00     0.011 A 
ATOM     27  C   UNL d   1     -38.229  14.985  15.931  0.00  0.00     0.058 A 
ATOM     28  C   UNL d   1     -38.062  15.387  16.614  0.00  0.00     0.011 A 
ATOM     29 CL   UNL d   1     -37.942  15.266  15.182  0.00  0.00    -0.082 Cl
ATOM     30  C   UNL d   1     -38.332  15.123  17.318  0.00  0.00     0.001 A 
ENDBRANCH   3  24
TORSDOF 7
ENDMDL
