MODEL 1
REMARK VINA RESULT:      67.8      0.000      0.000
REMARK  9 active torsions:
REMARK  status: ('A' for Active; 'I' for Inactive)
REMARK    1  A    between atoms: C_14  and  N_1 
REMARK    2  A    between atoms: S_6  and  C_2 
REMARK    3  A    between atoms: C_8  and  C_3 
REMARK    4  A    between atoms: C_16  and  S_6 
REMARK    5  A    between atoms: O_11  and  C_8 
REMARK    6  A    between atoms: C_9  and  C_16 
REMARK    7  A    between atoms: O_19  and  C_9 
REMARK    8  A    between atoms: C_12  and  O_11 
REMARK    9  A    between atoms: C_15  and  C_14 
ROOT
ATOM      1  N   UNL d   1      59.930  49.188  50.860  0.00  0.00    -0.266 N 
ATOM      2  C   UNL d   1      60.311  49.280  51.580  0.00  0.00     0.202 A 
ATOM      3  C   UNL d   1      59.131  49.370  50.972  0.00  0.00     0.196 A 
ATOM      4  N   UNL d   1      59.754  49.518  52.139  0.00  0.00    -0.121 NA
ATOM      5  N   UNL d   1      59.020  49.573  51.760  0.00  0.00    -0.126 NA
ENDROOT
BRANCH   3   6
ATOM      6  C   UNL d   1      58.544  49.351  50.392  0.00  0.00     0.162 C 
BRANCH   6   7
ATOM      7  O   UNL d   1      57.804  49.024  50.564  0.00  0.00    -0.300 OA
BRANCH   7   8
ATOM      8  C   UNL d   1      57.214  49.004  49.988  0.00  0.00     0.118 A 
ATOM      9  C   UNL d   1      56.920  48.284  49.732  0.00  0.00     0.104 A 
ATOM     10  N   UNL d   1      57.214  47.580  50.051  0.00  0.00    -0.242 NA
ATOM     11  C   UNL d   1      56.330  48.257  49.157  0.00  0.00     0.020 A 
ATOM     12  C   UNL d   1      56.920  46.860  49.796  0.00  0.00     0.099 A 
ATOM     13  C   UNL d   1      56.326  46.826  49.217  0.00  0.00     0.021 A 
ATOM     14  C   UNL d   1      56.035  47.530  48.901  0.00  0.00     0.003 A 
ATOM     15  C   UNL d   1      56.033  48.958  48.836  0.00  0.00     0.002 A 
ATOM     16  C   UNL d   1      56.333  49.681  49.096  0.00  0.00     0.002 A 
ATOM     17  C   UNL d   1      56.916  49.706  49.665  0.00  0.00     0.026 A 
ENDBRANCH   7   8
ENDBRANCH   6   7
ENDBRANCH   3   6
BRANCH   1  18
ATOM     18  C   UNL d   1      60.275  48.958  50.153  0.00  0.00     0.084 C 
BRANCH  18  19
ATOM     19  C   UNL d   1      60.359  49.507  49.542  0.00  0.00     0.019 C 
ATOM     20  C   UNL d   1      61.002  49.456  49.032  0.00  0.00     0.002 C 
ENDBRANCH  18  19
ENDBRANCH   1  18
BRANCH   2  21
ATOM     21  S   UNL d   1      61.109  49.158  51.726  0.00  0.00    -0.042 SA
BRANCH  21  22
ATOM     22  C   UNL d   1      61.361  48.811  52.431  0.00  0.00     0.107 C 
BRANCH  22  23
ATOM     23  C   UNL d   1      61.726  49.262  53.012  0.00  0.00     0.303 C 
ATOM     24  O   UNL d   1      61.415  49.277  53.781  0.00  0.00    -0.259 OA
BRANCH  23  25
ATOM     25  O   UNL d   1      62.401  49.702  52.840  0.00  0.00    -0.295 OA
ATOM     26  C   UNL d   1      63.011  49.378  52.394  0.00  0.00     0.185 C 
ENDBRANCH  23  25
ENDBRANCH  22  23
ENDBRANCH  21  22
ENDBRANCH   2  21
TORSDOF 9
ENDMDL
