MODEL 1
REMARK VINA RESULT:      49.2      0.000      0.000
REMARK  2 active torsions:
REMARK  status: ('A' for Active; 'I' for Inactive)
REMARK    1  A    between atoms: C_4  and  N_2 
REMARK    2  A    between atoms: C_7  and  C_4 
REMARK       I    between atoms: N_8  and  C_7 
ROOT
ATOM      1  S   UNL d   1     -51.886  25.689  33.451  0.00  0.00     0.274 S 
ATOM      2  N   UNL d   1     -51.072  25.710  33.420  0.00  0.00    -0.192 N 
ATOM      3  C   UNL d   1     -50.778  24.944  33.361  0.00  0.00     0.275 A 
ATOM      4  C   UNL d   1     -51.430  24.422  33.354  0.00  0.00     0.069 A 
ATOM      5  C   UNL d   1     -52.124  24.889  33.411  0.00  0.00     0.109 A 
ATOM      6  O   UNL d   1     -51.658  26.482  33.492  0.00  0.00    -0.200 OA
ATOM      7  O   UNL d   1     -52.695  25.870  33.495  0.00  0.00    -0.200 OA
ATOM      8  O   UNL d   1     -49.968  24.729  33.315  0.00  0.00    -0.266 OA
ATOM      9  C   UNL d   1     -51.485  23.617  33.306  0.00  0.00     0.005 A 
ATOM     10  C   UNL d   1     -52.850  24.535  33.417  0.00  0.00     0.013 A 
ATOM     11  C   UNL d   1     -52.242  23.251  33.313  0.00  0.00     0.000 A 
ATOM     12  C   UNL d   1     -52.921  23.708  33.368  0.00  0.00     0.001 A 
ENDROOT
BRANCH   2  13
ATOM     13  C   UNL d   1     -50.625  26.398  33.446  0.00  0.00     0.156 C 
BRANCH  13  14
ATOM     14  C   UNL d   1     -49.809  26.349  33.562  0.00  0.00     0.283 C 
ATOM     15  N   UNL d   1     -49.416  26.970  33.925  0.00  0.00    -0.271 N 
ATOM     16  C   UNL d   1     -49.809  27.642  34.178  0.00  0.00     0.083 A 
ATOM     17  C   UNL d   1     -48.592  26.915  34.040  0.00  0.00     0.083 A 
ATOM     18  C   UNL d   1     -49.402  28.256  34.541  0.00  0.00     0.019 A 
ATOM     19  C   UNL d   1     -48.590  28.213  34.659  0.00  0.00     0.003 A 
ATOM     20  C   UNL d   1     -48.193  27.534  34.403  0.00  0.00     0.019 A 
ATOM     21  C   UNL d   1     -48.176  28.837  35.027  0.00  0.00     0.000 C 
ATOM     22  O   UNL d   1     -49.400  25.667  33.306  0.00  0.00    -0.265 OA
ENDBRANCH  13  14
ENDBRANCH   2  13
TORSDOF 2
ENDMDL
MODEL 2
REMARK VINA RESULT:      50.4      0.675      1.552
REMARK  2 active torsions:
REMARK  status: ('A' for Active; 'I' for Inactive)
REMARK    1  A    between atoms: C_4  and  N_2 
REMARK    2  A    between atoms: C_7  and  C_4 
REMARK       I    between atoms: N_8  and  C_7 
ROOT
ATOM      1  S   UNL d   1     -50.390  25.055  33.370  0.00  0.00     0.274 S 
ATOM      2  N   UNL d   1     -50.534  25.857  33.364  0.00  0.00    -0.192 N 
ATOM      3  C   UNL d   1     -51.345  25.991  33.341  0.00  0.00     0.275 A 
ATOM      4  C   UNL d   1     -51.725  25.248  33.333  0.00  0.00     0.069 A 
ATOM      5  C   UNL d   1     -51.126  24.661  33.351  0.00  0.00     0.109 A 
ATOM      6  O   UNL d   1     -49.657  25.438  33.389  0.00  0.00    -0.200 OA
ATOM      7  O   UNL d   1     -50.047  24.299  33.382  0.00  0.00    -0.200 OA
ATOM      8  O   UNL d   1     -51.720  26.743  33.328  0.00  0.00    -0.266 OA
ATOM      9  C   UNL d   1     -52.504  25.032  33.312  0.00  0.00     0.005 A 
ATOM     10  C   UNL d   1     -51.327  23.879  33.348  0.00  0.00     0.013 A 
ATOM     11  C   UNL d   1     -52.709  24.218  33.308  0.00  0.00     0.000 A 
ATOM     12  C   UNL d   1     -52.123  23.643  33.326  0.00  0.00     0.001 A 
ENDROOT
BRANCH   2  13
ATOM     13  C   UNL d   1     -49.949  26.434  33.378  0.00  0.00     0.156 C 
BRANCH  13  14
ATOM     14  C   UNL d   1     -50.154  27.217  33.541  0.00  0.00     0.283 C 
ATOM     15  N   UNL d   1     -49.614  27.704  33.919  0.00  0.00    -0.271 N 
ATOM     16  C   UNL d   1     -48.872  27.436  34.142  0.00  0.00     0.083 A 
ATOM     17  C   UNL d   1     -49.825  28.494  34.081  0.00  0.00     0.083 A 
ATOM     18  C   UNL d   1     -48.342  27.936  34.520  0.00  0.00     0.019 A 
ATOM     19  C   UNL d   1     -48.539  28.716  34.685  0.00  0.00     0.003 A 
ATOM     20  C   UNL d   1     -49.288  28.986  34.460  0.00  0.00     0.019 A 
ATOM     21  C   UNL d   1     -48.000  29.225  35.070  0.00  0.00     0.000 C 
ATOM     22  O   UNL d   1     -50.908  27.497  33.317  0.00  0.00    -0.265 OA
ENDBRANCH  13  14
ENDBRANCH   2  13
TORSDOF 2
ENDMDL
