MODEL 1
REMARK VINA RESULT:      -2.1      0.000      0.000
REMARK  4 active torsions:
REMARK  status: ('A' for Active; 'I' for Inactive)
REMARK    1  A    between atoms: N_3  and  C_1 
REMARK    2  A    between atoms: C_7  and  C_2 
REMARK       I    between atoms: C_5  and  N_3 
REMARK    3  A    between atoms: C_4  and  C_5 
REMARK    4  A    between atoms: O_17  and  C_7 
ROOT
ATOM      1  N   UNL d   1      60.252  -0.592  28.763  0.00  0.00    -0.200 NA
ATOM      2  C   UNL d   1      60.100   0.110  29.167  0.00  0.00     0.304 C 
ATOM      3  O   UNL d   1      60.703   0.679  29.231  0.00  0.00    -0.263 OA
ENDROOT
BRANCH   2   4
ATOM      4  C   UNL d   1      59.357   0.241  29.501  0.00  0.00     0.182 A 
ATOM      5  O   UNL d   1      59.266   0.199  30.312  0.00  0.00    -0.298 OA
ATOM      6  C   UNL d   1      58.526   0.330  30.637  0.00  0.00     0.123 A 
ATOM      7  C   UNL d   1      58.426   0.289  31.459  0.00  0.00     0.027 A 
ATOM      8  C   UNL d   1      57.878   0.502  30.172  0.00  0.00     0.123 A 
ATOM      9  C   UNL d   1      57.685   0.420  31.788  0.00  0.00     0.002 A 
ATOM     10  C   UNL d   1      57.034   0.593  31.307  0.00  0.00     0.002 A 
ATOM     11  C   UNL d   1      57.134   0.634  30.487  0.00  0.00     0.027 A 
ATOM     12  O   UNL d   1      57.981   0.542  29.344  0.00  0.00    -0.301 OA
ATOM     13  C   UNL d   1      58.720   0.412  29.008  0.00  0.00     0.152 A 
ENDBRANCH   2   4
BRANCH   1  14
ATOM     14  C   UNL d   1      59.661  -1.159  28.695  0.00  0.00     0.119 A 
ATOM     15  C   UNL d   1      59.744  -1.967  28.851  0.00  0.00     0.087 A 
ATOM     16  C   UNL d   1      59.009  -2.331  28.710  0.00  0.00     0.014 A 
ATOM     17  C   UNL d   1      58.481  -1.744  28.469  0.00  0.00     0.037 A 
ATOM     18  S   UNL d   1      58.886  -1.028  28.461  0.00  0.00    -0.067 SA
BRANCH  15  19
ATOM     19  C   UNL d   1      60.428  -2.349  29.102  0.00  0.00     0.298 C 
ATOM     20  O   UNL d   1      61.082  -2.390  28.595  0.00  0.00    -0.259 OA
BRANCH  19  21
ATOM     21  O   UNL d   1      60.463  -2.690  29.852  0.00  0.00    -0.296 OA
ATOM     22  C   UNL d   1      61.065  -3.216  30.035  0.00  0.00     0.185 C 
ENDBRANCH  19  21
ENDBRANCH  15  19
ENDBRANCH   1  14
TORSDOF 4
ENDMDL
MODEL 2
REMARK VINA RESULT:      -1.4      1.293      1.915
REMARK  4 active torsions:
REMARK  status: ('A' for Active; 'I' for Inactive)
REMARK    1  A    between atoms: N_3  and  C_1 
REMARK    2  A    between atoms: C_7  and  C_2 
REMARK       I    between atoms: C_5  and  N_3 
REMARK    3  A    between atoms: C_4  and  C_5 
REMARK    4  A    between atoms: O_17  and  C_7 
ROOT
ATOM      1  N   UNL d   1      59.091  -0.598  28.975  0.00  0.00    -0.200 NA
ATOM      2  C   UNL d   1      58.283  -0.693  29.103  0.00  0.00     0.304 C 
ATOM      3  O   UNL d   1      57.823  -1.075  28.525  0.00  0.00    -0.263 OA
ENDROOT
BRANCH   2   4
ATOM      4  C   UNL d   1      57.939  -0.411  29.799  0.00  0.00     0.182 A 
ATOM      5  O   UNL d   1      57.638  -0.939  30.344  0.00  0.00    -0.298 OA
ATOM      6  C   UNL d   1      57.298  -0.654  31.031  0.00  0.00     0.123 A 
ATOM      7  C   UNL d   1      56.990  -1.184  31.588  0.00  0.00     0.027 A 
ATOM      8  C   UNL d   1      57.254   0.147  31.186  0.00  0.00     0.123 A 
ATOM      9  C   UNL d   1      56.650  -0.899  32.279  0.00  0.00     0.002 A 
ATOM     10  C   UNL d   1      56.610  -0.085  32.427  0.00  0.00     0.002 A 
ATOM     11  C   UNL d   1      56.917   0.444  31.871  0.00  0.00     0.027 A 
ATOM     12  O   UNL d   1      57.566   0.680  30.623  0.00  0.00    -0.301 OA
ATOM     13  C   UNL d   1      57.908   0.401  29.929  0.00  0.00     0.152 A 
ENDBRANCH   2   4
BRANCH   1  14
ATOM     14  C   UNL d   1      59.552  -0.222  29.542  0.00  0.00     0.119 A 
ATOM     15  C   UNL d   1      60.316  -0.442  29.769  0.00  0.00     0.087 A 
ATOM     16  C   UNL d   1      60.571   0.090  30.356  0.00  0.00     0.014 A 
ATOM     17  C   UNL d   1      59.962   0.633  30.483  0.00  0.00     0.037 A 
ATOM     18  S   UNL d   1      59.340   0.437  29.982  0.00  0.00    -0.067 SA
BRANCH  15  19
ATOM     19  C   UNL d   1      60.752  -1.074  29.473  0.00  0.00     0.298 C 
ATOM     20  O   UNL d   1      61.131  -1.001  28.740  0.00  0.00    -0.259 OA
BRANCH  19  21
ATOM     21  O   UNL d   1      60.813  -1.775  29.903  0.00  0.00    -0.296 OA
ATOM     22  C   UNL d   1      61.131  -2.444  29.551  0.00  0.00     0.185 C 
ENDBRANCH  19  21
ENDBRANCH  15  19
ENDBRANCH   1  14
TORSDOF 4
ENDMDL
MODEL 3
REMARK VINA RESULT:      -1.4      1.359      3.728
REMARK  4 active torsions:
REMARK  status: ('A' for Active; 'I' for Inactive)
REMARK    1  A    between atoms: N_3  and  C_1 
REMARK    2  A    between atoms: C_7  and  C_2 
REMARK       I    between atoms: C_5  and  N_3 
REMARK    3  A    between atoms: C_4  and  C_5 
REMARK    4  A    between atoms: O_17  and  C_7 
ROOT
ATOM      1  N   UNL d   1      57.884   0.682  29.775  0.00  0.00    -0.200 NA
ATOM      2  C   UNL d   1      58.016   0.259  29.080  0.00  0.00     0.304 C 
ATOM      3  O   UNL d   1      57.470   0.325  28.456  0.00  0.00    -0.263 OA
ENDROOT
BRANCH   2   4
ATOM      4  C   UNL d   1      58.683  -0.222  29.010  0.00  0.00     0.182 A 
ATOM      5  O   UNL d   1      58.615  -1.027  29.134  0.00  0.00    -0.298 OA
ATOM      6  C   UNL d   1      59.280  -1.499  29.063  0.00  0.00     0.123 A 
ATOM      7  C   UNL d   1      59.219  -2.316  29.187  0.00  0.00     0.027 A 
ATOM      8  C   UNL d   1      60.009  -1.185  28.872  0.00  0.00     0.123 A 
ATOM      9  C   UNL d   1      59.885  -2.791  29.117  0.00  0.00     0.002 A 
ATOM     10  C   UNL d   1      60.620  -2.463  28.923  0.00  0.00     0.002 A 
ATOM     11  C   UNL d   1      60.681  -1.648  28.799  0.00  0.00     0.027 A 
ATOM     12  O   UNL d   1      60.069  -0.361  28.748  0.00  0.00    -0.301 OA
ATOM     13  C   UNL d   1      59.406   0.121  28.817  0.00  0.00     0.152 A 
ENDBRANCH   2   4
BRANCH   1  14
ATOM     14  C   UNL d   1      58.419   0.622  30.396  0.00  0.00     0.119 A 
ATOM     15  C   UNL d   1      58.227   0.489  31.190  0.00  0.00     0.087 A 
ATOM     16  C   UNL d   1      58.937   0.469  31.624  0.00  0.00     0.014 A 
ATOM     17  C   UNL d   1      59.558   0.589  31.093  0.00  0.00     0.037 A 
ATOM     18  S   UNL d   1      59.235   0.682  30.342  0.00  0.00    -0.067 SA
BRANCH  15  19
ATOM     19  C   UNL d   1      57.472   0.394  31.502  0.00  0.00     0.298 C 
ATOM     20  O   UNL d   1      56.814   0.432  30.999  0.00  0.00    -0.259 OA
BRANCH  19  21
ATOM     21  O   UNL d   1      57.369   0.262  32.310  0.00  0.00    -0.296 OA
ATOM     22  C   UNL d   1      56.639   0.019  32.595  0.00  0.00     0.185 C 
ENDBRANCH  19  21
ENDBRANCH  15  19
ENDBRANCH   1  14
TORSDOF 4
ENDMDL
MODEL 4
REMARK VINA RESULT:      -0.3      1.803      3.674
REMARK  4 active torsions:
REMARK  status: ('A' for Active; 'I' for Inactive)
REMARK    1  A    between atoms: N_3  and  C_1 
REMARK    2  A    between atoms: C_7  and  C_2 
REMARK       I    between atoms: C_5  and  N_3 
REMARK    3  A    between atoms: C_4  and  C_5 
REMARK    4  A    between atoms: O_17  and  C_7 
ROOT
ATOM      1  N   UNL d   1      57.614  -1.450  30.625  0.00  0.00    -0.200 NA
ATOM      2  C   UNL d   1      58.190  -1.681  30.083  0.00  0.00     0.304 C 
ATOM      3  O   UNL d   1      58.304  -2.492  29.934  0.00  0.00    -0.263 OA
ENDROOT
BRANCH   2   4
ATOM      4  C   UNL d   1      58.644  -1.111  29.695  0.00  0.00     0.182 A 
ATOM      5  O   UNL d   1      59.435  -1.029  29.884  0.00  0.00    -0.298 OA
ATOM      6  C   UNL d   1      59.881  -0.462  29.497  0.00  0.00     0.123 A 
ATOM      7  C   UNL d   1      60.683  -0.372  29.683  0.00  0.00     0.027 A 
ATOM      8  C   UNL d   1      59.554   0.023  28.926  0.00  0.00     0.123 A 
ATOM      9  C   UNL d   1      61.132   0.196  29.296  0.00  0.00     0.002 A 
ATOM     10  C   UNL d   1      60.792   0.682  28.719  0.00  0.00     0.002 A 
ATOM     11  C   UNL d   1      59.991   0.593  28.532  0.00  0.00     0.027 A 
ATOM     12  O   UNL d   1      58.745  -0.069  28.740  0.00  0.00    -0.301 OA
ATOM     13  C   UNL d   1      58.290  -0.636  29.124  0.00  0.00     0.152 A 
ENDBRANCH   2   4
BRANCH   1  14
ATOM     14  C   UNL d   1      57.495  -0.651  30.777  0.00  0.00     0.119 A 
ATOM     15  C   UNL d   1      57.105  -0.335  31.435  0.00  0.00     0.087 A 
ATOM     16  C   UNL d   1      57.114   0.494  31.363  0.00  0.00     0.014 A 
ATOM     17  C   UNL d   1      57.508   0.680  30.663  0.00  0.00     0.037 A 
ATOM     18  S   UNL d   1      57.740  -0.025  30.307  0.00  0.00    -0.067 SA
BRANCH  15  19
ATOM     19  C   UNL d   1      56.767  -0.760  32.053  0.00  0.00     0.298 C 
ATOM     20  O   UNL d   1      56.274  -1.404  31.886  0.00  0.00    -0.259 OA
BRANCH  19  21
ATOM     21  O   UNL d   1      56.917  -0.545  32.836  0.00  0.00    -0.296 OA
ATOM     22  C   UNL d   1      56.362  -0.706  33.418  0.00  0.00     0.185 C 
ENDBRANCH  19  21
ENDBRANCH  15  19
ENDBRANCH   1  14
TORSDOF 4
ENDMDL
MODEL 5
REMARK VINA RESULT:       0.5      2.912      4.830
REMARK  4 active torsions:
REMARK  status: ('A' for Active; 'I' for Inactive)
REMARK    1  A    between atoms: N_3  and  C_1 
REMARK    2  A    between atoms: C_7  and  C_2 
REMARK       I    between atoms: C_5  and  N_3 
REMARK    3  A    between atoms: C_4  and  C_5 
REMARK    4  A    between atoms: O_17  and  C_7 
ROOT
ATOM      1  N   UNL d   1      57.015  -0.248  33.385  0.00  0.00    -0.200 NA
ATOM      2  C   UNL d   1      57.536   0.239  32.970  0.00  0.00     0.304 C 
ATOM      3  O   UNL d   1      58.099   0.682  33.392  0.00  0.00    -0.263 OA
ENDROOT
BRANCH   2   4
ATOM      4  C   UNL d   1      57.494   0.281  32.147  0.00  0.00     0.182 A 
ATOM      5  O   UNL d   1      58.106  -0.018  31.696  0.00  0.00    -0.298 OA
ATOM      6  C   UNL d   1      58.059   0.026  30.880  0.00  0.00     0.123 A 
ATOM      7  C   UNL d   1      58.676  -0.275  30.416  0.00  0.00     0.027 A 
ATOM      8  C   UNL d   1      57.416   0.363  30.506  0.00  0.00     0.123 A 
ATOM      9  C   UNL d   1      58.631  -0.231  29.597  0.00  0.00     0.002 A 
ATOM     10  C   UNL d   1      57.974   0.112  29.228  0.00  0.00     0.002 A 
ATOM     11  C   UNL d   1      57.358   0.413  29.691  0.00  0.00     0.027 A 
ATOM     12  O   UNL d   1      56.795   0.666  30.976  0.00  0.00    -0.301 OA
ATOM     13  C   UNL d   1      56.834   0.625  31.797  0.00  0.00     0.152 A 
ENDBRANCH   2   4
BRANCH   1  14
ATOM     14  C   UNL d   1      56.456  -0.689  32.975  0.00  0.00     0.119 A 
ATOM     15  C   UNL d   1      55.641  -0.691  33.116  0.00  0.00     0.087 A 
ATOM     16  C   UNL d   1      55.288  -1.215  32.574  0.00  0.00     0.014 A 
ATOM     17  C   UNL d   1      55.890  -1.530  32.105  0.00  0.00     0.037 A 
ATOM     18  S   UNL d   1      56.603  -1.204  32.354  0.00  0.00    -0.067 SA
BRANCH  15  19
ATOM     19  C   UNL d   1      55.243  -0.255  33.689  0.00  0.00     0.298 C 
ATOM     20  O   UNL d   1      55.500  -0.283  34.477  0.00  0.00    -0.259 OA
BRANCH  19  21
ATOM     21  O   UNL d   1      54.592   0.208  33.482  0.00  0.00    -0.296 OA
ATOM     22  C   UNL d   1      54.227   0.677  34.048  0.00  0.00     0.185 C 
ENDBRANCH  19  21
ENDBRANCH  15  19
ENDBRANCH   1  14
TORSDOF 4
ENDMDL
