MODEL 1
REMARK VINA RESULT:      36.2      0.000      0.000
REMARK  2 active torsions:
REMARK  status: ('A' for Active; 'I' for Inactive)
REMARK    1  A    between atoms: N_5  and  C_1 
REMARK       I    between atoms: C_7  and  N_5 
REMARK    2  A    between atoms: C_11  and  C_7 
ROOT
ATOM      1  C   UNL d   1      14.471  13.629  -2.113  0.00  0.00     0.124 A 
ATOM      2  C   UNL d   1      14.789  13.380  -1.429  0.00  0.00     0.093 A 
ATOM      3  S   UNL d   1      14.517  14.450  -2.154  0.00  0.00    -0.067 SA
ATOM      4  C   UNL d   1      15.051  14.030  -1.004  0.00  0.00     0.018 A 
ATOM      5  C   UNL d   1      14.876  14.717  -1.470  0.00  0.00     0.032 A 
ATOM      6  C   UNL d   1      14.850  12.559  -1.169  0.00  0.00     0.103 C 
ATOM      7  N   UNL d   1      14.917  11.783  -0.908  0.00  0.00    -0.191 NA
ATOM      8  C   UNL d   1      15.416  14.110  -0.277  0.00  0.00     0.001 A 
ATOM      9  C   UNL d   1      15.074  15.455  -1.190  0.00  0.00     0.006 A 
ATOM     10  C   UNL d   1      15.608  14.886  -0.015  0.00  0.00     0.000 A 
ATOM     11  C   UNL d   1      15.449  15.510  -0.439  0.00  0.00     0.001 A 
ENDROOT
BRANCH   1  12
ATOM     12  N   UNL d   1      14.134  13.135  -2.715  0.00  0.00    -0.201 NA
ATOM     13  C   UNL d   1      13.748  13.473  -3.364  0.00  0.00     0.280 C 
ATOM     14  O   UNL d   1      13.683  14.324  -3.438  0.00  0.00    -0.265 OA
BRANCH  13  15
ATOM     15  C   UNL d   1      13.426  13.000  -3.940  0.00  0.00     0.058 A 
ATOM     16  C   UNL d   1      13.431  13.283  -4.742  0.00  0.00     0.005 A 
ATOM     17  C   UNL d   1      13.094  12.789  -5.344  0.00  0.00     0.000 A 
ATOM     18  C   UNL d   1      12.769  12.038  -5.114  0.00  0.00     0.000 A 
ATOM     19  C   UNL d   1      12.771  11.780  -4.335  0.00  0.00     0.000 A 
ATOM     20  C   UNL d   1      13.094  12.252  -3.759  0.00  0.00     0.005 A 
ENDBRANCH  13  15
ENDBRANCH   1  12
TORSDOF 2
ENDMDL
