MODEL 1
REMARK VINA RESULT:      36.8      0.000      0.000
REMARK  3 active torsions:
REMARK  status: ('A' for Active; 'I' for Inactive)
REMARK    1  A    between atoms: S_7  and  C_1 
REMARK    2  A    between atoms: C_16  and  N_2 
REMARK    3  A    between atoms: C_4  and  S_7 
ROOT
ATOM      1  S   UNL d   1      45.887 -16.834  44.041  0.00  0.00    -0.028 SA
ENDROOT
BRANCH   1   2
ATOM      2  C   UNL d   1      46.146 -17.654  44.116  0.00  0.00     0.117 A 
ATOM      3  C   UNL d   1      46.291 -18.093  43.440  0.00  0.00     0.048 A 
ATOM      4  C   UNL d   1      46.541 -18.885  43.512  0.00  0.00     0.114 A 
ATOM      5  C   UNL d   1      46.245 -17.930  42.633  0.00  0.00     0.010 A 
ATOM      6  S   UNL d   1      46.639 -19.175  42.746  0.00  0.00    -0.068 SA
ATOM      7  N   UNL d   1      46.639 -19.210  44.258  0.00  0.00    -0.217 NA
ATOM      8  C   UNL d   1      46.447 -18.558  42.211  0.00  0.00     0.031 A 
ATOM      9  C   UNL d   1      46.468 -18.603  41.354  0.00  0.00     0.007 C 
ATOM     10  C   UNL d   1      46.494 -18.769  44.954  0.00  0.00     0.200 A 
ATOM     11  N   UNL d   1      46.243 -17.977  44.882  0.00  0.00    -0.217 NA
ATOM     12  C   UNL d   1      46.011 -17.185  42.281  0.00  0.00     0.001 C 
ENDBRANCH   1   2
BRANCH   1  13
ATOM     13  C   UNL d   1      45.163 -16.608  44.395  0.00  0.00     0.220 A 
ATOM     14  N   UNL d   1      44.966 -15.797  44.580  0.00  0.00    -0.186 N 
ATOM     15  N   UNL d   1      44.214 -15.779  44.921  0.00  0.00    -0.038 NA
ATOM     16  N   UNL d   1      43.940 -16.559  44.954  0.00  0.00    -0.022 NA
ATOM     17  N   UNL d   1      44.520 -17.067  44.632  0.00  0.00    -0.101 NA
BRANCH  14  18
ATOM     18  C   UNL d   1      45.524 -15.205  44.396  0.00  0.00     0.087 A 
ATOM     19  C   UNL d   1      45.525 -14.922  43.779  0.00  0.00     0.019 A 
ATOM     20  C   UNL d   1      46.065 -14.348  43.596  0.00  0.00     0.002 A 
ATOM     21  C   UNL d   1      46.643 -14.078  44.155  0.00  0.00     0.000 A 
ATOM     22  C   UNL d   1      46.629 -14.359  44.740  0.00  0.00     0.002 A 
ATOM     23  C   UNL d   1      46.103 -14.936  44.955  0.00  0.00     0.019 A 
ENDBRANCH  14  18
ENDBRANCH   1  13
TORSDOF 3
ENDMDL
