MODEL 1
REMARK VINA RESULT:      -9.7      0.000      0.000
REMARK  3 active torsions:
REMARK  status: ('A' for Active; 'I' for Inactive)
REMARK       I    between atoms: N_2  and  C_1 
REMARK    1  A    between atoms: C_3  and  C_1 
REMARK    2  A    between atoms: C_8  and  N_2 
REMARK    3  A    between atoms: C_7  and  C_6 
ROOT
ATOM      1  C   UNL d   1      51.486  34.038  52.747  0.00  0.00     0.279 C 
ATOM      2  N   UNL d   1      50.712  33.958  53.017  0.00  0.00    -0.208 NA
ATOM      3  O   UNL d   1      51.630  34.495  52.070  0.00  0.00    -0.265 OA
ENDROOT
BRANCH   1   4
ATOM      4  C   UNL d   1      52.119  33.672  53.135  0.00  0.00     0.058 A 
ATOM      5  C   UNL d   1      52.542  34.084  53.722  0.00  0.00     0.005 A 
ATOM      6  C   UNL d   1      53.161  33.702  54.089  0.00  0.00     0.000 A 
ATOM      7  C   UNL d   1      53.591  34.105  54.678  0.00  0.00     0.000 A 
ATOM      8  C   UNL d   1      53.371  32.921  53.889  0.00  0.00     0.000 A 
ATOM      9  C   UNL d   1      54.224  33.716  55.054  0.00  0.00     0.000 A 
ATOM     10  C   UNL d   1      54.421  32.943  54.846  0.00  0.00     0.000 A 
ATOM     11  C   UNL d   1      53.996  32.547  54.266  0.00  0.00     0.000 A 
ATOM     12  C   UNL d   1      52.951  32.526  53.313  0.00  0.00     0.000 A 
ATOM     13  C   UNL d   1      52.316  32.899  52.927  0.00  0.00     0.005 A 
ENDBRANCH   1   4
BRANCH   2  14
ATOM     14  C   UNL d   1      50.081  34.325  52.625  0.00  0.00     0.085 A 
ATOM     15  C   UNL d   1      49.619  34.869  53.006  0.00  0.00     0.022 A 
ATOM     16  C   UNL d   1      48.995  35.230  52.614  0.00  0.00     0.041 A 
ATOM     17  C   UNL d   1      48.812  35.060  51.830  0.00  0.00     0.003 A 
ATOM     18  C   UNL d   1      49.276  34.507  51.430  0.00  0.00     0.002 A 
ATOM     19  C   UNL d   1      49.915  34.126  51.804  0.00  0.00     0.019 A 
BRANCH  16  20
ATOM     20  C   UNL d   1      48.523  35.796  53.030  0.00  0.00     0.196 C 
ATOM     21  O   UNL d   1      48.800  36.132  53.722  0.00  0.00    -0.287 OA
ATOM     22  C   UNL d   1      47.787  36.000  52.727  0.00  0.00     0.045 C 
ENDBRANCH  16  20
ENDBRANCH   2  14
TORSDOF 3
ENDMDL
MODEL 2
REMARK VINA RESULT:      -9.7      1.177      4.866
REMARK  3 active torsions:
REMARK  status: ('A' for Active; 'I' for Inactive)
REMARK       I    between atoms: N_2  and  C_1 
REMARK    1  A    between atoms: C_3  and  C_1 
REMARK    2  A    between atoms: C_8  and  N_2 
REMARK    3  A    between atoms: C_7  and  C_6 
ROOT
ATOM      1  C   UNL d   1      51.680  33.794  52.784  0.00  0.00     0.279 C 
ATOM      2  N   UNL d   1      51.792  33.189  53.330  0.00  0.00    -0.208 NA
ATOM      3  O   UNL d   1      52.330  34.071  52.351  0.00  0.00    -0.265 OA
ENDROOT
BRANCH   1   4
ATOM      4  C   UNL d   1      50.934  34.130  52.659  0.00  0.00     0.058 A 
ATOM      5  C   UNL d   1      50.561  34.055  51.918  0.00  0.00     0.005 A 
ATOM      6  C   UNL d   1      49.826  34.395  51.820  0.00  0.00     0.000 A 
ATOM      7  C   UNL d   1      49.445  34.326  51.083  0.00  0.00     0.000 A 
ATOM      8  C   UNL d   1      49.452  34.807  52.440  0.00  0.00     0.000 A 
ATOM      9  C   UNL d   1      48.695  34.672  50.982  0.00  0.00     0.000 A 
ATOM     10  C   UNL d   1      48.335  35.078  51.604  0.00  0.00     0.000 A 
ATOM     11  C   UNL d   1      48.712  35.144  52.330  0.00  0.00     0.000 A 
ATOM     12  C   UNL d   1      49.824  34.875  53.162  0.00  0.00     0.000 A 
ATOM     13  C   UNL d   1      50.573  34.535  53.281  0.00  0.00     0.005 A 
ENDBRANCH   1   4
BRANCH   2  14
ATOM     14  C   UNL d   1      52.541  32.855  53.453  0.00  0.00     0.085 A 
ATOM     15  C   UNL d   1      52.997  33.082  54.081  0.00  0.00     0.022 A 
ATOM     16  C   UNL d   1      53.738  32.748  54.198  0.00  0.00     0.041 A 
ATOM     17  C   UNL d   1      54.047  32.178  53.691  0.00  0.00     0.003 A 
ATOM     18  C   UNL d   1      53.591  31.939  53.046  0.00  0.00     0.002 A 
ATOM     19  C   UNL d   1      52.836  32.261  52.904  0.00  0.00     0.019 A 
BRANCH  16  20
ATOM     20  C   UNL d   1      54.199  32.999  54.861  0.00  0.00     0.196 C 
ATOM     21  O   UNL d   1      54.058  32.683  55.602  0.00  0.00    -0.287 OA
ATOM     22  C   UNL d   1      54.787  33.561  54.747  0.00  0.00     0.045 C 
ENDBRANCH  16  20
ENDBRANCH   2  14
TORSDOF 3
ENDMDL
MODEL 3
REMARK VINA RESULT:      -9.6      3.099      5.053
REMARK  3 active torsions:
REMARK  status: ('A' for Active; 'I' for Inactive)
REMARK       I    between atoms: N_2  and  C_1 
REMARK    1  A    between atoms: C_3  and  C_1 
REMARK    2  A    between atoms: C_8  and  N_2 
REMARK    3  A    between atoms: C_7  and  C_6 
ROOT
ATOM      1  C   UNL d   1      53.682  32.088  53.937  0.00  0.00     0.279 C 
ATOM      2  N   UNL d   1      53.025  31.597  54.008  0.00  0.00    -0.208 NA
ATOM      3  O   UNL d   1      54.380  31.781  53.612  0.00  0.00    -0.265 OA
ENDROOT
BRANCH   1   4
ATOM      4  C   UNL d   1      53.660  32.878  54.182  0.00  0.00     0.058 A 
ATOM      5  C   UNL d   1      53.179  33.427  53.780  0.00  0.00     0.005 A 
ATOM      6  C   UNL d   1      53.174  34.199  54.041  0.00  0.00     0.000 A 
ATOM      7  C   UNL d   1      52.696  34.755  53.645  0.00  0.00     0.000 A 
ATOM      8  C   UNL d   1      53.635  34.440  54.691  0.00  0.00     0.000 A 
ATOM      9  C   UNL d   1      52.690  35.544  53.911  0.00  0.00     0.000 A 
ATOM     10  C   UNL d   1      53.152  35.771  54.556  0.00  0.00     0.000 A 
ATOM     11  C   UNL d   1      53.622  35.221  54.944  0.00  0.00     0.000 A 
ATOM     12  C   UNL d   1      54.103  33.898  55.078  0.00  0.00     0.000 A 
ATOM     13  C   UNL d   1      54.121  33.105  54.827  0.00  0.00     0.005 A 
ENDBRANCH   1   4
BRANCH   2  14
ATOM     14  C   UNL d   1      53.052  30.807  53.761  0.00  0.00     0.085 A 
ATOM     15  C   UNL d   1      53.172  30.211  54.294  0.00  0.00     0.022 A 
ATOM     16  C   UNL d   1      53.197  29.429  54.045  0.00  0.00     0.041 A 
ATOM     17  C   UNL d   1      53.103  29.218  53.256  0.00  0.00     0.003 A 
ATOM     18  C   UNL d   1      52.980  29.816  52.702  0.00  0.00     0.002 A 
ATOM     19  C   UNL d   1      52.950  30.618  52.927  0.00  0.00     0.019 A 
BRANCH  16  20
ATOM     20  C   UNL d   1      53.324  28.821  54.620  0.00  0.00     0.196 C 
ATOM     21  O   UNL d   1      52.798  28.725  55.239  0.00  0.00    -0.287 OA
ATOM     22  C   UNL d   1      53.980  28.333  54.543  0.00  0.00     0.045 C 
ENDBRANCH  16  20
ENDBRANCH   2  14
TORSDOF 3
ENDMDL
MODEL 4
REMARK VINA RESULT:      -9.6      2.530      3.704
REMARK  3 active torsions:
REMARK  status: ('A' for Active; 'I' for Inactive)
REMARK       I    between atoms: N_2  and  C_1 
REMARK    1  A    between atoms: C_3  and  C_1 
REMARK    2  A    between atoms: C_8  and  N_2 
REMARK    3  A    between atoms: C_7  and  C_6 
ROOT
ATOM      1  C   UNL d   1      53.093  32.049  53.301  0.00  0.00     0.279 C 
ATOM      2  N   UNL d   1      52.495  32.523  53.610  0.00  0.00    -0.208 NA
ATOM      3  O   UNL d   1      53.696  32.403  52.855  0.00  0.00    -0.265 OA
ENDROOT
BRANCH   1   4
ATOM      4  C   UNL d   1      53.104  31.231  53.426  0.00  0.00     0.058 A 
ATOM      5  C   UNL d   1      53.286  30.926  54.180  0.00  0.00     0.005 A 
ATOM      6  C   UNL d   1      53.291  30.117  54.277  0.00  0.00     0.000 A 
ATOM      7  C   UNL d   1      53.472  29.803  55.027  0.00  0.00     0.000 A 
ATOM      8  C   UNL d   1      53.119  29.603  53.645  0.00  0.00     0.000 A 
ATOM      9  C   UNL d   1      53.477  28.976  55.127  0.00  0.00     0.000 A 
ATOM     10  C   UNL d   1      53.305  28.477  54.494  0.00  0.00     0.000 A 
ATOM     11  C   UNL d   1      53.126  28.789  53.755  0.00  0.00     0.000 A 
ATOM     12  C   UNL d   1      52.942  29.909  52.911  0.00  0.00     0.000 A 
ATOM     13  C   UNL d   1      52.932  30.732  52.792  0.00  0.00     0.005 A 
ENDBRANCH   1   4
BRANCH   2  14
ATOM     14  C   UNL d   1      52.487  33.342  53.482  0.00  0.00     0.085 A 
ATOM     15  C   UNL d   1      52.817  33.847  54.020  0.00  0.00     0.022 A 
ATOM     16  C   UNL d   1      52.807  34.657  53.890  0.00  0.00     0.041 A 
ATOM     17  C   UNL d   1      52.467  34.989  53.218  0.00  0.00     0.003 A 
ATOM     18  C   UNL d   1      52.126  34.483  52.661  0.00  0.00     0.002 A 
ATOM     19  C   UNL d   1      52.123  33.658  52.769  0.00  0.00     0.019 A 
BRANCH  16  20
ATOM     20  C   UNL d   1      53.158  35.169  54.465  0.00  0.00     0.196 C 
ATOM     21  O   UNL d   1      53.885  34.984  54.790  0.00  0.00    -0.287 OA
ATOM     22  C   UNL d   1      52.757  35.850  54.688  0.00  0.00     0.045 C 
ENDBRANCH  16  20
ENDBRANCH   2  14
TORSDOF 3
ENDMDL
