MODEL 1
REMARK VINA RESULT:      -8.2      0.000      0.000
REMARK  7 active torsions:
REMARK  status: ('A' for Active; 'I' for Inactive)
REMARK    1  A    between atoms: C_2  and  S_1 
REMARK    2  A    between atoms: N_8  and  S_1 
REMARK    3  A    between atoms: C_13  and  N_8 
REMARK    4  A    between atoms: N_9  and  C_14 
REMARK    5  A    between atoms: O_15  and  C_10 
REMARK    6  A    between atoms: C_14  and  C_13 
REMARK    7  A    between atoms: C_22  and  O_15 
ROOT
ATOM      1  C   UNL d   1      51.978  33.700  53.280  0.00  0.00     0.105 A 
ATOM      2  C   UNL d   1      52.360  32.979  53.243  0.00  0.00     0.014 A 
ATOM      3  C   UNL d   1      53.082  32.870  53.627  0.00  0.00     0.024 A 
ATOM      4  C   UNL d   1      52.317  34.325  53.705  0.00  0.00     0.015 A 
ATOM      5  C   UNL d   1      53.422  33.482  54.048  0.00  0.00     0.100 A 
ATOM      6  C   UNL d   1      53.038  34.216  54.090  0.00  0.00     0.025 A 
ATOM      7  C   UNL d   1      52.021  32.359  52.819  0.00  0.00     0.001 A 
ATOM      8  C   UNL d   1      53.465  32.141  53.588  0.00  0.00     0.002 A 
ATOM      9  C   UNL d   1      52.404  31.628  52.778  0.00  0.00     0.000 A 
ATOM     10  C   UNL d   1      53.126  31.520  53.163  0.00  0.00     0.000 A 
ENDROOT
BRANCH   1  11
ATOM     11  S   UNL d   1      51.256  33.809  52.895  0.00  0.00     0.285 S 
ATOM     12  O   UNL d   1      51.651  34.160  52.253  0.00  0.00    -0.198 OA
ATOM     13  O   UNL d   1      50.869  33.465  53.525  0.00  0.00    -0.198 OA
BRANCH  11  14
ATOM     14  N   UNL d   1      50.534  33.917  52.511  0.00  0.00    -0.155 NA
BRANCH  14  15
ATOM     15  C   UNL d   1      50.032  34.520  52.739  0.00  0.00     0.131 C 
BRANCH  15  16
ATOM     16  C   UNL d   1      49.308  34.626  52.357  0.00  0.00     0.102 C 
BRANCH  16  17
ATOM     17  N   UNL d   1      48.807  35.239  52.588  0.00  0.00    -0.298 N 
ATOM     18  C   UNL d   1      48.815  35.508  53.368  0.00  0.00     0.107 A 
ATOM     19  C   UNL d   1      48.312  36.123  53.602  0.00  0.00     0.142 A 
ATOM     20  O   UNL d   1      47.801  36.467  53.053  0.00  0.00    -0.300 OA
ATOM     21  C   UNL d   1      47.793  36.195  52.270  0.00  0.00     0.142 A 
ATOM     22  C   UNL d   1      48.296  35.582  52.039  0.00  0.00     0.107 A 
ENDBRANCH  16  17
ENDBRANCH  15  16
ENDBRANCH  14  15
ENDBRANCH  11  14
ENDBRANCH   1  11
BRANCH   5  23
ATOM     23  O   UNL d   1      54.143  33.380  54.435  0.00  0.00    -0.305 OA
BRANCH  23  24
ATOM     24  C   UNL d   1      54.427  33.956  54.950  0.00  0.00     0.123 C 
ATOM     25  C   UNL d   1      55.168  33.867  55.301  0.00  0.00     0.029 C 
ENDBRANCH  23  24
ENDBRANCH   5  23
TORSDOF 7
ENDMDL
MODEL 2
REMARK VINA RESULT:      -8.2      1.097      2.148
REMARK  7 active torsions:
REMARK  status: ('A' for Active; 'I' for Inactive)
REMARK    1  A    between atoms: C_2  and  S_1 
REMARK    2  A    between atoms: N_8  and  S_1 
REMARK    3  A    between atoms: C_13  and  N_8 
REMARK    4  A    between atoms: N_9  and  C_14 
REMARK    5  A    between atoms: O_15  and  C_10 
REMARK    6  A    between atoms: C_14  and  C_13 
REMARK    7  A    between atoms: C_22  and  O_15 
ROOT
ATOM      1  C   UNL d   1      52.174  32.986  53.184  0.00  0.00     0.105 A 
ATOM      2  C   UNL d   1      52.834  33.043  53.661  0.00  0.00     0.014 A 
ATOM      3  C   UNL d   1      53.312  32.384  53.791  0.00  0.00     0.024 A 
ATOM      4  C   UNL d   1      51.983  32.262  52.829  0.00  0.00     0.015 A 
ATOM      5  C   UNL d   1      53.130  31.667  53.444  0.00  0.00     0.100 A 
ATOM      6  C   UNL d   1      52.461  31.602  52.959  0.00  0.00     0.025 A 
ATOM      7  C   UNL d   1      53.022  33.764  54.013  0.00  0.00     0.001 A 
ATOM      8  C   UNL d   1      53.979  32.445  54.273  0.00  0.00     0.002 A 
ATOM      9  C   UNL d   1      53.689  33.828  54.495  0.00  0.00     0.000 A 
ATOM     10  C   UNL d   1      54.167  33.168  54.625  0.00  0.00     0.000 A 
ENDROOT
BRANCH   1  11
ATOM     11  S   UNL d   1      51.696  33.645  53.054  0.00  0.00     0.285 S 
ATOM     12  O   UNL d   1      52.184  33.874  52.420  0.00  0.00    -0.198 OA
ATOM     13  O   UNL d   1      51.218  33.421  53.675  0.00  0.00    -0.198 OA
BRANCH  11  14
ATOM     14  N   UNL d   1      51.217  34.305  52.924  0.00  0.00    -0.155 NA
BRANCH  14  15
ATOM     15  C   UNL d   1      50.510  34.229  52.521  0.00  0.00     0.131 C 
BRANCH  15  16
ATOM     16  C   UNL d   1      49.950  34.835  52.544  0.00  0.00     0.102 C 
BRANCH  16  17
ATOM     17  N   UNL d   1      49.319  34.832  52.015  0.00  0.00    -0.298 N 
ATOM     18  C   UNL d   1      49.395  34.461  51.282  0.00  0.00     0.107 A 
ATOM     19  C   UNL d   1      48.762  34.457  50.748  0.00  0.00     0.142 A 
ATOM     20  O   UNL d   1      48.053  34.827  50.950  0.00  0.00    -0.300 OA
ATOM     21  C   UNL d   1      47.977  35.200  51.687  0.00  0.00     0.142 A 
ATOM     22  C   UNL d   1      48.610  35.202  52.217  0.00  0.00     0.107 A 
ENDBRANCH  16  17
ENDBRANCH  15  16
ENDBRANCH  14  15
ENDBRANCH  11  14
ENDBRANCH   1  11
BRANCH   5  23
ATOM     23  O   UNL d   1      53.604  31.004  53.570  0.00  0.00    -0.305 OA
BRANCH  23  24
ATOM     24  C   UNL d   1      53.341  30.254  53.355  0.00  0.00     0.123 C 
ATOM     25  C   UNL d   1      53.700  29.583  53.673  0.00  0.00     0.029 C 
ENDBRANCH  23  24
ENDBRANCH   5  23
TORSDOF 7
ENDMDL
MODEL 3
REMARK VINA RESULT:      -6.6      1.054      5.054
REMARK  7 active torsions:
REMARK  status: ('A' for Active; 'I' for Inactive)
REMARK    1  A    between atoms: C_2  and  S_1 
REMARK    2  A    between atoms: N_8  and  S_1 
REMARK    3  A    between atoms: C_13  and  N_8 
REMARK    4  A    between atoms: N_9  and  C_14 
REMARK    5  A    between atoms: O_15  and  C_10 
REMARK    6  A    between atoms: C_14  and  C_13 
REMARK    7  A    between atoms: C_22  and  O_15 
ROOT
ATOM      1  C   UNL d   1      50.207  34.491  52.750  0.00  0.00     0.105 A 
ATOM      2  C   UNL d   1      49.700  34.534  52.111  0.00  0.00     0.014 A 
ATOM      3  C   UNL d   1      48.999  34.965  52.164  0.00  0.00     0.024 A 
ATOM      4  C   UNL d   1      50.016  34.881  53.456  0.00  0.00     0.015 A 
ATOM      5  C   UNL d   1      48.804  35.353  52.857  0.00  0.00     0.100 A 
ATOM      6  C   UNL d   1      49.315  35.312  53.509  0.00  0.00     0.025 A 
ATOM      7  C   UNL d   1      49.893  34.145  51.411  0.00  0.00     0.001 A 
ATOM      8  C   UNL d   1      48.490  35.007  51.517  0.00  0.00     0.002 A 
ATOM      9  C   UNL d   1      49.384  34.186  50.762  0.00  0.00     0.000 A 
ATOM     10  C   UNL d   1      48.682  34.617  50.815  0.00  0.00     0.000 A 
ENDROOT
BRANCH   1  11
ATOM     11  S   UNL d   1      50.908  34.060  52.697  0.00  0.00     0.285 S 
ATOM     12  O   UNL d   1      50.531  33.403  53.041  0.00  0.00    -0.198 OA
ATOM     13  O   UNL d   1      51.278  34.703  52.360  0.00  0.00    -0.198 OA
BRANCH  11  14
ATOM     14  N   UNL d   1      51.610  33.628  52.644  0.00  0.00    -0.155 NA
BRANCH  14  15
ATOM     15  C   UNL d   1      52.121  33.591  53.280  0.00  0.00     0.131 C 
BRANCH  15  16
ATOM     16  C   UNL d   1      52.876  33.270  53.191  0.00  0.00     0.102 C 
BRANCH  16  17
ATOM     17  N   UNL d   1      53.354  33.151  53.852  0.00  0.00    -0.298 N 
ATOM     18  C   UNL d   1      53.685  33.797  54.244  0.00  0.00     0.107 A 
ATOM     19  C   UNL d   1      54.166  33.680  54.909  0.00  0.00     0.142 A 
ATOM     20  O   UNL d   1      54.313  32.914  55.178  0.00  0.00    -0.300 OA
ATOM     21  C   UNL d   1      53.980  32.266  54.783  0.00  0.00     0.142 A 
ATOM     22  C   UNL d   1      53.501  32.385  54.121  0.00  0.00     0.107 A 
ENDBRANCH  16  17
ENDBRANCH  15  16
ENDBRANCH  14  15
ENDBRANCH  11  14
ENDBRANCH   1  11
BRANCH   5  23
ATOM     23  O   UNL d   1      48.105  35.785  52.917  0.00  0.00    -0.305 OA
BRANCH  23  24
ATOM     24  C   UNL d   1      47.985  36.302  53.545  0.00  0.00     0.123 C 
ATOM     25  C   UNL d   1      47.271  36.709  53.616  0.00  0.00     0.029 C 
ENDBRANCH  23  24
ENDBRANCH   5  23
TORSDOF 7
ENDMDL
MODEL 4
REMARK VINA RESULT:      -6.4      2.146      5.168
REMARK  7 active torsions:
REMARK  status: ('A' for Active; 'I' for Inactive)
REMARK    1  A    between atoms: C_2  and  S_1 
REMARK    2  A    between atoms: N_8  and  S_1 
REMARK    3  A    between atoms: C_13  and  N_8 
REMARK    4  A    between atoms: N_9  and  C_14 
REMARK    5  A    between atoms: O_15  and  C_10 
REMARK    6  A    between atoms: C_14  and  C_13 
REMARK    7  A    between atoms: C_22  and  O_15 
ROOT
ATOM      1  C   UNL d   1      52.215  33.200  53.242  0.00  0.00     0.105 A 
ATOM      2  C   UNL d   1      52.400  33.957  53.488  0.00  0.00     0.014 A 
ATOM      3  C   UNL d   1      51.831  34.554  53.464  0.00  0.00     0.024 A 
ATOM      4  C   UNL d   1      51.452  33.031  52.967  0.00  0.00     0.015 A 
ATOM      5  C   UNL d   1      51.077  34.394  53.193  0.00  0.00     0.100 A 
ATOM      6  C   UNL d   1      50.883  33.628  52.942  0.00  0.00     0.025 A 
ATOM      7  C   UNL d   1      53.160  34.123  53.762  0.00  0.00     0.001 A 
ATOM      8  C   UNL d   1      52.022  35.316  53.713  0.00  0.00     0.002 A 
ATOM      9  C   UNL d   1      53.352  34.885  54.012  0.00  0.00     0.000 A 
ATOM     10  C   UNL d   1      52.783  35.482  53.988  0.00  0.00     0.000 A 
ENDROOT
BRANCH   1  11
ATOM     11  S   UNL d   1      52.784  32.604  53.267  0.00  0.00     0.285 S 
ATOM     12  O   UNL d   1      52.877  32.658  52.442  0.00  0.00    -0.198 OA
ATOM     13  O   UNL d   1      52.693  32.550  54.075  0.00  0.00    -0.198 OA
BRANCH  11  14
ATOM     14  N   UNL d   1      53.353  32.007  53.292  0.00  0.00    -0.155 NA
BRANCH  14  15
ATOM     15  C   UNL d   1      53.128  31.224  53.351  0.00  0.00     0.131 C 
BRANCH  15  16
ATOM     16  C   UNL d   1      53.691  30.637  53.492  0.00  0.00     0.102 C 
BRANCH  16  17
ATOM     17  N   UNL d   1      53.455  29.898  53.772  0.00  0.00    -0.298 N 
ATOM     18  C   UNL d   1      53.758  29.609  54.482  0.00  0.00     0.107 A 
ATOM     19  C   UNL d   1      53.523  28.866  54.765  0.00  0.00     0.142 A 
ATOM     20  O   UNL d   1      52.983  28.416  54.334  0.00  0.00    -0.300 OA
ATOM     21  C   UNL d   1      52.679  28.707  53.620  0.00  0.00     0.142 A 
ATOM     22  C   UNL d   1      52.915  29.448  53.340  0.00  0.00     0.107 A 
ENDBRANCH  16  17
ENDBRANCH  15  16
ENDBRANCH  14  15
ENDBRANCH  11  14
ENDBRANCH   1  11
BRANCH   5  23
ATOM     23  O   UNL d   1      50.504  34.986  53.166  0.00  0.00    -0.305 OA
BRANCH  23  24
ATOM     24  C   UNL d   1      49.740  34.818  52.910  0.00  0.00     0.123 C 
ATOM     25  C   UNL d   1      49.141  35.378  53.000  0.00  0.00     0.029 C 
ENDBRANCH  23  24
ENDBRANCH   5  23
TORSDOF 7
ENDMDL
