MODEL 1
REMARK VINA RESULT:      -8.7      0.000      0.000
REMARK  4 active torsions:
REMARK  status: ('A' for Active; 'I' for Inactive)
REMARK    1  A    between atoms: N_2  and  S_1 
REMARK    2  A    between atoms: C_3  and  S_1 
REMARK    3  A    between atoms: C_4  and  N_2 
REMARK    4  A    between atoms: O_14  and  C_7 
ROOT
ATOM      1  S   UNL d   1      53.139  32.332  53.267  0.00  0.00     0.285 S 
ATOM      2  O   UNL d   1      53.059  32.195  52.456  0.00  0.00    -0.198 OA
ATOM      3  O   UNL d   1      53.222  32.474  54.095  0.00  0.00    -0.198 OA
ENDROOT
BRANCH   1   4
ATOM      4  N   UNL d   1      53.119  33.145  53.133  0.00  0.00    -0.156 NA
BRANCH   4   5
ATOM      5  C   UNL d   1      52.404  33.550  53.157  0.00  0.00     0.116 A 
ATOM      6  C   UNL d   1      52.370  34.333  53.415  0.00  0.00     0.112 A 
ATOM      7  C   UNL d   1      51.655  34.738  53.439  0.00  0.00     0.026 A 
ATOM      8  C   UNL d   1      50.958  34.370  53.206  0.00  0.00     0.002 A 
ATOM      9  C   UNL d   1      50.986  33.587  52.947  0.00  0.00     0.002 A 
ATOM     10  C   UNL d   1      51.700  33.182  52.923  0.00  0.00     0.022 A 
BRANCH   6  11
ATOM     11  O   UNL d   1      53.095  34.710  53.656  0.00  0.00    -0.327 OA
ATOM     12  C   UNL d   1      53.088  35.446  54.020  0.00  0.00     0.181 C 
ENDBRANCH   6  11
ENDBRANCH   4   5
ENDBRANCH   1   4
BRANCH   1  13
ATOM     13  C   UNL d   1      53.161  31.501  53.407  0.00  0.00     0.105 A 
ATOM     14  C   UNL d   1      52.829  30.983  52.848  0.00  0.00     0.014 A 
ATOM     15  C   UNL d   1      52.854  30.169  52.994  0.00  0.00     0.012 A 
ATOM     16  C   UNL d   1      53.210  29.869  53.694  0.00  0.00     0.058 A 
ATOM     17  C   UNL d   1      53.533  30.390  54.237  0.00  0.00     0.012 A 
ATOM     18 CL   UNL d   1      53.253  29.125  53.865  0.00  0.00    -0.082 Cl
ATOM     19  C   UNL d   1      53.516  31.201  54.108  0.00  0.00     0.014 A 
ENDBRANCH   1  13
TORSDOF 4
ENDMDL
MODEL 2
REMARK VINA RESULT:      -8.7      2.111      3.663
REMARK  4 active torsions:
REMARK  status: ('A' for Active; 'I' for Inactive)
REMARK    1  A    between atoms: N_2  and  S_1 
REMARK    2  A    between atoms: C_3  and  S_1 
REMARK    3  A    between atoms: C_4  and  N_2 
REMARK    4  A    between atoms: O_14  and  C_7 
ROOT
ATOM      1  S   UNL d   1      52.129  34.033  53.322  0.00  0.00     0.285 S 
ATOM      2  O   UNL d   1      51.696  33.647  53.910  0.00  0.00    -0.198 OA
ATOM      3  O   UNL d   1      52.574  34.428  52.723  0.00  0.00    -0.198 OA
ENDROOT
BRANCH   1   4
ATOM      4  N   UNL d   1      52.822  33.915  53.753  0.00  0.00    -0.156 NA
BRANCH   4   5
ATOM      5  C   UNL d   1      53.196  33.183  53.742  0.00  0.00     0.116 A 
ATOM      6  C   UNL d   1      53.864  33.042  54.204  0.00  0.00     0.112 A 
ATOM      7  C   UNL d   1      54.238  32.310  54.194  0.00  0.00     0.026 A 
ATOM      8  C   UNL d   1      53.951  31.701  53.721  0.00  0.00     0.002 A 
ATOM      9  C   UNL d   1      53.282  31.836  53.256  0.00  0.00     0.002 A 
ATOM     10  C   UNL d   1      52.909  32.568  53.267  0.00  0.00     0.022 A 
BRANCH   6  11
ATOM     11  O   UNL d   1      54.157  33.676  54.692  0.00  0.00    -0.327 OA
ATOM     12  C   UNL d   1      54.836  33.582  55.146  0.00  0.00     0.181 C 
ENDBRANCH   6  11
ENDBRANCH   4   5
ENDBRANCH   1   4
BRANCH   1  13
ATOM     13  C   UNL d   1      51.422  34.156  52.879  0.00  0.00     0.105 A 
ATOM     14  C   UNL d   1      50.697  34.230  53.279  0.00  0.00     0.014 A 
ATOM     15  C   UNL d   1      50.008  34.350  52.837  0.00  0.00     0.012 A 
ATOM     16  C   UNL d   1      50.040  34.397  51.997  0.00  0.00     0.058 A 
ATOM     17  C   UNL d   1      50.760  34.324  51.617  0.00  0.00     0.012 A 
ATOM     18 CL   UNL d   1      49.427  34.508  51.553  0.00  0.00    -0.082 Cl
ATOM     19  C   UNL d   1      51.454  34.204  52.040  0.00  0.00     0.014 A 
ENDBRANCH   1  13
TORSDOF 4
ENDMDL
MODEL 3
REMARK VINA RESULT:      -7.5      1.994      3.939
REMARK  4 active torsions:
REMARK  status: ('A' for Active; 'I' for Inactive)
REMARK    1  A    between atoms: N_2  and  S_1 
REMARK    2  A    between atoms: C_3  and  S_1 
REMARK    3  A    between atoms: C_4  and  N_2 
REMARK    4  A    between atoms: O_14  and  C_7 
ROOT
ATOM      1  S   UNL d   1      53.802  32.163  54.278  0.00  0.00     0.285 S 
ATOM      2  O   UNL d   1      53.272  32.019  54.896  0.00  0.00    -0.198 OA
ATOM      3  O   UNL d   1      54.344  32.307  53.647  0.00  0.00    -0.198 OA
ENDROOT
BRANCH   1   4
ATOM      4  N   UNL d   1      53.941  31.353  54.208  0.00  0.00    -0.156 NA
BRANCH   4   5
ATOM      5  C   UNL d   1      53.488  30.899  53.694  0.00  0.00     0.116 A 
ATOM      6  C   UNL d   1      53.318  30.110  53.866  0.00  0.00     0.112 A 
ATOM      7  C   UNL d   1      52.865  29.655  53.352  0.00  0.00     0.026 A 
ATOM      8  C   UNL d   1      52.572  29.978  52.656  0.00  0.00     0.002 A 
ATOM      9  C   UNL d   1      52.739  30.767  52.479  0.00  0.00     0.002 A 
ATOM     10  C   UNL d   1      53.192  31.222  52.992  0.00  0.00     0.022 A 
BRANCH   6  11
ATOM     11  O   UNL d   1      53.625  29.780  54.589  0.00  0.00    -0.327 OA
ATOM     12  C   UNL d   1      53.472  28.999  54.795  0.00  0.00     0.181 C 
ENDBRANCH   6  11
ENDBRANCH   4   5
ENDBRANCH   1   4
BRANCH   1  13
ATOM     13  C   UNL d   1      53.662  32.991  54.348  0.00  0.00     0.105 A 
ATOM     14  C   UNL d   1      54.198  33.462  54.774  0.00  0.00     0.014 A 
ATOM     15  C   UNL d   1      54.052  34.275  54.837  0.00  0.00     0.012 A 
ATOM     16  C   UNL d   1      53.375  34.618  54.477  0.00  0.00     0.058 A 
ATOM     17  C   UNL d   1      52.855  34.143  54.061  0.00  0.00     0.012 A 
ATOM     18 CL   UNL d   1      53.205  35.363  54.513  0.00  0.00    -0.082 Cl
ATOM     19  C   UNL d   1      52.984  33.335  53.988  0.00  0.00     0.014 A 
ENDBRANCH   1  13
TORSDOF 4
ENDMDL
