MODEL 1
REMARK VINA RESULT:      -3.5      0.000      0.000
REMARK  6 active torsions:
REMARK  status: ('A' for Active; 'I' for Inactive)
REMARK    1  A    between atoms: C_2  and  N_10 
REMARK    2  A    between atoms: N_8  and  C_2 
REMARK    3  A    between atoms: C_4  and  N_8 
REMARK    4  A    between atoms: N_10  and  C_16 
REMARK    5  A    between atoms: C_22  and  C_13 
REMARK    6  A    between atoms: C_16  and  C_15 
ROOT
ATOM      1  C   UNL d   1      32.967  21.050 -21.659  0.00  0.00     0.221 C 
ATOM      2  S   UNL d   1      32.629  20.749 -20.969  0.00  0.00    -0.037 SA
ENDROOT
BRANCH   1   3
ATOM      3  N   UNL d   1      33.029  20.570 -22.330  0.00  0.00    -0.216 NA
BRANCH   3   4
ATOM      4  C   UNL d   1      33.227  19.768 -22.254  0.00  0.00     0.101 C 
BRANCH   4   5
ATOM      5  C   UNL d   1      33.095  19.252 -22.887  0.00  0.00     0.019 A 
ATOM      6  C   UNL d   1      33.235  19.496 -23.664  0.00  0.00     0.003 A 
ATOM      7  C   UNL d   1      33.101  18.975 -24.291  0.00  0.00     0.019 A 
ATOM      8  C   UNL d   1      32.829  18.216 -24.140  0.00  0.00     0.081 A 
ATOM      9  C   UNL d   1      32.690  17.971 -23.364  0.00  0.00     0.019 A 
ATOM     10  N   UNL d   1      32.648  17.584 -24.642  0.00  0.00    -0.246 NA
ATOM     11  C   UNL d   1      32.822  18.487 -22.739  0.00  0.00     0.003 A 
ATOM     12  C   UNL d   1      32.423  17.190 -23.391  0.00  0.00     0.021 A 
ATOM     13  C   UNL d   1      32.398  16.954 -24.167  0.00  0.00     0.082 A 
ATOM     14  C   UNL d   1      32.161  16.208 -24.431  0.00  0.00     0.021 C 
ENDBRANCH   4   5
ENDBRANCH   3   4
ENDBRANCH   1   3
BRANCH   1  15
ATOM     15  N   UNL d   1      33.241  21.826 -21.680  0.00  0.00    -0.217 NA
BRANCH  15  16
ATOM     16  C   UNL d   1      32.721  22.449 -21.540  0.00  0.00     0.084 A 
ATOM     17  C   UNL d   1      32.416  22.570 -20.783  0.00  0.00     0.018 A 
ATOM     18  C   UNL d   1      31.896  23.193 -20.643  0.00  0.00     0.002 A 
ATOM     19  C   UNL d   1      32.631  22.066 -20.161  0.00  0.00     0.002 C 
ATOM     20  C   UNL d   1      31.677  23.701 -21.263  0.00  0.00     0.000 A 
ATOM     21  C   UNL d   1      31.982  23.580 -22.019  0.00  0.00     0.002 A 
ATOM     22  C   UNL d   1      32.506  22.950 -22.156  0.00  0.00     0.018 A 
BRANCH  22  23
ATOM     23  C   UNL d   1      32.812  22.829 -22.913  0.00  0.00     0.002 C 
ATOM     24  C   UNL d   1      32.719  23.398 -23.492  0.00  0.00     0.000 C 
ENDBRANCH  22  23
ENDBRANCH  15  16
ENDBRANCH   1  15
TORSDOF 6
ENDMDL
MODEL 2
REMARK VINA RESULT:      -3.0      1.908      5.402
REMARK  6 active torsions:
REMARK  status: ('A' for Active; 'I' for Inactive)
REMARK    1  A    between atoms: C_2  and  N_10 
REMARK    2  A    between atoms: N_8  and  C_2 
REMARK    3  A    between atoms: C_4  and  N_8 
REMARK    4  A    between atoms: N_10  and  C_16 
REMARK    5  A    between atoms: C_22  and  C_13 
REMARK    6  A    between atoms: C_16  and  C_15 
ROOT
ATOM      1  C   UNL d   1      32.425  17.487 -24.555  0.00  0.00     0.221 C 
ATOM      2  S   UNL d   1      33.079  17.049 -24.804  0.00  0.00    -0.037 SA
ENDROOT
BRANCH   1   3
ATOM      3  N   UNL d   1      32.522  18.092 -24.000  0.00  0.00    -0.216 NA
BRANCH   3   4
ATOM      4  C   UNL d   1      33.151  18.629 -24.070  0.00  0.00     0.101 C 
BRANCH   4   5
ATOM      5  C   UNL d   1      33.175  19.298 -23.584  0.00  0.00     0.019 A 
ATOM      6  C   UNL d   1      33.217  20.054 -23.914  0.00  0.00     0.003 A 
ATOM      7  C   UNL d   1      33.241  20.718 -23.423  0.00  0.00     0.019 A 
ATOM      8  C   UNL d   1      33.224  20.624 -22.608  0.00  0.00     0.081 A 
ATOM      9  C   UNL d   1      33.183  19.868 -22.278  0.00  0.00     0.019 A 
ATOM     10  N   UNL d   1      33.241  21.171 -21.988  0.00  0.00    -0.246 NA
ATOM     11  C   UNL d   1      33.159  19.207 -22.764  0.00  0.00     0.003 A 
ATOM     12  C   UNL d   1      33.174  19.953 -21.457  0.00  0.00     0.021 A 
ATOM     13  C   UNL d   1      33.209  20.744 -21.279  0.00  0.00     0.082 A 
ATOM     14  C   UNL d   1      33.213  21.062 -20.517  0.00  0.00     0.021 C 
ENDBRANCH   4   5
ENDBRANCH   3   4
ENDBRANCH   1   3
BRANCH   1  15
ATOM     15  N   UNL d   1      31.678  17.321 -24.858  0.00  0.00    -0.217 NA
BRANCH  15  16
ATOM     16  C   UNL d   1      31.205  16.753 -24.497  0.00  0.00     0.084 A 
ATOM     17  C   UNL d   1      31.534  16.038 -24.249  0.00  0.00     0.018 A 
ATOM     18  C   UNL d   1      31.061  15.469 -23.887  0.00  0.00     0.002 A 
ATOM     19  C   UNL d   1      32.342  15.889 -24.362  0.00  0.00     0.002 C 
ATOM     20  C   UNL d   1      30.251  15.613 -23.772  0.00  0.00     0.000 A 
ATOM     21  C   UNL d   1      29.922  16.327 -24.020  0.00  0.00     0.002 A 
ATOM     22  C   UNL d   1      30.403  16.898 -24.384  0.00  0.00     0.018 A 
BRANCH  22  23
ATOM     23  C   UNL d   1      30.073  17.613 -24.632  0.00  0.00     0.002 C 
ATOM     24  C   UNL d   1      29.262  17.709 -24.652  0.00  0.00     0.000 C 
ENDBRANCH  22  23
ENDBRANCH  15  16
ENDBRANCH   1  15
TORSDOF 6
ENDMDL
MODEL 3
REMARK VINA RESULT:      -3.0      1.358      5.484
REMARK  6 active torsions:
REMARK  status: ('A' for Active; 'I' for Inactive)
REMARK    1  A    between atoms: C_2  and  N_10 
REMARK    2  A    between atoms: N_8  and  C_2 
REMARK    3  A    between atoms: C_4  and  N_8 
REMARK    4  A    between atoms: N_10  and  C_16 
REMARK    5  A    between atoms: C_22  and  C_13 
REMARK    6  A    between atoms: C_16  and  C_15 
ROOT
ATOM      1  C   UNL d   1      32.693  17.792 -23.509  0.00  0.00     0.221 C 
ATOM      2  S   UNL d   1      33.205  17.243 -23.168  0.00  0.00    -0.037 SA
ENDROOT
BRANCH   1   3
ATOM      3  N   UNL d   1      32.587  18.532 -23.155  0.00  0.00    -0.216 NA
BRANCH   3   4
ATOM      4  C   UNL d   1      33.240  18.960 -22.874  0.00  0.00     0.101 C 
BRANCH   4   5
ATOM      5  C   UNL d   1      33.122  19.677 -22.478  0.00  0.00     0.019 A 
ATOM      6  C   UNL d   1      32.890  19.684 -21.686  0.00  0.00     0.003 A 
ATOM      7  C   UNL d   1      32.774  20.404 -21.298  0.00  0.00     0.019 A 
ATOM      8  C   UNL d   1      32.890  21.109 -21.700  0.00  0.00     0.081 A 
ATOM      9  C   UNL d   1      33.122  21.101 -22.493  0.00  0.00     0.019 A 
ATOM     10  N   UNL d   1      32.818  21.899 -21.464  0.00  0.00    -0.246 NA
ATOM     11  C   UNL d   1      33.238  20.389 -22.881  0.00  0.00     0.003 A 
ATOM     12  C   UNL d   1      33.192  21.886 -22.741  0.00  0.00     0.021 A 
ATOM     13  C   UNL d   1      33.008  22.371 -22.117  0.00  0.00     0.082 A 
ATOM     14  C   UNL d   1      33.012  23.197 -22.138  0.00  0.00     0.021 C 
ENDBRANCH   4   5
ENDBRANCH   3   4
ENDBRANCH   1   3
BRANCH   1  15
ATOM     15  N   UNL d   1      32.287  17.603 -24.200  0.00  0.00    -0.217 NA
BRANCH  15  16
ATOM     16  C   UNL d   1      31.860  16.901 -24.247  0.00  0.00     0.084 A 
ATOM     17  C   UNL d   1      32.256  16.182 -24.324  0.00  0.00     0.018 A 
ATOM     18  C   UNL d   1      31.829  15.479 -24.370  0.00  0.00     0.002 A 
ATOM     19  C   UNL d   1      33.084  16.162 -24.354  0.00  0.00     0.002 C 
ATOM     20  C   UNL d   1      30.999  15.492 -24.340  0.00  0.00     0.000 A 
ATOM     21  C   UNL d   1      30.603  16.212 -24.263  0.00  0.00     0.002 A 
ATOM     22  C   UNL d   1      31.038  16.918 -24.217  0.00  0.00     0.018 A 
BRANCH  22  23
ATOM     23  C   UNL d   1      30.642  17.638 -24.140  0.00  0.00     0.002 C 
ATOM     24  C   UNL d   1      29.861  17.707 -24.372  0.00  0.00     0.000 C 
ENDBRANCH  22  23
ENDBRANCH  15  16
ENDBRANCH   1  15
TORSDOF 6
ENDMDL
MODEL 4
REMARK VINA RESULT:      -1.6      1.012      1.724
REMARK  6 active torsions:
REMARK  status: ('A' for Active; 'I' for Inactive)
REMARK    1  A    between atoms: C_2  and  N_10 
REMARK    2  A    between atoms: N_8  and  C_2 
REMARK    3  A    between atoms: C_4  and  N_8 
REMARK    4  A    between atoms: N_10  and  C_16 
REMARK    5  A    between atoms: C_22  and  C_13 
REMARK    6  A    between atoms: C_16  and  C_15 
ROOT
ATOM      1  C   UNL d   1      32.957  21.035 -22.926  0.00  0.00     0.221 C 
ATOM      2  S   UNL d   1      32.879  21.555 -23.562  0.00  0.00    -0.037 SA
ENDROOT
BRANCH   1   3
ATOM      3  N   UNL d   1      32.750  20.240 -23.016  0.00  0.00    -0.216 NA
BRANCH   3   4
ATOM      4  C   UNL d   1      33.150  19.762 -23.564  0.00  0.00     0.101 C 
BRANCH   4   5
ATOM      5  C   UNL d   1      32.918  18.974 -23.668  0.00  0.00     0.019 A 
ATOM      6  C   UNL d   1      32.369  18.772 -24.251  0.00  0.00     0.003 A 
ATOM      7  C   UNL d   1      32.143  17.984 -24.348  0.00  0.00     0.019 A 
ATOM      8  C   UNL d   1      32.464  17.404 -23.866  0.00  0.00     0.081 A 
ATOM      9  C   UNL d   1      33.014  17.606 -23.283  0.00  0.00     0.019 A 
ATOM     10  N   UNL d   1      32.348  16.585 -23.833  0.00  0.00    -0.246 NA
ATOM     11  C   UNL d   1      33.240  18.388 -23.184  0.00  0.00     0.003 A 
ATOM     12  C   UNL d   1      33.233  16.911 -22.895  0.00  0.00     0.021 A 
ATOM     13  C   UNL d   1      32.830  16.291 -23.227  0.00  0.00     0.082 A 
ATOM     14  C   UNL d   1      32.894  15.500 -22.995  0.00  0.00     0.021 C 
ENDBRANCH   4   5
ENDBRANCH   3   4
ENDBRANCH   1   3
BRANCH   1  15
ATOM     15  N   UNL d   1      33.241  21.308 -22.203  0.00  0.00    -0.217 NA
BRANCH  15  16
ATOM     16  C   UNL d   1      32.803  21.855 -21.770  0.00  0.00     0.084 A 
ATOM     17  C   UNL d   1      32.661  22.606 -22.079  0.00  0.00     0.018 A 
ATOM     18  C   UNL d   1      32.223  23.154 -21.646  0.00  0.00     0.002 A 
ATOM     19  C   UNL d   1      32.957  22.815 -22.824  0.00  0.00     0.002 C 
ATOM     20  C   UNL d   1      31.924  22.951 -20.898  0.00  0.00     0.000 A 
ATOM     21  C   UNL d   1      32.066  22.199 -20.589  0.00  0.00     0.002 A 
ATOM     22  C   UNL d   1      32.508  21.650 -21.029  0.00  0.00     0.018 A 
BRANCH  22  23
ATOM     23  C   UNL d   1      32.651  20.898 -20.721  0.00  0.00     0.002 C 
ATOM     24  C   UNL d   1      32.999  20.812 -19.987  0.00  0.00     0.000 C 
ENDBRANCH  22  23
ENDBRANCH  15  16
ENDBRANCH   1  15
TORSDOF 6
ENDMDL
MODEL 5
REMARK VINA RESULT:      -1.1      2.772      4.765
REMARK  6 active torsions:
REMARK  status: ('A' for Active; 'I' for Inactive)
REMARK    1  A    between atoms: C_2  and  N_10 
REMARK    2  A    between atoms: N_8  and  C_2 
REMARK    3  A    between atoms: C_4  and  N_8 
REMARK    4  A    between atoms: N_10  and  C_16 
REMARK    5  A    between atoms: C_22  and  C_13 
REMARK    6  A    between atoms: C_16  and  C_15 
ROOT
ATOM      1  C   UNL d   1      32.627  16.937 -23.927  0.00  0.00     0.221 C 
ATOM      2  S   UNL d   1      33.241  16.456 -24.196  0.00  0.00    -0.037 SA
ENDROOT
BRANCH   1   3
ATOM      3  N   UNL d   1      31.845  16.760 -24.129  0.00  0.00    -0.216 NA
BRANCH   3   4
ATOM      4  C   UNL d   1      31.432  16.167 -23.723  0.00  0.00     0.101 C 
BRANCH   4   5
ATOM      5  C   UNL d   1      30.653  15.989 -23.938  0.00  0.00     0.019 A 
ATOM      6  C   UNL d   1      30.469  15.783 -24.717  0.00  0.00     0.003 A 
ATOM      7  C   UNL d   1      29.689  15.607 -24.924  0.00  0.00     0.019 A 
ATOM      8  C   UNL d   1      29.099  15.636 -24.355  0.00  0.00     0.081 A 
ATOM      9  C   UNL d   1      29.282  15.842 -23.576  0.00  0.00     0.019 A 
ATOM     10  N   UNL d   1      28.285  15.492 -24.395  0.00  0.00    -0.246 NA
ATOM     11  C   UNL d   1      30.056  16.017 -23.368  0.00  0.00     0.003 A 
ATOM     12  C   UNL d   1      28.581  15.823 -23.141  0.00  0.00     0.021 A 
ATOM     13  C   UNL d   1      27.975  15.610 -23.637  0.00  0.00     0.082 A 
ATOM     14  C   UNL d   1      27.183  15.528 -23.415  0.00  0.00     0.021 C 
ENDBRANCH   4   5
ENDBRANCH   3   4
ENDBRANCH   1   3
BRANCH   1  15
ATOM     15  N   UNL d   1      32.794  17.594 -23.458  0.00  0.00    -0.217 NA
BRANCH  15  16
ATOM     16  C   UNL d   1      32.942  18.322 -23.810  0.00  0.00     0.084 A 
ATOM     17  C   UNL d   1      33.069  18.370 -24.624  0.00  0.00     0.018 A 
ATOM     18  C   UNL d   1      33.218  19.099 -24.977  0.00  0.00     0.002 A 
ATOM     19  C   UNL d   1      33.048  17.685 -25.090  0.00  0.00     0.002 C 
ATOM     20  C   UNL d   1      33.241  19.789 -24.514  0.00  0.00     0.000 A 
ATOM     21  C   UNL d   1      33.114  19.742 -23.701  0.00  0.00     0.002 A 
ATOM     22  C   UNL d   1      32.964  19.004 -23.349  0.00  0.00     0.018 A 
BRANCH  22  23
ATOM     23  C   UNL d   1      32.837  18.957 -22.536  0.00  0.00     0.002 C 
ATOM     24  C   UNL d   1      33.004  19.595 -22.054  0.00  0.00     0.000 C 
ENDBRANCH  22  23
ENDBRANCH  15  16
ENDBRANCH   1  15
TORSDOF 6
ENDMDL
MODEL 6
REMARK VINA RESULT:      -0.9      1.470      5.536
REMARK  6 active torsions:
REMARK  status: ('A' for Active; 'I' for Inactive)
REMARK    1  A    between atoms: C_2  and  N_10 
REMARK    2  A    between atoms: N_8  and  C_2 
REMARK    3  A    between atoms: C_4  and  N_8 
REMARK    4  A    between atoms: N_10  and  C_16 
REMARK    5  A    between atoms: C_22  and  C_13 
REMARK    6  A    between atoms: C_16  and  C_15 
ROOT
ATOM      1  C   UNL d   1      32.940  18.650 -23.280  0.00  0.00     0.221 C 
ATOM      2  S   UNL d   1      32.568  19.051 -23.897  0.00  0.00    -0.037 SA
ENDROOT
BRANCH   1   3
ATOM      3  N   UNL d   1      33.075  19.034 -22.560  0.00  0.00    -0.216 NA
BRANCH   3   4
ATOM      4  C   UNL d   1      33.091  19.863 -22.524  0.00  0.00     0.101 C 
BRANCH   4   5
ATOM      5  C   UNL d   1      33.102  20.241 -21.788  0.00  0.00     0.019 A 
ATOM      6  C   UNL d   1      33.226  19.808 -21.096  0.00  0.00     0.003 A 
ATOM      7  C   UNL d   1      33.236  20.193 -20.365  0.00  0.00     0.019 A 
ATOM      8  C   UNL d   1      33.123  21.005 -20.329  0.00  0.00     0.081 A 
ATOM      9  C   UNL d   1      32.999  21.438 -21.021  0.00  0.00     0.019 A 
ATOM     10  N   UNL d   1      33.104  21.533 -19.693  0.00  0.00    -0.246 NA
ATOM     11  C   UNL d   1      32.989  21.059 -21.748  0.00  0.00     0.003 A 
ATOM     12  C   UNL d   1      32.905  22.230 -20.807  0.00  0.00     0.021 A 
ATOM     13  C   UNL d   1      32.968  22.289 -20.001  0.00  0.00     0.082 A 
ATOM     14  C   UNL d   1      32.907  22.989 -19.567  0.00  0.00     0.021 C 
ENDBRANCH   4   5
ENDBRANCH   3   4
ENDBRANCH   1   3
BRANCH   1  15
ATOM     15  N   UNL d   1      33.178  17.868 -23.381  0.00  0.00    -0.217 NA
BRANCH  15  16
ATOM     16  C   UNL d   1      32.702  17.346 -23.804  0.00  0.00     0.084 A 
ATOM     17  C   UNL d   1      32.586  17.457 -24.613  0.00  0.00     0.018 A 
ATOM     18  C   UNL d   1      32.110  16.935 -25.037  0.00  0.00     0.002 A 
ATOM     19  C   UNL d   1      32.947  18.093 -25.003  0.00  0.00     0.002 C 
ATOM     20  C   UNL d   1      31.746  16.296 -24.651  0.00  0.00     0.000 A 
ATOM     21  C   UNL d   1      31.862  16.185 -23.842  0.00  0.00     0.002 A 
ATOM     22  C   UNL d   1      32.343  16.714 -23.419  0.00  0.00     0.018 A 
BRANCH  22  23
ATOM     23  C   UNL d   1      32.459  16.603 -22.610  0.00  0.00     0.002 C 
ATOM     24  C   UNL d   1      32.458  15.850 -22.291  0.00  0.00     0.000 C 
ENDBRANCH  22  23
ENDBRANCH  15  16
ENDBRANCH   1  15
TORSDOF 6
ENDMDL
