MODEL 1
REMARK VINA RESULT:      -2.5      0.000      0.000
REMARK  4 active torsions:
REMARK  status: ('A' for Active; 'I' for Inactive)
REMARK    1  A    between atoms: N_3  and  S_1 
REMARK    2  A    between atoms: C_5  and  S_1 
REMARK    3  A    between atoms: C_2  and  C_9 
REMARK       I    between atoms: N_4  and  C_2 
REMARK    4  A    between atoms: C_11  and  N_3 
ROOT
ATOM      1  C   UNL d   1      32.504  20.680 -21.666  0.00  0.00     0.057 A 
ATOM      2  C   UNL d   1      32.992  19.480 -22.683  0.00  0.00     0.094 A 
ATOM      3  C   UNL d   1      32.259  20.683 -22.455  0.00  0.00     0.006 A 
ATOM      4  C   UNL d   1      32.992  20.079 -21.383  0.00  0.00     0.006 A 
ATOM      5  C   UNL d   1      32.505  20.080 -22.963  0.00  0.00     0.020 A 
ATOM      6  C   UNL d   1      33.238  19.479 -21.884  0.00  0.00     0.020 A 
ENDROOT
BRANCH   2   7
ATOM      7  N   UNL d   1      33.238  18.880 -23.185  0.00  0.00    -0.158 NA
BRANCH   7   8
ATOM      8  S   UNL d   1      32.702  18.297 -23.423  0.00  0.00     0.285 S 
ATOM      9  O   UNL d   1      32.625  18.662 -24.160  0.00  0.00    -0.198 OA
ATOM     10  O   UNL d   1      32.781  17.934 -22.686  0.00  0.00    -0.198 OA
BRANCH   8  11
ATOM     11  C   UNL d   1      32.169  17.715 -23.658  0.00  0.00     0.107 A 
ATOM     12  C   UNL d   1      31.474  17.927 -24.054  0.00  0.00     0.043 A 
ATOM     13  C   UNL d   1      30.938  17.343 -24.291  0.00  0.00     0.141 A 
ATOM     14  F   UNL d   1      30.236  17.549 -24.691  0.00  0.00    -0.204 F 
ATOM     15  C   UNL d   1      31.098  16.550 -24.130  0.00  0.00     0.030 A 
ATOM     16  C   UNL d   1      31.788  16.342 -23.737  0.00  0.00     0.003 A 
ATOM     17  C   UNL d   1      32.326  16.921 -23.499  0.00  0.00     0.013 A 
ENDBRANCH   8  11
ENDBRANCH   7   8
ENDBRANCH   2   7
BRANCH   1  18
ATOM     18  C   UNL d   1      32.257  21.290 -21.145  0.00  0.00     0.265 C 
ATOM     19  N   UNL d   1      32.495  22.070 -21.287  0.00  0.00    -0.272 N 
ATOM     20  C   UNL d   1      32.252  22.672 -20.775  0.00  0.00     0.083 A 
ATOM     21  C   UNL d   1      32.970  22.249 -21.932  0.00  0.00     0.083 A 
ATOM     22  C   UNL d   1      32.488  23.450 -20.915  0.00  0.00     0.019 A 
ATOM     23  C   UNL d   1      32.961  23.614 -21.561  0.00  0.00     0.003 A 
ATOM     24  C   UNL d   1      33.202  23.019 -22.068  0.00  0.00     0.019 A 
ATOM     25  O   UNL d   1      31.775  21.107 -20.492  0.00  0.00    -0.267 OA
ENDBRANCH   1  18
TORSDOF 4
ENDMDL
MODEL 2
REMARK VINA RESULT:      -0.4      1.888      3.000
REMARK  4 active torsions:
REMARK  status: ('A' for Active; 'I' for Inactive)
REMARK    1  A    between atoms: N_3  and  S_1 
REMARK    2  A    between atoms: C_5  and  S_1 
REMARK    3  A    between atoms: C_2  and  C_9 
REMARK       I    between atoms: N_4  and  C_2 
REMARK    4  A    between atoms: C_11  and  N_3 
ROOT
ATOM      1  C   UNL d   1      32.427  18.644 -23.607  0.00  0.00     0.057 A 
ATOM      2  C   UNL d   1      32.008  17.056 -23.733  0.00  0.00     0.094 A 
ATOM      3  C   UNL d   1      32.874  18.135 -24.081  0.00  0.00     0.006 A 
ATOM      4  C   UNL d   1      31.770  18.362 -23.196  0.00  0.00     0.006 A 
ATOM      5  C   UNL d   1      32.661  17.339 -24.141  0.00  0.00     0.020 A 
ATOM      6  C   UNL d   1      31.556  17.572 -23.255  0.00  0.00     0.020 A 
ENDROOT
BRANCH   2   7
ATOM      7  N   UNL d   1      31.794  16.267 -23.791  0.00  0.00    -0.158 NA
BRANCH   7   8
ATOM      8  S   UNL d   1      31.012  16.064 -23.969  0.00  0.00     0.285 S 
ATOM      9  O   UNL d   1      31.156  16.194 -24.772  0.00  0.00    -0.198 OA
ATOM     10  O   UNL d   1      30.871  15.934 -23.166  0.00  0.00    -0.198 OA
BRANCH   8  11
ATOM     11  C   UNL d   1      30.233  15.861 -24.144  0.00  0.00     0.107 A 
ATOM     12  C   UNL d   1      29.685  15.761 -23.532  0.00  0.00     0.043 A 
ATOM     13  C   UNL d   1      28.902  15.557 -23.706  0.00  0.00     0.141 A 
ATOM     14  F   UNL d   1      28.345  15.455 -23.094  0.00  0.00    -0.204 F 
ATOM     15  C   UNL d   1      28.670  15.455 -24.491  0.00  0.00     0.030 A 
ATOM     16  C   UNL d   1      29.215  15.555 -25.097  0.00  0.00     0.003 A 
ATOM     17  C   UNL d   1      29.997  15.758 -24.928  0.00  0.00     0.013 A 
ENDBRANCH   8  11
ENDBRANCH   7   8
ENDBRANCH   2   7
BRANCH   1  18
ATOM     18  C   UNL d   1      32.638  19.453 -23.542  0.00  0.00     0.265 C 
ATOM     19  N   UNL d   1      32.835  19.766 -22.801  0.00  0.00    -0.272 N 
ATOM     20  C   UNL d   1      33.044  20.563 -22.735  0.00  0.00     0.083 A 
ATOM     21  C   UNL d   1      32.825  19.289 -22.133  0.00  0.00     0.083 A 
ATOM     22  C   UNL d   1      33.240  20.876 -21.998  0.00  0.00     0.019 A 
ATOM     23  C   UNL d   1      33.226  20.390 -21.341  0.00  0.00     0.003 A 
ATOM     24  C   UNL d   1      33.020  19.601 -21.404  0.00  0.00     0.019 A 
ATOM     25  O   UNL d   1      32.648  19.934 -24.221  0.00  0.00    -0.267 OA
ENDBRANCH   1  18
TORSDOF 4
ENDMDL
