MODEL 1
REMARK VINA RESULT:      -5.7      0.000      0.000
REMARK  3 active torsions:
REMARK  status: ('A' for Active; 'I' for Inactive)
REMARK    1  A    between atoms: C_8  and  C_2 
REMARK    2  A    between atoms: C_7  and  C_5 
REMARK    3  A    between atoms: C_10  and  C_8 
ROOT
ATOM      1  C   UNL d   1     -41.673-122.352 -52.692  0.00  0.00     0.101 A 
ATOM      2  O   UNL d   1     -42.260-122.505 -52.150  0.00  0.00    -0.307 OA
ATOM      3  C   UNL d   1     -42.063-122.087 -51.457  0.00  0.00     0.101 A 
ATOM      4  C   UNL d   1     -41.143-121.856 -52.324  0.00  0.00     0.027 A 
ATOM      5  C   UNL d   1     -41.410-121.714 -51.573  0.00  0.00     0.027 A 
ENDROOT
BRANCH   1   6
ATOM      6  C   UNL d   1     -41.652-122.660 -53.459  0.00  0.00     0.034 A 
ATOM      7  C   UNL d   1     -42.022-122.216 -54.084  0.00  0.00     0.070 A 
ATOM      8  C   UNL d   1     -42.007-122.522 -54.874  0.00  0.00     0.068 A 
ATOM      9 CL   UNL d   1     -42.441-121.439 -54.009  0.00  0.00    -0.081 Cl
ATOM     10 CL   UNL d   1     -42.394-122.001 -55.368  0.00  0.00    -0.082 Cl
ATOM     11  C   UNL d   1     -41.628-123.249 -55.009  0.00  0.00     0.012 A 
ATOM     12  C   UNL d   1     -41.268-123.671 -54.379  0.00  0.00     0.001 A 
ATOM     13  C   UNL d   1     -41.285-123.375 -53.625  0.00  0.00     0.003 A 
ENDBRANCH   1   6
BRANCH   3  14
ATOM     14  C   UNL d   1     -42.491-122.063 -50.736  0.00  0.00     0.036 C 
BRANCH  14  15
ATOM     15  C   UNL d   1     -42.267-122.563 -50.119  0.00  0.00     0.094 A 
ATOM     16  C   UNL d   1     -42.822-122.880 -49.608  0.00  0.00     0.288 A 
ATOM     17  N   UNL d   1     -42.427-123.361 -49.045  0.00  0.00    -0.163 NA
ATOM     18  O   UNL d   1     -43.676-122.743 -49.639  0.00  0.00    -0.265 OA
ATOM     19  C   UNL d   1     -41.676-123.325 -49.222  0.00  0.00     0.313 A 
ATOM     20  S   UNL d   1     -41.534-122.836 -49.888  0.00  0.00    -0.021 SA
ATOM     21  O   UNL d   1     -41.135-123.755 -48.752  0.00  0.00    -0.258 OA
ENDBRANCH  14  15
ENDBRANCH   3  14
TORSDOF 3
ENDMDL
