MODEL 1
REMARK VINA RESULT:      -7.0      0.000      0.000
REMARK  6 active torsions:
REMARK  status: ('A' for Active; 'I' for Inactive)
REMARK    1  A    between atoms: C_6  and  C_1 
REMARK    2  A    between atoms: C_7  and  C_3 
REMARK    3  A    between atoms: O_11  and  C_6 
REMARK    4  A    between atoms: O_12  and  C_7 
REMARK    5  A    between atoms: C_14  and  O_11 
REMARK    6  A    between atoms: C_15  and  O_12 
ROOT
ATOM      1  C   UNL d   1      53.494  33.048  53.482  0.00  0.00     0.083 A 
ATOM      2  C   UNL d   1      53.010  32.386  53.308  0.00  0.00     0.030 A 
ATOM      3  C   UNL d   1      53.479  31.715  53.425  0.00  0.00     0.145 A 
ATOM      4  N   UNL d   1      54.224  31.940  53.663  0.00  0.00    -0.240 NA
ATOM      5  C   UNL d   1      54.232  32.772  53.698  0.00  0.00     0.087 A 
ATOM      6  C   UNL d   1      52.237  32.416  53.072  0.00  0.00     0.002 C 
ATOM      7  C   UNL d   1      54.868  33.255  53.912  0.00  0.00     0.021 C 
ENDROOT
BRANCH   1   8
ATOM      8  C   UNL d   1      53.279  33.842  53.447  0.00  0.00     0.302 C 
ATOM      9  O   UNL d   1      53.246  34.216  52.742  0.00  0.00    -0.259 OA
BRANCH   8  10
ATOM     10  O   UNL d   1      53.097  34.246  54.163  0.00  0.00    -0.271 OA
BRANCH  10  11
ATOM     11  C   UNL d   1      52.861  35.010  54.159  0.00  0.00     0.126 C 
ATOM     12  C   UNL d   1      52.745  35.423  54.866  0.00  0.00     0.029 C 
ENDBRANCH  10  11
ENDBRANCH   8  10
ENDBRANCH   1   8
BRANCH   3  13
ATOM     13  C   UNL d   1      53.201  30.943  53.310  0.00  0.00     0.318 C 
ATOM     14  O   UNL d   1      52.868  30.718  52.621  0.00  0.00    -0.257 OA
BRANCH  13  15
ATOM     15  O   UNL d   1      53.270  30.403  53.914  0.00  0.00    -0.270 OA
BRANCH  15  16
ATOM     16  C   UNL d   1      53.173  29.601  53.778  0.00  0.00     0.126 C 
ATOM     17  C   UNL d   1      53.264  29.062  54.378  0.00  0.00     0.029 C 
ENDBRANCH  15  16
ENDBRANCH  13  15
ENDBRANCH   3  13
TORSDOF 6
ENDMDL
MODEL 2
REMARK VINA RESULT:      -6.9      1.791      3.295
REMARK  6 active torsions:
REMARK  status: ('A' for Active; 'I' for Inactive)
REMARK    1  A    between atoms: C_6  and  C_1 
REMARK    2  A    between atoms: C_7  and  C_3 
REMARK    3  A    between atoms: O_11  and  C_6 
REMARK    4  A    between atoms: O_12  and  C_7 
REMARK    5  A    between atoms: C_14  and  O_11 
REMARK    6  A    between atoms: C_15  and  O_12 
ROOT
ATOM      1  C   UNL d   1      53.153  33.113  53.327  0.00  0.00     0.083 A 
ATOM      2  C   UNL d   1      52.714  33.789  53.093  0.00  0.00     0.030 A 
ATOM      3  C   UNL d   1      52.007  33.508  52.768  0.00  0.00     0.145 A 
ATOM      4  N   UNL d   1      51.997  32.695  52.794  0.00  0.00    -0.240 NA
ATOM      5  C   UNL d   1      52.712  32.450  53.143  0.00  0.00     0.087 A 
ATOM      6  C   UNL d   1      52.951  34.557  53.177  0.00  0.00     0.002 C 
ATOM      7  C   UNL d   1      52.954  31.672  53.287  0.00  0.00     0.021 C 
ENDROOT
BRANCH   1   8
ATOM      8  C   UNL d   1      53.896  33.102  53.680  0.00  0.00     0.302 C 
ATOM      9  O   UNL d   1      54.544  32.943  53.241  0.00  0.00    -0.259 OA
BRANCH   8  10
ATOM     10  O   UNL d   1      53.957  33.261  54.504  0.00  0.00    -0.271 OA
BRANCH  10  11
ATOM     11  C   UNL d   1      54.667  33.278  54.872  0.00  0.00     0.126 C 
ATOM     12  C   UNL d   1      54.727  33.465  55.675  0.00  0.00     0.029 C 
ENDBRANCH  10  11
ENDBRANCH   8  10
ENDBRANCH   1   8
BRANCH   3  13
ATOM     13  C   UNL d   1      51.417  34.008  52.470  0.00  0.00     0.318 C 
ATOM     14  O   UNL d   1      51.478  34.340  51.747  0.00  0.00    -0.257 OA
BRANCH  13  15
ATOM     15  O   UNL d   1      50.762  34.163  52.925  0.00  0.00    -0.270 OA
BRANCH  15  16
ATOM     16  C   UNL d   1      50.080  34.475  52.594  0.00  0.00     0.126 C 
ATOM     17  C   UNL d   1      49.516  34.831  53.058  0.00  0.00     0.029 C 
ENDBRANCH  15  16
ENDBRANCH  13  15
ENDBRANCH   3  13
TORSDOF 6
ENDMDL
MODEL 3
REMARK VINA RESULT:      -6.6      1.427      3.519
REMARK  6 active torsions:
REMARK  status: ('A' for Active; 'I' for Inactive)
REMARK    1  A    between atoms: C_6  and  C_1 
REMARK    2  A    between atoms: C_7  and  C_3 
REMARK    3  A    between atoms: O_11  and  C_6 
REMARK    4  A    between atoms: O_12  and  C_7 
REMARK    5  A    between atoms: C_14  and  O_11 
REMARK    6  A    between atoms: C_15  and  O_12 
ROOT
ATOM      1  C   UNL d   1      53.421  32.467  53.781  0.00  0.00     0.083 A 
ATOM      2  C   UNL d   1      52.907  32.838  53.231  0.00  0.00     0.030 A 
ATOM      3  C   UNL d   1      52.681  33.558  53.568  0.00  0.00     0.145 A 
ATOM      4  N   UNL d   1      53.034  33.642  54.296  0.00  0.00    -0.240 NA
ATOM      5  C   UNL d   1      53.495  32.961  54.428  0.00  0.00     0.087 A 
ATOM      6  C   UNL d   1      52.686  32.534  52.515  0.00  0.00     0.002 C 
ATOM      7  C   UNL d   1      53.956  32.794  55.093  0.00  0.00     0.021 C 
ENDROOT
BRANCH   1   8
ATOM      8  C   UNL d   1      53.792  31.737  53.700  0.00  0.00     0.302 C 
ATOM      9  O   UNL d   1      54.550  31.701  53.451  0.00  0.00    -0.259 OA
BRANCH   8  10
ATOM     10  O   UNL d   1      53.360  31.039  53.882  0.00  0.00    -0.271 OA
BRANCH  10  11
ATOM     11  C   UNL d   1      53.657  30.314  53.723  0.00  0.00     0.126 C 
ATOM     12  C   UNL d   1      53.250  29.629  53.943  0.00  0.00     0.029 C 
ENDBRANCH  10  11
ENDBRANCH   8  10
ENDBRANCH   1   8
BRANCH   3  13
ATOM     13  C   UNL d   1      52.171  34.092  53.193  0.00  0.00     0.318 C 
ATOM     14  O   UNL d   1      52.449  34.689  52.742  0.00  0.00    -0.257 OA
BRANCH  13  15
ATOM     15  O   UNL d   1      51.369  34.006  53.288  0.00  0.00    -0.270 OA
BRANCH  15  16
ATOM     16  C   UNL d   1      50.845  34.572  53.010  0.00  0.00     0.126 C 
ATOM     17  C   UNL d   1      50.045  34.433  53.003  0.00  0.00     0.029 C 
ENDBRANCH  15  16
ENDBRANCH  13  15
ENDBRANCH   3  13
TORSDOF 6
ENDMDL
MODEL 4
REMARK VINA RESULT:      -6.5      2.162      3.234
REMARK  6 active torsions:
REMARK  status: ('A' for Active; 'I' for Inactive)
REMARK    1  A    between atoms: C_6  and  C_1 
REMARK    2  A    between atoms: C_7  and  C_3 
REMARK    3  A    between atoms: O_11  and  C_6 
REMARK    4  A    between atoms: O_12  and  C_7 
REMARK    5  A    between atoms: C_14  and  O_11 
REMARK    6  A    between atoms: C_15  and  O_12 
ROOT
ATOM      1  C   UNL d   1      51.994  33.860  53.149  0.00  0.00     0.083 A 
ATOM      2  C   UNL d   1      52.495  34.323  53.637  0.00  0.00     0.030 A 
ATOM      3  C   UNL d   1      52.960  33.792  54.068  0.00  0.00     0.145 A 
ATOM      4  N   UNL d   1      52.764  33.029  53.864  0.00  0.00    -0.240 NA
ATOM      5  C   UNL d   1      52.161  33.073  53.292  0.00  0.00     0.087 A 
ATOM      6  C   UNL d   1      52.508  35.131  53.667  0.00  0.00     0.002 C 
ATOM      7  C   UNL d   1      51.783  32.439  52.918  0.00  0.00     0.021 C 
ENDROOT
BRANCH   1   8
ATOM      8  C   UNL d   1      51.428  34.134  52.617  0.00  0.00     0.302 C 
ATOM      9  O   UNL d   1      51.620  34.234  51.848  0.00  0.00    -0.259 OA
BRANCH   8  10
ATOM     10  O   UNL d   1      50.654  34.304  52.899  0.00  0.00    -0.271 OA
BRANCH  10  11
ATOM     11  C   UNL d   1      50.074  34.535  52.401  0.00  0.00     0.126 C 
ATOM     12  C   UNL d   1      49.352  34.818  52.688  0.00  0.00     0.029 C 
ENDBRANCH  10  11
ENDBRANCH   8  10
ENDBRANCH   1   8
BRANCH   3  13
ATOM     13  C   UNL d   1      53.532  34.034  54.617  0.00  0.00     0.318 C 
ATOM     14  O   UNL d   1      53.351  34.528  55.217  0.00  0.00    -0.257 OA
BRANCH  13  15
ATOM     15  O   UNL d   1      54.293  33.760  54.542  0.00  0.00    -0.270 OA
BRANCH  15  16
ATOM     16  C   UNL d   1      54.813  33.774  55.175  0.00  0.00     0.126 C 
ATOM     17  C   UNL d   1      55.616  33.772  55.056  0.00  0.00     0.029 C 
ENDBRANCH  15  16
ENDBRANCH  13  15
ENDBRANCH   3  13
TORSDOF 6
ENDMDL
MODEL 5
REMARK VINA RESULT:      -6.5      0.718      3.632
REMARK  6 active torsions:
REMARK  status: ('A' for Active; 'I' for Inactive)
REMARK    1  A    between atoms: C_6  and  C_1 
REMARK    2  A    between atoms: C_7  and  C_3 
REMARK    3  A    between atoms: O_11  and  C_6 
REMARK    4  A    between atoms: O_12  and  C_7 
REMARK    5  A    between atoms: C_14  and  O_11 
REMARK    6  A    between atoms: C_15  and  O_12 
ROOT
ATOM      1  C   UNL d   1      53.197  32.159  53.193  0.00  0.00     0.083 A 
ATOM      2  C   UNL d   1      52.624  32.766  53.277  0.00  0.00     0.030 A 
ATOM      3  C   UNL d   1      53.040  33.462  53.439  0.00  0.00     0.145 A 
ATOM      4  N   UNL d   1      53.839  33.304  53.457  0.00  0.00    -0.240 NA
ATOM      5  C   UNL d   1      53.934  32.492  53.303  0.00  0.00     0.087 A 
ATOM      6  C   UNL d   1      51.824  32.671  53.209  0.00  0.00     0.002 C 
ATOM      7  C   UNL d   1      54.647  32.074  53.265  0.00  0.00     0.021 C 
ENDROOT
BRANCH   1   8
ATOM      8  C   UNL d   1      53.057  31.365  53.028  0.00  0.00     0.302 C 
ATOM      9  O   UNL d   1      52.837  31.143  52.293  0.00  0.00    -0.259 OA
BRANCH   8  10
ATOM     10  O   UNL d   1      53.150  30.799  53.644  0.00  0.00    -0.271 OA
BRANCH  10  11
ATOM     11  C   UNL d   1      53.030  30.020  53.514  0.00  0.00     0.126 C 
ATOM     12  C   UNL d   1      53.164  29.462  54.108  0.00  0.00     0.029 C 
ENDBRANCH  10  11
ENDBRANCH   8  10
ENDBRANCH   1   8
BRANCH   3  13
ATOM     13  C   UNL d   1      52.670  34.193  53.560  0.00  0.00     0.318 C 
ATOM     14  O   UNL d   1      52.127  34.475  53.048  0.00  0.00    -0.257 OA
BRANCH  13  15
ATOM     15  O   UNL d   1      52.865  34.631  54.216  0.00  0.00    -0.270 OA
BRANCH  15  16
ATOM     16  C   UNL d   1      52.710  35.435  54.249  0.00  0.00     0.126 C 
ATOM     17  C   UNL d   1      52.993  35.890  54.860  0.00  0.00     0.029 C 
ENDBRANCH  15  16
ENDBRANCH  13  15
ENDBRANCH   3  13
TORSDOF 6
ENDMDL
