MODEL 1
REMARK VINA RESULT:      48.8      0.000      0.000
REMARK  5 active torsions:
REMARK  status: ('A' for Active; 'I' for Inactive)
REMARK    1  A    between atoms: C_7  and  N_2 
REMARK    2  A    between atoms: C_14  and  C_7 
REMARK    3  A    between atoms: C_8  and  O_16 
REMARK    4  A    between atoms: C_18  and  C_14 
REMARK    5  A    between atoms: O_16  and  C_18 
ROOT
ATOM      1  C   UNL d   1     -55.865 -99.486 -43.026  0.00  0.00     0.086 C 
ENDROOT
BRANCH   1   2
ATOM      2  N   UNL d   1     -56.234 -99.255 -43.725  0.00  0.00    -0.268 N 
ATOM      3  C   UNL d   1     -55.855 -99.098 -44.440  0.00  0.00     0.296 A 
ATOM      4  S   UNL d   1     -56.441 -98.885 -44.994  0.00  0.00    -0.025 SA
ATOM      5  O   UNL d   1     -55.046 -99.141 -44.589  0.00  0.00    -0.259 OA
ATOM      6  C   UNL d   1     -57.170 -98.915 -44.608  0.00  0.00     0.050 A 
ATOM      7  C   UNL d   1     -57.948 -98.761 -44.875  0.00  0.00     0.008 A 
ATOM      8  C   UNL d   1     -57.048 -99.142 -43.830  0.00  0.00     0.073 A 
ATOM      9  C   UNL d   1     -58.581 -98.838 -44.356  0.00  0.00     0.001 A 
ATOM     10  C   UNL d   1     -58.447 -99.068 -43.570  0.00  0.00     0.002 A 
ATOM     11  C   UNL d   1     -57.681 -99.220 -43.305  0.00  0.00     0.018 A 
ENDBRANCH   1   2
BRANCH   1  12
ATOM     12  C   UNL d   1     -55.089 -99.781 -43.039  0.00  0.00     0.046 C 
BRANCH  12  13
ATOM     13  C   UNL d   1     -54.948-100.592 -43.086  0.00  0.00     0.124 C 
BRANCH  13  14
ATOM     14  O   UNL d   1     -54.901-101.041 -42.402  0.00  0.00    -0.305 OA
BRANCH  14  15
ATOM     15  C   UNL d   1     -54.856-101.496 -41.711  0.00  0.00     0.100 A 
ATOM     16  C   UNL d   1     -54.823-101.120 -40.993  0.00  0.00     0.025 A 
ATOM     17  C   UNL d   1     -54.778-101.567 -40.295  0.00  0.00     0.002 A 
ATOM     18  C   UNL d   1     -54.766-102.393 -40.338  0.00  0.00     0.000 A 
ATOM     19  C   UNL d   1     -54.799-102.764 -41.074  0.00  0.00     0.002 A 
ATOM     20  C   UNL d   1     -54.721-102.840 -39.654  0.00  0.00     0.000 C 
ATOM     21  C   UNL d   1     -54.844-102.318 -41.759  0.00  0.00     0.025 A 
ENDBRANCH  14  15
ENDBRANCH  13  14
ENDBRANCH  12  13
ENDBRANCH   1  12
TORSDOF 5
ENDMDL
