MODEL 1
REMARK VINA RESULT:      -8.3      0.000      0.000
REMARK  5 active torsions:
REMARK  status: ('A' for Active; 'I' for Inactive)
REMARK    1  A    between atoms: N_2  and  C_1 
REMARK    2  A    between atoms: C_8  and  C_5 
REMARK    3  A    between atoms: C_6  and  C_9 
REMARK       I    between atoms: N_12  and  C_6 
REMARK    4  A    between atoms: C_9  and  C_8 
REMARK    5  A    between atoms: C_13  and  N_12 
ROOT
ATOM      1  C   UNL d   1      52.900  31.855  53.214  0.00  0.00     0.279 C 
ATOM      2  N   UNL d   1      53.463  31.328  53.495  0.00  0.00    -0.208 NA
ATOM      3  O   UNL d   1      52.150  31.578  52.950  0.00  0.00    -0.265 OA
ENDROOT
BRANCH   1   4
ATOM      4  C   UNL d   1      53.065  32.663  53.188  0.00  0.00     0.063 C 
BRANCH   4   5
ATOM      5  C   UNL d   1      52.429  33.204  53.245  0.00  0.00     0.011 C 
BRANCH   5   6
ATOM      6  C   UNL d   1      52.586  33.980  53.513  0.00  0.00     0.031 A 
ATOM      7  S   UNL d   1      52.846  34.274  54.235  0.00  0.00    -0.064 SA
ATOM      8  C   UNL d   1      52.894  35.074  54.157  0.00  0.00     0.156 A 
ATOM      9  C   UNL d   1      52.667  35.290  53.393  0.00  0.00     0.031 A 
ATOM     10  C   UNL d   1      52.475  34.624  52.985  0.00  0.00     0.009 A 
BRANCH   8  11
ATOM     11  N   UNL d   1      53.135  35.609  54.755  0.00  0.00    -0.107 N 
ATOM     12  O   UNL d   1      53.289  36.386  54.567  0.00  0.00    -0.531 OA
ATOM     13  O   UNL d   1      53.216  35.342  55.538  0.00  0.00    -0.531 OA
ENDBRANCH   8  11
ENDBRANCH   5   6
ENDBRANCH   4   5
ENDBRANCH   1   4
BRANCH   2  14
ATOM     14  C   UNL d   1      53.299  30.527  53.521  0.00  0.00     0.085 A 
ATOM     15  C   UNL d   1      53.428  30.095  54.210  0.00  0.00     0.019 A 
ATOM     16  C   UNL d   1      53.266  29.298  54.236  0.00  0.00     0.002 A 
ATOM     17  C   UNL d   1      53.403  28.868  54.949  0.00  0.00     0.000 C 
ATOM     18  C   UNL d   1      52.970  28.912  53.573  0.00  0.00     0.000 A 
ATOM     19  C   UNL d   1      52.840  29.342  52.881  0.00  0.00     0.002 A 
ATOM     20  C   UNL d   1      53.002  30.139  52.855  0.00  0.00     0.019 A 
ENDBRANCH   2  14
TORSDOF 5
ENDMDL
MODEL 2
REMARK VINA RESULT:      -8.2      2.899      3.733
REMARK  5 active torsions:
REMARK  status: ('A' for Active; 'I' for Inactive)
REMARK    1  A    between atoms: N_2  and  C_1 
REMARK    2  A    between atoms: C_8  and  C_5 
REMARK    3  A    between atoms: C_6  and  C_9 
REMARK       I    between atoms: N_12  and  C_6 
REMARK    4  A    between atoms: C_9  and  C_8 
REMARK    5  A    between atoms: C_13  and  N_12 
ROOT
ATOM      1  C   UNL d   1      52.108  33.823  53.367  0.00  0.00     0.279 C 
ATOM      2  N   UNL d   1      52.861  34.145  53.409  0.00  0.00    -0.208 NA
ATOM      3  O   UNL d   1      51.966  33.031  53.615  0.00  0.00    -0.265 OA
ENDROOT
BRANCH   1   4
ATOM      4  C   UNL d   1      51.480  34.275  53.080  0.00  0.00     0.063 C 
BRANCH   4   5
ATOM      5  C   UNL d   1      50.744  33.900  52.949  0.00  0.00     0.011 C 
BRANCH   5   6
ATOM      6  C   UNL d   1      50.087  34.372  52.735  0.00  0.00     0.031 A 
ATOM      7  S   UNL d   1      49.615  34.889  53.164  0.00  0.00    -0.064 SA
ATOM      8  C   UNL d   1      49.065  35.181  52.653  0.00  0.00     0.156 A 
ATOM      9  C   UNL d   1      49.185  34.854  51.904  0.00  0.00     0.031 A 
ATOM     10  C   UNL d   1      49.812  34.352  51.942  0.00  0.00     0.009 A 
BRANCH   8  11
ATOM     11  N   UNL d   1      48.464  35.732  52.845  0.00  0.00    -0.107 N 
ATOM     12  O   UNL d   1      47.791  35.776  52.388  0.00  0.00    -0.531 OA
ATOM     13  O   UNL d   1      48.558  36.231  53.503  0.00  0.00    -0.531 OA
ENDBRANCH   8  11
ENDBRANCH   5   6
ENDBRANCH   4   5
ENDBRANCH   1   4
BRANCH   2  14
ATOM     14  C   UNL d   1      53.484  33.697  53.694  0.00  0.00     0.085 A 
ATOM     15  C   UNL d   1      53.791  33.836  54.445  0.00  0.00     0.019 A 
ATOM     16  C   UNL d   1      54.411  33.390  54.728  0.00  0.00     0.002 A 
ATOM     17  C   UNL d   1      54.715  33.544  55.500  0.00  0.00     0.000 C 
ATOM     18  C   UNL d   1      54.739  32.794  54.267  0.00  0.00     0.000 A 
ATOM     19  C   UNL d   1      54.434  32.651  53.514  0.00  0.00     0.002 A 
ATOM     20  C   UNL d   1      53.814  33.097  53.231  0.00  0.00     0.019 A 
ENDBRANCH   2  14
TORSDOF 5
ENDMDL
MODEL 3
REMARK VINA RESULT:      -8.1      1.920      5.019
REMARK  5 active torsions:
REMARK  status: ('A' for Active; 'I' for Inactive)
REMARK    1  A    between atoms: N_2  and  C_1 
REMARK    2  A    between atoms: C_8  and  C_5 
REMARK    3  A    between atoms: C_6  and  C_9 
REMARK       I    between atoms: N_12  and  C_6 
REMARK    4  A    between atoms: C_9  and  C_8 
REMARK    5  A    between atoms: C_13  and  N_12 
ROOT
ATOM      1  C   UNL d   1      53.510  32.561  53.664  0.00  0.00     0.279 C 
ATOM      2  N   UNL d   1      52.926  32.989  54.049  0.00  0.00    -0.208 NA
ATOM      3  O   UNL d   1      53.990  32.926  53.077  0.00  0.00    -0.265 OA
ENDROOT
BRANCH   1   4
ATOM      4  C   UNL d   1      53.633  31.767  53.851  0.00  0.00     0.063 C 
BRANCH   4   5
ATOM      5  C   UNL d   1      53.397  31.184  53.298  0.00  0.00     0.011 C 
BRANCH   5   6
ATOM      6  C   UNL d   1      53.274  30.403  53.568  0.00  0.00     0.031 A 
ATOM      7  S   UNL d   1      53.521  30.006  54.244  0.00  0.00    -0.064 SA
ATOM      8  C   UNL d   1      53.226  29.258  54.195  0.00  0.00     0.156 A 
ATOM      9  C   UNL d   1      52.795  29.177  53.495  0.00  0.00     0.031 A 
ATOM     10  C   UNL d   1      52.817  29.877  53.100  0.00  0.00     0.009 A 
BRANCH   8  11
ATOM     11  N   UNL d   1      53.337  28.651  54.763  0.00  0.00    -0.107 N 
ATOM     12  O   UNL d   1      53.097  28.767  55.532  0.00  0.00    -0.531 OA
ATOM     13  O   UNL d   1      53.691  27.934  54.535  0.00  0.00    -0.531 OA
ENDBRANCH   8  11
ENDBRANCH   5   6
ENDBRANCH   4   5
ENDBRANCH   1   4
BRANCH   2  14
ATOM     14  C   UNL d   1      52.804  33.776  53.865  0.00  0.00     0.085 A 
ATOM     15  C   UNL d   1      53.075  34.371  54.366  0.00  0.00     0.019 A 
ATOM     16  C   UNL d   1      52.953  35.155  54.183  0.00  0.00     0.002 A 
ATOM     17  C   UNL d   1      53.236  35.753  54.706  0.00  0.00     0.000 C 
ATOM     18  C   UNL d   1      52.558  35.364  53.493  0.00  0.00     0.000 A 
ATOM     19  C   UNL d   1      52.286  34.772  52.988  0.00  0.00     0.002 A 
ATOM     20  C   UNL d   1      52.407  33.988  53.172  0.00  0.00     0.019 A 
ENDBRANCH   2  14
TORSDOF 5
ENDMDL
MODEL 4
REMARK VINA RESULT:      -8.0      2.630      4.566
REMARK  5 active torsions:
REMARK  status: ('A' for Active; 'I' for Inactive)
REMARK    1  A    between atoms: N_2  and  C_1 
REMARK    2  A    between atoms: C_8  and  C_5 
REMARK    3  A    between atoms: C_6  and  C_9 
REMARK       I    between atoms: N_12  and  C_6 
REMARK    4  A    between atoms: C_9  and  C_8 
REMARK    5  A    between atoms: C_13  and  N_12 
ROOT
ATOM      1  C   UNL d   1      51.333  34.093  52.877  0.00  0.00     0.279 C 
ATOM      2  N   UNL d   1      50.550  33.970  53.087  0.00  0.00    -0.208 NA
ATOM      3  O   UNL d   1      51.530  34.609  52.241  0.00  0.00    -0.265 OA
ENDROOT
BRANCH   1   4
ATOM      4  C   UNL d   1      51.938  33.711  53.289  0.00  0.00     0.063 C 
BRANCH   4   5
ATOM      5  C   UNL d   1      52.731  33.894  53.097  0.00  0.00     0.011 C 
BRANCH   5   6
ATOM      6  C   UNL d   1      53.340  33.600  53.589  0.00  0.00     0.031 A 
ATOM      7  S   UNL d   1      53.605  33.824  54.335  0.00  0.00    -0.064 SA
ATOM      8  C   UNL d   1      54.213  33.330  54.523  0.00  0.00     0.156 A 
ATOM      9  C   UNL d   1      54.335  32.797  53.905  0.00  0.00     0.031 A 
ATOM     10  C   UNL d   1      53.803  32.953  53.323  0.00  0.00     0.009 A 
BRANCH   8  11
ATOM     11  N   UNL d   1      54.656  33.350  55.234  0.00  0.00    -0.107 N 
ATOM     12  O   UNL d   1      54.487  32.825  55.833  0.00  0.00    -0.531 OA
ATOM     13  O   UNL d   1      55.265  33.909  55.323  0.00  0.00    -0.531 OA
ENDBRANCH   8  11
ENDBRANCH   5   6
ENDBRANCH   4   5
ENDBRANCH   1   4
BRANCH   2  14
ATOM     14  C   UNL d   1      49.951  34.349  52.678  0.00  0.00     0.085 A 
ATOM     15  C   UNL d   1      49.480  34.912  53.052  0.00  0.00     0.019 A 
ATOM     16  C   UNL d   1      48.884  35.289  52.646  0.00  0.00     0.002 A 
ATOM     17  C   UNL d   1      48.410  35.864  53.041  0.00  0.00     0.000 C 
ATOM     18  C   UNL d   1      48.743  35.112  51.855  0.00  0.00     0.000 A 
ATOM     19  C   UNL d   1      49.212  34.549  51.478  0.00  0.00     0.002 A 
ATOM     20  C   UNL d   1      49.808  34.172  51.884  0.00  0.00     0.019 A 
ENDBRANCH   2  14
TORSDOF 5
ENDMDL
MODEL 5
REMARK VINA RESULT:      -7.9      2.970      3.604
REMARK  5 active torsions:
REMARK  status: ('A' for Active; 'I' for Inactive)
REMARK    1  A    between atoms: N_2  and  C_1 
REMARK    2  A    between atoms: C_8  and  C_5 
REMARK    3  A    between atoms: C_6  and  C_9 
REMARK       I    between atoms: N_12  and  C_6 
REMARK    4  A    between atoms: C_9  and  C_8 
REMARK    5  A    between atoms: C_13  and  N_12 
ROOT
ATOM      1  C   UNL d   1      51.750  33.322  52.938  0.00  0.00     0.279 C 
ATOM      2  N   UNL d   1      52.219  32.779  52.542  0.00  0.00    -0.208 NA
ATOM      3  O   UNL d   1      51.870  33.474  53.757  0.00  0.00    -0.265 OA
ENDROOT
BRANCH   1   4
ATOM      4  C   UNL d   1      51.153  33.725  52.536  0.00  0.00     0.063 C 
BRANCH   4   5
ATOM      5  C   UNL d   1      50.721  34.314  52.945  0.00  0.00     0.011 C 
BRANCH   5   6
ATOM      6  C   UNL d   1      49.991  34.569  52.627  0.00  0.00     0.031 A 
ATOM      7  S   UNL d   1      49.637  34.454  51.895  0.00  0.00    -0.064 SA
ATOM      8  C   UNL d   1      48.929  34.839  51.916  0.00  0.00     0.156 A 
ATOM      9  C   UNL d   1      48.832  35.196  52.654  0.00  0.00     0.031 A 
ATOM     10  C   UNL d   1      49.481  35.037  53.102  0.00  0.00     0.009 A 
BRANCH   8  11
ATOM     11  N   UNL d   1      48.374  34.874  51.289  0.00  0.00    -0.107 N 
ATOM     12  O   UNL d   1      48.424  34.346  50.672  0.00  0.00    -0.531 OA
ATOM     13  O   UNL d   1      47.774  35.449  51.303  0.00  0.00    -0.531 OA
ENDBRANCH   8  11
ENDBRANCH   5   6
ENDBRANCH   4   5
ENDBRANCH   1   4
BRANCH   2  14
ATOM     14  C   UNL d   1      52.811  32.379  52.940  0.00  0.00     0.085 A 
ATOM     15  C   UNL d   1      52.773  31.562  53.036  0.00  0.00     0.019 A 
ATOM     16  C   UNL d   1      53.362  31.164  53.432  0.00  0.00     0.002 A 
ATOM     17  C   UNL d   1      53.311  30.327  53.523  0.00  0.00     0.000 C 
ATOM     18  C   UNL d   1      54.004  31.573  53.743  0.00  0.00     0.000 A 
ATOM     19  C   UNL d   1      54.045  32.391  53.649  0.00  0.00     0.002 A 
ATOM     20  C   UNL d   1      53.456  32.789  53.253  0.00  0.00     0.019 A 
ENDBRANCH   2  14
TORSDOF 5
ENDMDL
MODEL 6
REMARK VINA RESULT:      -6.9      3.857      6.051
REMARK  5 active torsions:
REMARK  status: ('A' for Active; 'I' for Inactive)
REMARK    1  A    between atoms: N_2  and  C_1 
REMARK    2  A    between atoms: C_8  and  C_5 
REMARK    3  A    between atoms: C_6  and  C_9 
REMARK       I    between atoms: N_12  and  C_6 
REMARK    4  A    between atoms: C_9  and  C_8 
REMARK    5  A    between atoms: C_13  and  N_12 
ROOT
ATOM      1  C   UNL d   1      49.210  35.095  52.949  0.00  0.00     0.279 C 
ATOM      2  N   UNL d   1      48.897  35.695  53.412  0.00  0.00    -0.208 NA
ATOM      3  O   UNL d   1      48.760  34.759  52.322  0.00  0.00    -0.265 OA
ENDROOT
BRANCH   1   4
ATOM      4  C   UNL d   1      49.971  34.813  53.095  0.00  0.00     0.063 C 
BRANCH   4   5
ATOM      5  C   UNL d   1      50.350  34.355  52.506  0.00  0.00     0.011 C 
BRANCH   5   6
ATOM      6  C   UNL d   1      51.108  34.042  52.667  0.00  0.00     0.031 A 
ATOM      7  S   UNL d   1      51.357  33.308  52.938  0.00  0.00    -0.064 SA
ATOM      8  C   UNL d   1      52.161  33.337  52.984  0.00  0.00     0.156 A 
ATOM      9  C   UNL d   1      52.423  34.083  52.745  0.00  0.00     0.031 A 
ATOM     10  C   UNL d   1      51.783  34.527  52.547  0.00  0.00     0.009 A 
BRANCH   8  11
ATOM     11  N   UNL d   1      52.659  32.711  53.234  0.00  0.00    -0.107 N 
ATOM     12  O   UNL d   1      52.929  32.689  54.002  0.00  0.00    -0.531 OA
ATOM     13  O   UNL d   1      52.874  32.116  52.695  0.00  0.00    -0.531 OA
ENDBRANCH   8  11
ENDBRANCH   5   6
ENDBRANCH   4   5
ENDBRANCH   1   4
BRANCH   2  14
ATOM     14  C   UNL d   1      48.142  35.975  53.267  0.00  0.00     0.085 A 
ATOM     15  C   UNL d   1      47.561  35.932  53.849  0.00  0.00     0.019 A 
ATOM     16  C   UNL d   1      46.810  36.210  53.705  0.00  0.00     0.002 A 
ATOM     17  C   UNL d   1      46.224  36.161  54.310  0.00  0.00     0.000 C 
ATOM     18  C   UNL d   1      46.620  36.538  52.975  0.00  0.00     0.000 A 
ATOM     19  C   UNL d   1      47.199  36.582  52.389  0.00  0.00     0.002 A 
ATOM     20  C   UNL d   1      47.951  36.304  52.534  0.00  0.00     0.019 A 
ENDBRANCH   2  14
TORSDOF 5
ENDMDL
MODEL 7
REMARK VINA RESULT:      -5.6      9.581     10.306
REMARK  5 active torsions:
REMARK  status: ('A' for Active; 'I' for Inactive)
REMARK    1  A    between atoms: N_2  and  C_1 
REMARK    2  A    between atoms: C_8  and  C_5 
REMARK    3  A    between atoms: C_6  and  C_9 
REMARK       I    between atoms: N_12  and  C_6 
REMARK    4  A    between atoms: C_9  and  C_8 
REMARK    5  A    between atoms: C_13  and  N_12 
ROOT
ATOM      1  C   UNL d   1      44.919  26.640  56.812  0.00  0.00     0.279 C 
ATOM      2  N   UNL d   1      44.314  26.088  56.793  0.00  0.00    -0.208 NA
ATOM      3  O   UNL d   1      45.636  26.504  56.393  0.00  0.00    -0.265 OA
ENDROOT
BRANCH   1   4
ATOM      4  C   UNL d   1      44.831  27.338  57.244  0.00  0.00     0.063 C 
BRANCH   4   5
ATOM      5  C   UNL d   1      45.119  28.052  56.916  0.00  0.00     0.011 C 
BRANCH   5   6
ATOM      6  C   UNL d   1      45.024  28.759  57.351  0.00  0.00     0.031 A 
ATOM      7  S   UNL d   1      45.126  28.938  58.146  0.00  0.00    -0.064 SA
ATOM      8  C   UNL d   1      44.949  29.719  58.234  0.00  0.00     0.156 A 
ATOM      9  C   UNL d   1      44.735  30.036  57.503  0.00  0.00     0.031 A 
ATOM     10  C   UNL d   1      44.777  29.454  56.949  0.00  0.00     0.009 A 
BRANCH   8  11
ATOM     11  N   UNL d   1      44.976  30.147  58.954  0.00  0.00    -0.107 N 
ATOM     12  O   UNL d   1      45.553  30.709  59.072  0.00  0.00    -0.531 OA
ATOM     13  O   UNL d   1      44.411  29.995  59.545  0.00  0.00    -0.531 OA
ENDBRANCH   8  11
ENDBRANCH   5   6
ENDBRANCH   4   5
ENDBRANCH   1   4
BRANCH   2  14
ATOM     14  C   UNL d   1      44.402  25.396  56.366  0.00  0.00     0.085 A 
ATOM     15  C   UNL d   1      44.551  24.682  56.749  0.00  0.00     0.019 A 
ATOM     16  C   UNL d   1      44.638  23.994  56.323  0.00  0.00     0.002 A 
ATOM     17  C   UNL d   1      44.790  23.270  56.729  0.00  0.00     0.000 C 
ATOM     18  C   UNL d   1      44.580  24.002  55.503  0.00  0.00     0.000 A 
ATOM     19  C   UNL d   1      44.431  24.714  55.116  0.00  0.00     0.002 A 
ATOM     20  C   UNL d   1      44.343  25.403  55.542  0.00  0.00     0.019 A 
ENDBRANCH   2  14
TORSDOF 5
ENDMDL
MODEL 8
REMARK VINA RESULT:      -5.5      9.875     10.404
REMARK  5 active torsions:
REMARK  status: ('A' for Active; 'I' for Inactive)
REMARK    1  A    between atoms: N_2  and  C_1 
REMARK    2  A    between atoms: C_8  and  C_5 
REMARK    3  A    between atoms: C_6  and  C_9 
REMARK       I    between atoms: N_12  and  C_6 
REMARK    4  A    between atoms: C_9  and  C_8 
REMARK    5  A    between atoms: C_13  and  N_12 
ROOT
ATOM      1  C   UNL d   1      44.959  27.345  57.903  0.00  0.00     0.279 C 
ATOM      2  N   UNL d   1      44.314  26.884  57.693  0.00  0.00    -0.208 NA
ATOM      3  O   UNL d   1      45.734  27.137  57.650  0.00  0.00    -0.265 OA
ENDROOT
BRANCH   1   4
ATOM      4  C   UNL d   1      44.854  28.020  58.366  0.00  0.00     0.063 C 
BRANCH   4   5
ATOM      5  C   UNL d   1      45.293  28.707  58.180  0.00  0.00     0.011 C 
BRANCH   5   6
ATOM      6  C   UNL d   1      45.139  29.408  58.608  0.00  0.00     0.031 A 
ATOM      7  S   UNL d   1      45.048  29.558  59.411  0.00  0.00    -0.064 SA
ATOM      8  C   UNL d   1      44.909  30.348  59.486  0.00  0.00     0.156 A 
ATOM      9  C   UNL d   1      44.911  30.700  58.739  0.00  0.00     0.031 A 
ATOM     10  C   UNL d   1      45.053  30.131  58.189  0.00  0.00     0.009 A 
BRANCH   8  11
ATOM     11  N   UNL d   1      44.781  30.754  60.208  0.00  0.00    -0.107 N 
ATOM     12  O   UNL d   1      45.064  30.443  60.905  0.00  0.00    -0.531 OA
ATOM     13  O   UNL d   1      44.366  31.474  60.206  0.00  0.00    -0.531 OA
ENDBRANCH   8  11
ENDBRANCH   5   6
ENDBRANCH   4   5
ENDBRANCH   1   4
BRANCH   2  14
ATOM     14  C   UNL d   1      44.419  26.215  57.234  0.00  0.00     0.085 A 
ATOM     15  C   UNL d   1      44.375  25.465  57.571  0.00  0.00     0.019 A 
ATOM     16  C   UNL d   1      44.479  24.800  57.114  0.00  0.00     0.002 A 
ATOM     17  C   UNL d   1      44.431  24.037  57.472  0.00  0.00     0.000 C 
ATOM     18  C   UNL d   1      44.630  24.867  56.308  0.00  0.00     0.000 A 
ATOM     19  C   UNL d   1      44.674  25.617  55.968  0.00  0.00     0.002 A 
ATOM     20  C   UNL d   1      44.570  26.283  56.425  0.00  0.00     0.019 A 
ENDBRANCH   2  14
TORSDOF 5
ENDMDL
