MODEL 1
REMARK VINA RESULT:      65.3      0.000      0.000
REMARK  8 active torsions:
REMARK  status: ('A' for Active; 'I' for Inactive)
REMARK    1  A    between atoms: C_3  and  N_1 
REMARK    2  A    between atoms: C_6  and  N_2 
REMARK    3  A    between atoms: C_4  and  C_3 
REMARK    4  A    between atoms: C_7  and  C_3 
REMARK       I    between atoms: C_5  and  N_8 
REMARK    5  A    between atoms: O_18  and  C_5 
REMARK    6  A    between atoms: N_8  and  C_7 
REMARK    7  A    between atoms: C_21  and  O_18 
REMARK    8  A    between atoms: C_22  and  C_21 
ROOT
ATOM      1  C   UNL d   1     -54.736-100.890 -40.866  0.00  0.00     0.107 C 
ENDROOT
BRANCH   1   2
ATOM      2  N   UNL d   1     -54.745-101.119 -40.066  0.00  0.00    -0.298 N 
ATOM      3  C   UNL d   1     -54.739-101.922 -39.876  0.00  0.00     0.100 A 
ATOM      4  C   UNL d   1     -54.748-102.161 -39.087  0.00  0.00     0.100 A 
ATOM      5  N   UNL d   1     -54.762-101.596 -38.486  0.00  0.00    -0.299 N 
ATOM      6  C   UNL d   1     -54.768-100.796 -38.678  0.00  0.00     0.100 A 
ATOM      7  C   UNL d   1     -54.759-100.554 -39.465  0.00  0.00     0.100 A 
BRANCH   5   8
ATOM      8  C   UNL d   1     -54.771-101.834 -37.702  0.00  0.00     0.092 A 
ATOM      9  C   UNL d   1     -54.745-101.276 -37.097  0.00  0.00     0.156 A 
ATOM     10  F   UNL d   1     -54.711-100.473 -37.283  0.00  0.00    -0.203 F 
ATOM     11  C   UNL d   1     -54.754-101.513 -36.309  0.00  0.00     0.031 A 
ATOM     12  C   UNL d   1     -54.788-102.316 -36.123  0.00  0.00     0.002 A 
ATOM     13  C   UNL d   1     -54.813-102.879 -36.731  0.00  0.00     0.002 A 
ATOM     14  C   UNL d   1     -54.805-102.637 -37.517  0.00  0.00     0.020 A 
ENDBRANCH   5   8
ENDBRANCH   1   2
BRANCH   1  15
ATOM     15  C   UNL d   1     -54.747-100.092 -41.073  0.00  0.00     0.118 A 
ATOM     16  O   UNL d   1     -54.799 -99.867 -41.863  0.00  0.00    -0.304 OA
ATOM     17  C   UNL d   1     -54.799 -99.038 -41.894  0.00  0.00     0.123 A 
ATOM     18  C   UNL d   1     -54.747 -98.759 -41.130  0.00  0.00     0.029 A 
ATOM     19  C   UNL d   1     -54.715 -99.400 -40.622  0.00  0.00     0.028 A 
ENDBRANCH   1  15
BRANCH   1  20
ATOM     20  C   UNL d   1     -54.716-101.474 -41.461  0.00  0.00     0.124 C 
BRANCH  20  21
ATOM     21  N   UNL d   1     -54.711-101.252 -42.255  0.00  0.00    -0.183 NA
ATOM     22  C   UNL d   1     -54.845-101.815 -42.841  0.00  0.00     0.392 C 
ATOM     23  O   UNL d   1     -54.983-102.597 -42.640  0.00  0.00    -0.236 OA
BRANCH  22  24
ATOM     24  O   UNL d   1     -54.839-101.590 -43.634  0.00  0.00    -0.256 OA
BRANCH  24  25
ATOM     25  C   UNL d   1     -55.474-101.174 -43.950  0.00  0.00     0.128 C 
BRANCH  25  26
ATOM     26  C   UNL d   1     -55.342-100.541 -44.462  0.00  0.00     0.025 A 
ATOM     27  C   UNL d   1     -55.560 -99.777 -44.238  0.00  0.00     0.002 A 
ATOM     28  C   UNL d   1     -55.428 -99.144 -44.750  0.00  0.00     0.000 A 
ATOM     29  C   UNL d   1     -55.077 -99.275 -45.486  0.00  0.00     0.000 A 
ATOM     30  C   UNL d   1     -54.863-100.033 -45.704  0.00  0.00     0.000 A 
ATOM     31  C   UNL d   1     -54.991-100.672 -45.198  0.00  0.00     0.002 A 
ENDBRANCH  25  26
ENDBRANCH  24  25
ENDBRANCH  22  24
ENDBRANCH  20  21
ENDBRANCH   1  20
TORSDOF 8
ENDMDL
