MODEL 1
REMARK VINA RESULT:      -6.6      0.000      0.000
REMARK  9 active torsions:
REMARK  status: ('A' for Active; 'I' for Inactive)
REMARK    1  A    between atoms: S_3  and  C_1 
REMARK    2  A    between atoms: C_7  and  S_3 
REMARK    3  A    between atoms: N_8  and  C_4 
REMARK    4  A    between atoms: C_19  and  N_8 
REMARK    5  A    between atoms: C_20  and  N_8 
REMARK    6  A    between atoms: O_17  and  C_22 
REMARK    7  A    between atoms: O_18  and  C_21 
REMARK    8  A    between atoms: C_21  and  C_19 
REMARK    9  A    between atoms: C_22  and  C_20 
ROOT
ATOM      1  C   UNL d   1      53.389  32.275  53.470  0.00  0.00     0.187 A 
ATOM      2  N   UNL d   1      52.776  32.804  53.538  0.00  0.00    -0.209 NA
ATOM      3  C   UNL d   1      53.069  33.549  53.324  0.00  0.00     0.181 A 
ATOM      4  S   UNL d   1      53.860  33.463  53.128  0.00  0.00    -0.036 SA
ATOM      5  C   UNL d   1      54.053  32.675  53.220  0.00  0.00     0.118 A 
ATOM      6 CL   UNL d   1      54.668  32.128  53.155  0.00  0.00    -0.073 Cl
ENDROOT
BRANCH   1   7
ATOM      7  S   UNL d   1      53.344  31.469  53.629  0.00  0.00     0.228 S 
ATOM      8  O   UNL d   1      53.561  31.183  54.364  0.00  0.00    -0.216 OA
ATOM      9  O   UNL d   1      53.078  30.950  53.047  0.00  0.00    -0.216 OA
BRANCH   7  10
ATOM     10  C   UNL d   1      53.341  30.686  53.905  0.00  0.00     0.089 A 
ATOM     11  C   UNL d   1      53.283  30.537  54.725  0.00  0.00     0.011 A 
ATOM     12  C   UNL d   1      53.281  29.755  54.997  0.00  0.00     0.001 A 
ATOM     13  C   UNL d   1      53.335  29.127  54.462  0.00  0.00     0.000 A 
ATOM     14  C   UNL d   1      53.392  29.277  53.640  0.00  0.00     0.001 A 
ATOM     15  C   UNL d   1      53.332  28.352  54.729  0.00  0.00     0.000 C 
ATOM     16  C   UNL d   1      53.395  30.056  53.371  0.00  0.00     0.011 A 
ENDBRANCH   7  10
ENDBRANCH   1   7
BRANCH   3  17
ATOM     17  N   UNL d   1      52.460  34.090  53.388  0.00  0.00    -0.280 N 
BRANCH  17  18
ATOM     18  C   UNL d   1      52.628  34.889  53.495  0.00  0.00     0.108 C 
BRANCH  18  19
ATOM     19  C   UNL d   1      52.711  35.195  54.257  0.00  0.00     0.135 C 
BRANCH  19  20
ATOM     20  O   UNL d   1      53.001  35.958  54.366  0.00  0.00    -0.325 OA
ATOM     21  C   UNL d   1      53.006  36.295  55.119  0.00  0.00     0.182 C 
ENDBRANCH  19  20
ENDBRANCH  18  19
ENDBRANCH  17  18
BRANCH  17  22
ATOM     22  C   UNL d   1      51.654  34.257  53.400  0.00  0.00     0.108 C 
BRANCH  22  23
ATOM     23  C   UNL d   1      51.220  34.229  52.710  0.00  0.00     0.135 C 
BRANCH  23  24
ATOM     24  O   UNL d   1      50.403  34.127  52.741  0.00  0.00    -0.325 OA
ATOM     25  C   UNL d   1      49.928  34.409  52.137  0.00  0.00     0.182 C 
ENDBRANCH  23  24
ENDBRANCH  22  23
ENDBRANCH  17  22
ENDBRANCH   3  17
TORSDOF 9
ENDMDL
MODEL 2
REMARK VINA RESULT:      -6.0      1.592      4.565
REMARK  9 active torsions:
REMARK  status: ('A' for Active; 'I' for Inactive)
REMARK    1  A    between atoms: S_3  and  C_1 
REMARK    2  A    between atoms: C_7  and  S_3 
REMARK    3  A    between atoms: N_8  and  C_4 
REMARK    4  A    between atoms: C_19  and  N_8 
REMARK    5  A    between atoms: C_20  and  N_8 
REMARK    6  A    between atoms: O_17  and  C_22 
REMARK    7  A    between atoms: O_18  and  C_21 
REMARK    8  A    between atoms: C_21  and  C_19 
REMARK    9  A    between atoms: C_22  and  C_20 
ROOT
ATOM      1  C   UNL d   1      51.827  33.743  52.875  0.00  0.00     0.187 A 
ATOM      2  N   UNL d   1      52.114  33.236  53.442  0.00  0.00    -0.209 NA
ATOM      3  C   UNL d   1      52.912  33.097  53.265  0.00  0.00     0.181 A 
ATOM      4  S   UNL d   1      53.100  33.523  52.591  0.00  0.00    -0.036 SA
ATOM      5  C   UNL d   1      52.426  33.921  52.354  0.00  0.00     0.118 A 
ATOM      6 CL   UNL d   1      52.123  34.435  51.785  0.00  0.00    -0.073 Cl
ENDROOT
BRANCH   1   7
ATOM      7  S   UNL d   1      51.056  34.028  52.838  0.00  0.00     0.228 S 
ATOM      8  O   UNL d   1      50.896  34.806  53.032  0.00  0.00    -0.216 OA
ATOM      9  O   UNL d   1      50.444  33.528  52.604  0.00  0.00    -0.216 OA
BRANCH   7  10
ATOM     10  C   UNL d   1      50.327  34.426  52.838  0.00  0.00     0.089 A 
ATOM     11  C   UNL d   1      50.084  34.840  53.522  0.00  0.00     0.011 A 
ATOM     12  C   UNL d   1      49.356  35.236  53.520  0.00  0.00     0.001 A 
ATOM     13  C   UNL d   1      48.875  35.222  52.847  0.00  0.00     0.000 A 
ATOM     14  C   UNL d   1      49.120  34.807  52.162  0.00  0.00     0.001 A 
ATOM     15  C   UNL d   1      48.155  35.613  52.843  0.00  0.00     0.000 C 
ATOM     16  C   UNL d   1      49.844  34.413  52.166  0.00  0.00     0.011 A 
ENDBRANCH   7  10
ENDBRANCH   1   7
BRANCH   3  17
ATOM     17  N   UNL d   1      53.213  32.587  53.828  0.00  0.00    -0.280 N 
BRANCH  17  18
ATOM     18  C   UNL d   1      53.483  32.881  54.547  0.00  0.00     0.108 C 
BRANCH  18  19
ATOM     19  C   UNL d   1      54.292  32.991  54.671  0.00  0.00     0.135 C 
BRANCH  19  20
ATOM     20  O   UNL d   1      54.561  33.318  55.378  0.00  0.00    -0.325 OA
ATOM     21  C   UNL d   1      55.240  33.786  55.385  0.00  0.00     0.182 C 
ENDBRANCH  19  20
ENDBRANCH  18  19
ENDBRANCH  17  18
BRANCH  17  22
ATOM     22  C   UNL d   1      53.405  31.824  54.067  0.00  0.00     0.108 C 
BRANCH  22  23
ATOM     23  C   UNL d   1      53.239  31.189  53.583  0.00  0.00     0.135 C 
BRANCH  23  24
ATOM     24  O   UNL d   1      53.377  30.420  53.846  0.00  0.00    -0.325 OA
ATOM     25  C   UNL d   1      53.100  29.780  53.418  0.00  0.00     0.182 C 
ENDBRANCH  23  24
ENDBRANCH  22  23
ENDBRANCH  17  22
ENDBRANCH   3  17
TORSDOF 9
ENDMDL
MODEL 3
REMARK VINA RESULT:      -5.8      0.213      1.907
REMARK  9 active torsions:
REMARK  status: ('A' for Active; 'I' for Inactive)
REMARK    1  A    between atoms: S_3  and  C_1 
REMARK    2  A    between atoms: C_7  and  S_3 
REMARK    3  A    between atoms: N_8  and  C_4 
REMARK    4  A    between atoms: C_19  and  N_8 
REMARK    5  A    between atoms: C_20  and  N_8 
REMARK    6  A    between atoms: O_17  and  C_22 
REMARK    7  A    between atoms: O_18  and  C_21 
REMARK    8  A    between atoms: C_21  and  C_19 
REMARK    9  A    between atoms: C_22  and  C_20 
ROOT
ATOM      1  C   UNL d   1      53.407  32.262  53.543  0.00  0.00     0.187 A 
ATOM      2  N   UNL d   1      52.834  32.813  53.715  0.00  0.00    -0.209 NA
ATOM      3  C   UNL d   1      53.120  33.551  53.465  0.00  0.00     0.181 A 
ATOM      4  S   UNL d   1      53.866  33.437  53.144  0.00  0.00    -0.036 SA
ATOM      5  C   UNL d   1      54.039  32.640  53.195  0.00  0.00     0.118 A 
ATOM      6 CL   UNL d   1      54.612  32.072  53.026  0.00  0.00    -0.073 Cl
ENDROOT
BRANCH   1   7
ATOM      7  S   UNL d   1      53.354  31.456  53.698  0.00  0.00     0.228 S 
ATOM      8  O   UNL d   1      53.608  31.159  54.416  0.00  0.00    -0.216 OA
ATOM      9  O   UNL d   1      53.044  30.948  53.128  0.00  0.00    -0.216 OA
BRANCH   7  10
ATOM     10  C   UNL d   1      53.351  30.670  53.967  0.00  0.00     0.089 A 
ATOM     11  C   UNL d   1      53.400  30.045  53.415  0.00  0.00     0.011 A 
ATOM     12  C   UNL d   1      53.397  29.263  53.686  0.00  0.00     0.001 A 
ATOM     13  C   UNL d   1      53.346  29.101  54.495  0.00  0.00     0.000 A 
ATOM     14  C   UNL d   1      53.297  29.729  55.048  0.00  0.00     0.001 A 
ATOM     15  C   UNL d   1      53.343  28.328  54.766  0.00  0.00     0.000 C 
ATOM     16  C   UNL d   1      53.300  30.507  54.777  0.00  0.00     0.011 A 
ENDBRANCH   7  10
ENDBRANCH   1   7
BRANCH   3  17
ATOM     17  N   UNL d   1      52.552  34.114  53.633  0.00  0.00    -0.280 N 
BRANCH  17  18
ATOM     18  C   UNL d   1      51.758  33.951  53.494  0.00  0.00     0.108 C 
BRANCH  18  19
ATOM     19  C   UNL d   1      51.360  34.331  52.879  0.00  0.00     0.135 C 
BRANCH  19  20
ATOM     20  O   UNL d   1      50.560  34.181  52.750  0.00  0.00    -0.325 OA
ATOM     21  C   UNL d   1      50.213  34.382  52.029  0.00  0.00     0.182 C 
ENDBRANCH  19  20
ENDBRANCH  18  19
ENDBRANCH  17  18
BRANCH  17  22
ATOM     22  C   UNL d   1      52.352  34.863  53.908  0.00  0.00     0.108 C 
BRANCH  22  23
ATOM     23  C   UNL d   1      52.859  35.266  54.404  0.00  0.00     0.135 C 
BRANCH  23  24
ATOM     24  O   UNL d   1      52.671  36.027  54.657  0.00  0.00    -0.325 OA
ATOM     25  C   UNL d   1      53.256  36.524  54.942  0.00  0.00     0.182 C 
ENDBRANCH  23  24
ENDBRANCH  22  23
ENDBRANCH  17  22
ENDBRANCH   3  17
TORSDOF 9
ENDMDL
MODEL 4
REMARK VINA RESULT:      -5.7      1.616      2.421
REMARK  9 active torsions:
REMARK  status: ('A' for Active; 'I' for Inactive)
REMARK    1  A    between atoms: S_3  and  C_1 
REMARK    2  A    between atoms: C_7  and  S_3 
REMARK    3  A    between atoms: N_8  and  C_4 
REMARK    4  A    between atoms: C_19  and  N_8 
REMARK    5  A    between atoms: C_20  and  N_8 
REMARK    6  A    between atoms: O_17  and  C_22 
REMARK    7  A    between atoms: O_18  and  C_21 
REMARK    8  A    between atoms: C_21  and  C_19 
REMARK    9  A    between atoms: C_22  and  C_20 
ROOT
ATOM      1  C   UNL d   1      52.047  33.488  53.065  0.00  0.00     0.187 A 
ATOM      2  N   UNL d   1      51.270  33.602  52.853  0.00  0.00    -0.209 NA
ATOM      3  C   UNL d   1      51.118  34.415  52.906  0.00  0.00     0.181 A 
ATOM      4  S   UNL d   1      51.807  34.786  53.149  0.00  0.00    -0.036 SA
ATOM      5  C   UNL d   1      52.378  34.209  53.246  0.00  0.00     0.118 A 
ATOM      6 CL   UNL d   1      53.164  34.081  53.459  0.00  0.00    -0.073 Cl
ENDROOT
BRANCH   1   7
ATOM      7  S   UNL d   1      52.432  32.761  53.090  0.00  0.00     0.228 S 
ATOM      8  O   UNL d   1      52.227  32.208  53.656  0.00  0.00    -0.216 OA
ATOM      9  O   UNL d   1      53.026  32.592  52.544  0.00  0.00    -0.216 OA
BRANCH   7  10
ATOM     10  C   UNL d   1      52.746  32.002  53.214  0.00  0.00     0.089 A 
ATOM     11  C   UNL d   1      52.482  31.365  52.743  0.00  0.00     0.011 A 
ATOM     12  C   UNL d   1      52.797  30.609  52.869  0.00  0.00     0.001 A 
ATOM     13  C   UNL d   1      53.366  30.486  53.456  0.00  0.00     0.000 A 
ATOM     14  C   UNL d   1      53.629  31.126  53.929  0.00  0.00     0.001 A 
ATOM     15  C   UNL d   1      53.678  29.739  53.583  0.00  0.00     0.000 C 
ATOM     16  C   UNL d   1      53.315  31.878  53.802  0.00  0.00     0.011 A 
ENDBRANCH   7  10
ENDBRANCH   1   7
BRANCH   3  17
ATOM     17  N   UNL d   1      50.339  34.542  52.695  0.00  0.00    -0.280 N 
BRANCH  17  18
ATOM     18  C   UNL d   1      49.954  35.228  52.936  0.00  0.00     0.108 C 
BRANCH  18  19
ATOM     19  C   UNL d   1      49.384  35.194  53.531  0.00  0.00     0.135 C 
BRANCH  19  20
ATOM     20  O   UNL d   1      49.079  35.889  53.851  0.00  0.00    -0.325 OA
ATOM     21  C   UNL d   1      48.300  35.913  54.123  0.00  0.00     0.182 C 
ENDBRANCH  19  20
ENDBRANCH  18  19
ENDBRANCH  17  18
BRANCH  17  22
ATOM     22  C   UNL d   1      49.656  34.293  52.310  0.00  0.00     0.108 C 
BRANCH  22  23
ATOM     23  C   UNL d   1      49.550  34.456  51.517  0.00  0.00     0.135 C 
BRANCH  23  24
ATOM     24  O   UNL d   1      48.970  34.058  51.088  0.00  0.00    -0.325 OA
ATOM     25  C   UNL d   1      48.401  34.478  50.673  0.00  0.00     0.182 C 
ENDBRANCH  23  24
ENDBRANCH  22  23
ENDBRANCH  17  22
ENDBRANCH   3  17
TORSDOF 9
ENDMDL
MODEL 5
REMARK VINA RESULT:      -5.6      1.618      4.925
REMARK  9 active torsions:
REMARK  status: ('A' for Active; 'I' for Inactive)
REMARK    1  A    between atoms: S_3  and  C_1 
REMARK    2  A    between atoms: C_7  and  S_3 
REMARK    3  A    between atoms: N_8  and  C_4 
REMARK    4  A    between atoms: C_19  and  N_8 
REMARK    5  A    between atoms: C_20  and  N_8 
REMARK    6  A    between atoms: O_17  and  C_22 
REMARK    7  A    between atoms: O_18  and  C_21 
REMARK    8  A    between atoms: C_21  and  C_19 
REMARK    9  A    between atoms: C_22  and  C_20 
ROOT
ATOM      1  C   UNL d   1      51.710  33.803  52.891  0.00  0.00     0.187 A 
ATOM      2  N   UNL d   1      52.029  33.342  53.479  0.00  0.00    -0.209 NA
ATOM      3  C   UNL d   1      52.810  33.172  53.262  0.00  0.00     0.181 A 
ATOM      4  S   UNL d   1      52.957  33.534  52.542  0.00  0.00    -0.036 SA
ATOM      5  C   UNL d   1      52.275  33.922  52.316  0.00  0.00     0.118 A 
ATOM      6 CL   UNL d   1      51.941  34.391  51.726  0.00  0.00    -0.073 Cl
ENDROOT
BRANCH   1   7
ATOM      7  S   UNL d   1      50.943  34.100  52.880  0.00  0.00     0.228 S 
ATOM      8  O   UNL d   1      50.807  34.891  53.038  0.00  0.00    -0.216 OA
ATOM      9  O   UNL d   1      50.311  33.599  52.710  0.00  0.00    -0.216 OA
BRANCH   7  10
ATOM     10  C   UNL d   1      50.221  34.511  52.899  0.00  0.00     0.089 A 
ATOM     11  C   UNL d   1      50.008  34.939  53.583  0.00  0.00     0.011 A 
ATOM     12  C   UNL d   1      49.288  35.347  53.599  0.00  0.00     0.001 A 
ATOM     13  C   UNL d   1      48.784  35.332  52.943  0.00  0.00     0.000 A 
ATOM     14  C   UNL d   1      48.999  34.903  52.257  0.00  0.00     0.001 A 
ATOM     15  C   UNL d   1      48.071  35.735  52.956  0.00  0.00     0.000 C 
ATOM     16  C   UNL d   1      49.717  34.496  52.243  0.00  0.00     0.011 A 
ENDBRANCH   7  10
ENDBRANCH   1   7
BRANCH   3  17
ATOM     17  N   UNL d   1      53.142  32.707  53.847  0.00  0.00    -0.280 N 
BRANCH  17  18
ATOM     18  C   UNL d   1      52.902  31.925  53.937  0.00  0.00     0.108 C 
BRANCH  18  19
ATOM     19  C   UNL d   1      53.376  31.313  53.651  0.00  0.00     0.135 C 
BRANCH  19  20
ATOM     20  O   UNL d   1      53.203  30.532  53.847  0.00  0.00    -0.325 OA
ATOM     21  C   UNL d   1      53.314  29.932  53.292  0.00  0.00     0.182 C 
ENDBRANCH  19  20
ENDBRANCH  18  19
ENDBRANCH  17  18
BRANCH  17  22
ATOM     22  C   UNL d   1      53.665  32.620  54.476  0.00  0.00     0.108 C 
BRANCH  22  23
ATOM     23  C   UNL d   1      54.070  33.268  54.765  0.00  0.00     0.135 C 
BRANCH  23  24
ATOM     24  O   UNL d   1      54.631  33.172  55.360  0.00  0.00    -0.325 OA
ATOM     25  C   UNL d   1      55.146  33.781  55.545  0.00  0.00     0.182 C 
ENDBRANCH  23  24
ENDBRANCH  22  23
ENDBRANCH  17  22
ENDBRANCH   3  17
TORSDOF 9
ENDMDL
MODEL 6
REMARK VINA RESULT:      -5.4      3.199      5.156
REMARK  9 active torsions:
REMARK  status: ('A' for Active; 'I' for Inactive)
REMARK    1  A    between atoms: S_3  and  C_1 
REMARK    2  A    between atoms: C_7  and  S_3 
REMARK    3  A    between atoms: N_8  and  C_4 
REMARK    4  A    between atoms: C_19  and  N_8 
REMARK    5  A    between atoms: C_20  and  N_8 
REMARK    6  A    between atoms: O_17  and  C_22 
REMARK    7  A    between atoms: O_18  and  C_21 
REMARK    8  A    between atoms: C_21  and  C_19 
REMARK    9  A    between atoms: C_22  and  C_20 
ROOT
ATOM      1  C   UNL d   1      49.627  34.625  52.094  0.00  0.00     0.187 A 
ATOM      2  N   UNL d   1      49.069  35.029  52.526  0.00  0.00    -0.209 NA
ATOM      3  C   UNL d   1      48.422  35.165  52.027  0.00  0.00     0.181 A 
ATOM      4  S   UNL d   1      48.595  34.841  51.294  0.00  0.00    -0.036 SA
ATOM      5  C   UNL d   1      49.341  34.509  51.340  0.00  0.00     0.118 A 
ATOM      6 CL   UNL d   1      49.914  34.100  50.911  0.00  0.00    -0.073 Cl
ENDROOT
BRANCH   1   7
ATOM      7  S   UNL d   1      50.359  34.377  52.374  0.00  0.00     0.228 S 
ATOM      8  O   UNL d   1      50.425  34.060  53.125  0.00  0.00    -0.216 OA
ATOM      9  O   UNL d   1      51.027  34.449  51.897  0.00  0.00    -0.216 OA
BRANCH   7  10
ATOM     10  C   UNL d   1      51.037  34.094  52.763  0.00  0.00     0.089 A 
ATOM     11  C   UNL d   1      51.082  33.290  52.980  0.00  0.00     0.011 A 
ATOM     12  C   UNL d   1      51.759  33.011  53.368  0.00  0.00     0.001 A 
ATOM     13  C   UNL d   1      52.384  33.524  53.538  0.00  0.00     0.000 A 
ATOM     14  C   UNL d   1      52.337  34.332  53.320  0.00  0.00     0.001 A 
ATOM     15  C   UNL d   1      53.054  33.251  53.922  0.00  0.00     0.000 C 
ATOM     16  C   UNL d   1      51.663  34.608  52.934  0.00  0.00     0.011 A 
ENDBRANCH   7  10
ENDBRANCH   1   7
BRANCH   3  17
ATOM     17  N   UNL d   1      47.853  35.570  52.451  0.00  0.00    -0.280 N 
BRANCH  17  18
ATOM     18  C   UNL d   1      47.321  36.062  52.062  0.00  0.00     0.108 C 
BRANCH  18  19
ATOM     19  C   UNL d   1      46.591  35.767  51.814  0.00  0.00     0.135 C 
BRANCH  19  20
ATOM     20  O   UNL d   1      46.063  36.256  51.413  0.00  0.00    -0.325 OA
ATOM     21  C   UNL d   1      45.360  35.947  51.113  0.00  0.00     0.182 C 
ENDBRANCH  19  20
ENDBRANCH  18  19
ENDBRANCH  17  18
BRANCH  17  22
ATOM     22  C   UNL d   1      47.501  35.757  53.171  0.00  0.00     0.108 C 
BRANCH  22  23
ATOM     23  C   UNL d   1      47.836  36.320  53.657  0.00  0.00     0.135 C 
BRANCH  23  24
ATOM     24  O   UNL d   1      47.799  36.233  54.476  0.00  0.00    -0.325 OA
ATOM     25  C   UNL d   1      47.304  36.710  54.921  0.00  0.00     0.182 C 
ENDBRANCH  23  24
ENDBRANCH  22  23
ENDBRANCH  17  22
ENDBRANCH   3  17
TORSDOF 9
ENDMDL
MODEL 7
REMARK VINA RESULT:      -5.1      2.377      5.621
REMARK  9 active torsions:
REMARK  status: ('A' for Active; 'I' for Inactive)
REMARK    1  A    between atoms: S_3  and  C_1 
REMARK    2  A    between atoms: C_7  and  S_3 
REMARK    3  A    between atoms: N_8  and  C_4 
REMARK    4  A    between atoms: C_19  and  N_8 
REMARK    5  A    between atoms: C_20  and  N_8 
REMARK    6  A    between atoms: O_17  and  C_22 
REMARK    7  A    between atoms: O_18  and  C_21 
REMARK    8  A    between atoms: C_21  and  C_19 
REMARK    9  A    between atoms: C_22  and  C_20 
ROOT
ATOM      1  C   UNL d   1      50.114  34.579  52.512  0.00  0.00     0.187 A 
ATOM      2  N   UNL d   1      50.663  34.412  53.088  0.00  0.00    -0.209 NA
ATOM      3  C   UNL d   1      51.312  34.058  52.713  0.00  0.00     0.181 A 
ATOM      4  S   UNL d   1      51.148  34.014  51.911  0.00  0.00    -0.036 SA
ATOM      5  C   UNL d   1      50.407  34.337  51.792  0.00  0.00     0.118 A 
ATOM      6 CL   UNL d   1      49.842  34.512  51.217  0.00  0.00    -0.073 Cl
ENDROOT
BRANCH   1   7
ATOM      7  S   UNL d   1      49.383  34.934  52.639  0.00  0.00     0.228 S 
ATOM      8  O   UNL d   1      49.331  35.620  53.082  0.00  0.00    -0.216 OA
ATOM      9  O   UNL d   1      48.702  34.598  52.319  0.00  0.00    -0.216 OA
BRANCH   7  10
ATOM     10  C   UNL d   1      48.709  35.380  52.834  0.00  0.00     0.089 A 
ATOM     11  C   UNL d   1      48.566  35.583  53.631  0.00  0.00     0.011 A 
ATOM     12  C   UNL d   1      47.893  36.027  53.823  0.00  0.00     0.001 A 
ATOM     13  C   UNL d   1      47.369  36.267  53.230  0.00  0.00     0.000 A 
ATOM     14  C   UNL d   1      47.514  36.063  52.431  0.00  0.00     0.001 A 
ATOM     15  C   UNL d   1      46.703  36.707  53.417  0.00  0.00     0.000 C 
ATOM     16  C   UNL d   1      48.184  35.621  52.242  0.00  0.00     0.011 A 
ENDBRANCH   7  10
ENDBRANCH   1   7
BRANCH   3  17
ATOM     17  N   UNL d   1      51.872  33.885  53.282  0.00  0.00    -0.280 N 
BRANCH  17  18
ATOM     18  C   UNL d   1      51.972  33.110  53.540  0.00  0.00     0.108 C 
BRANCH  18  19
ATOM     19  C   UNL d   1      52.601  32.658  53.256  0.00  0.00     0.135 C 
BRANCH  19  20
ATOM     20  O   UNL d   1      52.637  31.851  53.419  0.00  0.00    -0.325 OA
ATOM     21  C   UNL d   1      53.313  31.420  53.225  0.00  0.00     0.182 C 
ENDBRANCH  19  20
ENDBRANCH  18  19
ENDBRANCH  17  18
BRANCH  17  22
ATOM     22  C   UNL d   1      52.465  34.133  53.796  0.00  0.00     0.108 C 
BRANCH  22  23
ATOM     23  C   UNL d   1      52.638  34.927  53.869  0.00  0.00     0.135 C 
BRANCH  23  24
ATOM     24  O   UNL d   1      53.215  35.177  54.401  0.00  0.00    -0.325 OA
ATOM     25  C   UNL d   1      53.237  35.957  54.651  0.00  0.00     0.182 C 
ENDBRANCH  23  24
ENDBRANCH  22  23
ENDBRANCH  17  22
ENDBRANCH   3  17
TORSDOF 9
ENDMDL
