MODEL 1
REMARK VINA RESULT:      -9.0      0.000      0.000
REMARK  6 active torsions:
REMARK  status: ('A' for Active; 'I' for Inactive)
REMARK       I    between atoms: N_2  and  C_1 
REMARK    1  A    between atoms: C_5  and  C_1 
REMARK    2  A    between atoms: C_3  and  N_2 
REMARK    3  A    between atoms: O_14  and  C_10 
REMARK    4  A    between atoms: C_18  and  O_14 
REMARK    5  A    between atoms: C_19  and  C_18 
REMARK    6  A    between atoms: C_20  and  C_19 
ROOT
ATOM      1  C   UNL d   1      53.608  33.857  54.268  0.00  0.00     0.058 A 
ATOM      2  C   UNL d   1      53.281  33.247  54.717  0.00  0.00     0.007 A 
ATOM      3  C   UNL d   1      54.077  33.684  53.631  0.00  0.00     0.007 A 
ATOM      4  C   UNL d   1      53.904  32.274  53.878  0.00  0.00     0.100 A 
ATOM      5  C   UNL d   1      53.434  32.465  54.515  0.00  0.00     0.025 A 
ATOM      6  C   UNL d   1      54.233  32.914  53.425  0.00  0.00     0.025 A 
ENDROOT
BRANCH   1   7
ATOM      7  C   UNL d   1      53.441  34.644  54.490  0.00  0.00     0.281 C 
ATOM      8  N   UNL d   1      52.857  35.081  54.108  0.00  0.00    -0.189 NA
ATOM      9  O   UNL d   1      53.868  34.986  55.102  0.00  0.00    -0.265 OA
BRANCH   8  10
ATOM     10  C   UNL d   1      52.419  34.730  53.481  0.00  0.00     0.166 A 
ATOM     11  N   UNL d   1      51.659  34.446  53.664  0.00  0.00    -0.227 NA
ATOM     12  C   UNL d   1      51.218  34.106  53.084  0.00  0.00     0.083 A 
ATOM     13  C   UNL d   1      50.418  33.788  53.203  0.00  0.00     0.021 C 
ATOM     14  C   UNL d   1      51.539  34.048  52.308  0.00  0.00     0.019 A 
ATOM     15  C   UNL d   1      52.300  34.339  52.148  0.00  0.00     0.005 A 
ATOM     16  C   UNL d   1      52.715  34.673  52.750  0.00  0.00     0.039 A 
ENDBRANCH   8  10
ENDBRANCH   1   7
BRANCH   4  17
ATOM     17  O   UNL d   1      54.061  31.486  53.671  0.00  0.00    -0.305 OA
BRANCH  17  18
ATOM     18  C   UNL d   1      53.482  30.904  53.730  0.00  0.00     0.123 C 
BRANCH  18  19
ATOM     19  C   UNL d   1      53.689  30.116  53.618  0.00  0.00     0.027 C 
BRANCH  19  20
ATOM     20  C   UNL d   1      53.120  29.528  53.805  0.00  0.00     0.002 C 
ATOM     21  C   UNL d   1      53.305  28.926  54.340  0.00  0.00     0.000 C 
ENDBRANCH  19  20
ENDBRANCH  18  19
ENDBRANCH  17  18
ENDBRANCH   4  17
TORSDOF 6
ENDMDL
MODEL 2
REMARK VINA RESULT:      -8.2      1.536      3.692
REMARK  6 active torsions:
REMARK  status: ('A' for Active; 'I' for Inactive)
REMARK       I    between atoms: N_2  and  C_1 
REMARK    1  A    between atoms: C_5  and  C_1 
REMARK    2  A    between atoms: C_3  and  N_2 
REMARK    3  A    between atoms: O_14  and  C_10 
REMARK    4  A    between atoms: C_18  and  O_14 
REMARK    5  A    between atoms: C_19  and  C_18 
REMARK    6  A    between atoms: C_20  and  C_19 
ROOT
ATOM      1  C   UNL d   1      52.885  34.288  54.173  0.00  0.00     0.058 A 
ATOM      2  C   UNL d   1      52.167  33.887  54.237  0.00  0.00     0.007 A 
ATOM      3  C   UNL d   1      53.091  34.639  53.473  0.00  0.00     0.007 A 
ATOM      4  C   UNL d   1      51.856  34.194  52.877  0.00  0.00     0.100 A 
ATOM      5  C   UNL d   1      51.663  33.847  53.588  0.00  0.00     0.025 A 
ATOM      6  C   UNL d   1      52.599  34.603  52.827  0.00  0.00     0.025 A 
ENDROOT
BRANCH   1   7
ATOM      7  C   UNL d   1      53.381  34.318  54.843  0.00  0.00     0.281 C 
ATOM      8  N   UNL d   1      53.970  33.756  54.965  0.00  0.00    -0.189 NA
ATOM      9  O   UNL d   1      53.278  34.921  55.390  0.00  0.00    -0.265 OA
BRANCH   8  10
ATOM     10  C   UNL d   1      54.076  33.137  54.403  0.00  0.00     0.166 A 
ATOM     11  N   UNL d   1      53.725  32.405  54.579  0.00  0.00    -0.227 NA
ATOM     12  C   UNL d   1      53.810  31.795  54.061  0.00  0.00     0.083 A 
ATOM     13  C   UNL d   1      53.472  31.004  54.179  0.00  0.00     0.021 C 
ATOM     14  C   UNL d   1      54.253  31.919  53.355  0.00  0.00     0.019 A 
ATOM     15  C   UNL d   1      54.594  32.660  53.201  0.00  0.00     0.005 A 
ATOM     16  C   UNL d   1      54.491  33.248  53.739  0.00  0.00     0.039 A 
ENDBRANCH   8  10
ENDBRANCH   1   7
BRANCH   4  17
ATOM     17  O   UNL d   1      51.351  34.155  52.220  0.00  0.00    -0.305 OA
BRANCH  17  18
ATOM     18  C   UNL d   1      50.551  34.340  52.283  0.00  0.00     0.123 C 
BRANCH  18  19
ATOM     19  C   UNL d   1      50.075  34.307  51.613  0.00  0.00     0.027 C 
BRANCH  19  20
ATOM     20  C   UNL d   1      49.287  34.587  51.675  0.00  0.00     0.002 C 
ATOM     21  C   UNL d   1      48.788  34.575  51.016  0.00  0.00     0.000 C 
ENDBRANCH  19  20
ENDBRANCH  18  19
ENDBRANCH  17  18
ENDBRANCH   4  17
TORSDOF 6
ENDMDL
MODEL 3
REMARK VINA RESULT:      -8.0      1.310      2.461
REMARK  6 active torsions:
REMARK  status: ('A' for Active; 'I' for Inactive)
REMARK       I    between atoms: N_2  and  C_1 
REMARK    1  A    between atoms: C_5  and  C_1 
REMARK    2  A    between atoms: C_3  and  N_2 
REMARK    3  A    between atoms: O_14  and  C_10 
REMARK    4  A    between atoms: C_18  and  O_14 
REMARK    5  A    between atoms: C_19  and  C_18 
REMARK    6  A    between atoms: C_20  and  C_19 
ROOT
ATOM      1  C   UNL d   1      52.595  33.922  53.435  0.00  0.00     0.058 A 
ATOM      2  C   UNL d   1      52.001  33.429  53.727  0.00  0.00     0.007 A 
ATOM      3  C   UNL d   1      53.141  33.630  52.913  0.00  0.00     0.007 A 
ATOM      4  C   UNL d   1      52.509  32.336  52.961  0.00  0.00     0.100 A 
ATOM      5  C   UNL d   1      51.967  32.643  53.485  0.00  0.00     0.025 A 
ATOM      6  C   UNL d   1      53.115  32.856  52.669  0.00  0.00     0.025 A 
ENDROOT
BRANCH   1   7
ATOM      7  C   UNL d   1      52.612  34.715  53.692  0.00  0.00     0.281 C 
ATOM      8  N   UNL d   1      53.104  34.955  54.307  0.00  0.00    -0.189 NA
ATOM      9  O   UNL d   1      52.126  35.265  53.324  0.00  0.00    -0.265 OA
BRANCH   8  10
ATOM     10  C   UNL d   1      53.602  34.392  54.684  0.00  0.00     0.166 A 
ATOM     11  N   UNL d   1      54.411  34.415  54.493  0.00  0.00    -0.227 NA
ATOM     12  C   UNL d   1      54.911  33.888  54.839  0.00  0.00     0.083 A 
ATOM     13  C   UNL d   1      55.765  33.854  54.687  0.00  0.00     0.021 C 
ATOM     14  C   UNL d   1      54.598  33.328  55.385  0.00  0.00     0.019 A 
ATOM     15  C   UNL d   1      53.787  33.323  55.561  0.00  0.00     0.005 A 
ATOM     16  C   UNL d   1      53.315  33.863  55.198  0.00  0.00     0.039 A 
ENDBRANCH   8  10
ENDBRANCH   1   7
BRANCH   4  17
ATOM     17  O   UNL d   1      52.479  31.544  52.715  0.00  0.00    -0.305 OA
BRANCH  17  18
ATOM     18  C   UNL d   1      52.984  30.977  53.031  0.00  0.00     0.123 C 
BRANCH  18  19
ATOM     19  C   UNL d   1      52.735  30.194  53.078  0.00  0.00     0.027 C 
BRANCH  19  20
ATOM     20  C   UNL d   1      53.284  29.621  53.346  0.00  0.00     0.002 C 
ATOM     21  C   UNL d   1      53.175  29.249  54.077  0.00  0.00     0.000 C 
ENDBRANCH  19  20
ENDBRANCH  18  19
ENDBRANCH  17  18
ENDBRANCH   4  17
TORSDOF 6
ENDMDL
MODEL 4
REMARK VINA RESULT:      -7.8      1.790      4.259
REMARK  6 active torsions:
REMARK  status: ('A' for Active; 'I' for Inactive)
REMARK       I    between atoms: N_2  and  C_1 
REMARK    1  A    between atoms: C_5  and  C_1 
REMARK    2  A    between atoms: C_3  and  N_2 
REMARK    3  A    between atoms: O_14  and  C_10 
REMARK    4  A    between atoms: C_18  and  O_14 
REMARK    5  A    between atoms: C_19  and  C_18 
REMARK    6  A    between atoms: C_20  and  C_19 
ROOT
ATOM      1  C   UNL d   1      52.602  32.276  53.015  0.00  0.00     0.058 A 
ATOM      2  C   UNL d   1      52.726  32.917  52.511  0.00  0.00     0.007 A 
ATOM      3  C   UNL d   1      52.010  32.303  53.567  0.00  0.00     0.007 A 
ATOM      4  C   UNL d   1      51.646  33.626  53.123  0.00  0.00     0.100 A 
ATOM      5  C   UNL d   1      52.246  33.583  52.573  0.00  0.00     0.025 A 
ATOM      6  C   UNL d   1      51.532  32.956  53.634  0.00  0.00     0.025 A 
ENDROOT
BRANCH   1   7
ATOM      7  C   UNL d   1      53.099  31.610  52.936  0.00  0.00     0.281 C 
ATOM      8  N   UNL d   1      53.772  31.521  53.402  0.00  0.00    -0.189 NA
ATOM      9  O   UNL d   1      52.912  31.035  52.381  0.00  0.00    -0.265 OA
BRANCH   8  10
ATOM     10  C   UNL d   1      53.964  32.111  53.971  0.00  0.00     0.166 A 
ATOM     11  N   UNL d   1      54.563  32.651  53.767  0.00  0.00    -0.227 NA
ATOM     12  C   UNL d   1      54.767  33.226  54.291  0.00  0.00     0.083 A 
ATOM     13  C   UNL d   1      55.382  33.822  54.146  0.00  0.00     0.021 C 
ATOM     14  C   UNL d   1      54.368  33.263  55.032  0.00  0.00     0.019 A 
ATOM     15  C   UNL d   1      53.773  32.713  55.214  0.00  0.00     0.005 A 
ATOM     16  C   UNL d   1      53.593  32.151  54.668  0.00  0.00     0.039 A 
ENDBRANCH   8  10
ENDBRANCH   1   7
BRANCH   4  17
ATOM     17  O   UNL d   1      51.161  34.295  53.188  0.00  0.00    -0.305 OA
BRANCH  17  18
ATOM     18  C   UNL d   1      50.402  34.307  52.869  0.00  0.00     0.123 C 
BRANCH  18  19
ATOM     19  C   UNL d   1      49.906  34.943  53.031  0.00  0.00     0.027 C 
BRANCH  19  20
ATOM     20  C   UNL d   1      49.178  34.989  52.617  0.00  0.00     0.002 C 
ATOM     21  C   UNL d   1      48.586  35.507  52.873  0.00  0.00     0.000 C 
ENDBRANCH  19  20
ENDBRANCH  18  19
ENDBRANCH  17  18
ENDBRANCH   4  17
TORSDOF 6
ENDMDL
