MODEL 1
REMARK VINA RESULT:     103.9      0.000      0.000
REMARK  8 active torsions:
REMARK  status: ('A' for Active; 'I' for Inactive)
REMARK    1  A    between atoms: S_10  and  C_3 
REMARK    2  A    between atoms: C_12  and  C_7 
REMARK    3  A    between atoms: C_15  and  S_10 
REMARK    4  A    between atoms: C_11  and  C_15 
REMARK       I    between atoms: N_16  and  C_11 
REMARK    5  A    between atoms: C_23  and  N_16 
REMARK    6  A    between atoms: O_24  and  C_17 
REMARK    7  A    between atoms: C_18  and  C_29 
REMARK    8  A    between atoms: C_29  and  C_23 
ROOT
ATOM      1  N   UNL d   1      60.576  48.749  50.844  0.00  0.00    -0.186 N 
ATOM      2  N   UNL d   1      59.918  48.796  50.363  0.00  0.00    -0.162 NA
ATOM      3  C   UNL d   1      61.287  48.334  50.768  0.00  0.00     0.217 A 
ATOM      4  C   UNL d   1      60.610  49.167  51.555  0.00  0.00     0.187 A 
ATOM      5  N   UNL d   1      61.745  48.500  51.426  0.00  0.00    -0.120 NA
ATOM      6  N   UNL d   1      61.326  49.017  51.914  0.00  0.00    -0.127 NA
ATOM      7  C   UNL d   1      59.278  49.269  50.592  0.00  0.00     0.102 A 
ATOM      8  C   UNL d   1      59.967  49.641  51.782  0.00  0.00     0.042 A 
ATOM      9  C   UNL d   1      59.307  49.689  51.303  0.00  0.00     0.024 A 
ENDROOT
BRANCH   3  10
ATOM     10  S   UNL d   1      61.514  47.836  50.149  0.00  0.00    -0.041 SA
BRANCH  10  11
ATOM     11  C   UNL d   1      62.168  47.358  50.223  0.00  0.00     0.101 C 
BRANCH  11  12
ATOM     12  C   UNL d   1      62.449  46.944  49.578  0.00  0.00     0.286 C 
ATOM     13  O   UNL d   1      62.816  47.334  48.948  0.00  0.00    -0.265 OA
ATOM     14  N   UNL d   1      62.371  46.124  49.544  0.00  0.00    -0.206 NA
BRANCH  14  15
ATOM     15  C   UNL d   1      62.005  45.726  50.169  0.00  0.00     0.102 C 
BRANCH  15  16
ATOM     16  C   UNL d   1      61.972  44.899  50.167  0.00  0.00     0.021 C 
BRANCH  16  17
ATOM     17  C   UNL d   1      61.259  44.515  49.984  0.00  0.00     0.002 A 
ATOM     18  C   UNL d   1      60.585  44.639  50.451  0.00  0.00     0.002 A 
ATOM     19  C   UNL d   1      59.872  44.254  50.268  0.00  0.00     0.024 A 
ATOM     20  C   UNL d   1      59.839  43.751  49.623  0.00  0.00     0.094 A 
ATOM     21  C   UNL d   1      60.505  43.622  49.153  0.00  0.00     0.024 A 
ATOM     22  C   UNL d   1      61.214  44.004  49.333  0.00  0.00     0.002 A 
BRANCH  20  23
ATOM     23  O   UNL d   1      59.134  43.355  49.422  0.00  0.00    -0.328 OA
ATOM     24  C   UNL d   1      58.429  43.770  49.373  0.00  0.00     0.181 C 
ENDBRANCH  20  23
ENDBRANCH  16  17
ENDBRANCH  15  16
ENDBRANCH  14  15
ENDBRANCH  11  12
ENDBRANCH  10  11
ENDBRANCH   3  10
BRANCH   7  25
ATOM     25  C   UNL d   1      58.611  49.319  50.110  0.00  0.00     0.022 A 
ATOM     26  C   UNL d   1      57.898  49.028  50.374  0.00  0.00     0.022 A 
ATOM     27  C   UNL d   1      57.234  49.074  49.904  0.00  0.00     0.099 A 
ATOM     28  N   UNL d   1      57.281  49.416  49.154  0.00  0.00    -0.242 NA
ATOM     29  C   UNL d   1      57.999  49.707  48.892  0.00  0.00     0.099 A 
ATOM     30  C   UNL d   1      58.667  49.658  49.374  0.00  0.00     0.022 A 
ENDBRANCH   7  25
TORSDOF 8
ENDMDL
MODEL 2
REMARK VINA RESULT:     106.3      2.357      3.469
REMARK  8 active torsions:
REMARK  status: ('A' for Active; 'I' for Inactive)
REMARK    1  A    between atoms: S_10  and  C_3 
REMARK    2  A    between atoms: C_12  and  C_7 
REMARK    3  A    between atoms: C_15  and  S_10 
REMARK    4  A    between atoms: C_11  and  C_15 
REMARK       I    between atoms: N_16  and  C_11 
REMARK    5  A    between atoms: C_23  and  N_16 
REMARK    6  A    between atoms: O_24  and  C_17 
REMARK    7  A    between atoms: C_18  and  C_29 
REMARK    8  A    between atoms: C_29  and  C_23 
ROOT
ATOM      1  N   UNL d   1      61.475  46.872  50.154  0.00  0.00    -0.186 N 
ATOM      2  N   UNL d   1      61.083  47.369  50.669  0.00  0.00    -0.162 NA
ATOM      3  C   UNL d   1      61.501  46.047  50.095  0.00  0.00     0.217 A 
ATOM      4  C   UNL d   1      61.954  47.177  49.556  0.00  0.00     0.187 A 
ATOM      5  N   UNL d   1      61.990  45.858  49.466  0.00  0.00    -0.120 NA
ATOM      6  N   UNL d   1      62.271  46.558  49.132  0.00  0.00    -0.127 NA
ATOM      7  C   UNL d   1      61.167  48.189  50.589  0.00  0.00     0.102 A 
ATOM      8  C   UNL d   1      62.037  48.000  49.477  0.00  0.00     0.042 A 
ATOM      9  C   UNL d   1      61.646  48.500  49.991  0.00  0.00     0.024 A 
ENDROOT
BRANCH   3  10
ATOM     10  S   UNL d   1      61.111  45.497  50.571  0.00  0.00    -0.041 SA
BRANCH  10  11
ATOM     11  C   UNL d   1      61.409  44.745  50.662  0.00  0.00     0.101 C 
BRANCH  11  12
ATOM     12  C   UNL d   1      61.274  44.330  51.352  0.00  0.00     0.286 C 
ATOM     13  O   UNL d   1      60.828  44.657  51.966  0.00  0.00    -0.265 OA
ATOM     14  N   UNL d   1      61.583  43.572  51.447  0.00  0.00    -0.206 NA
BRANCH  14  15
ATOM     15  C   UNL d   1      62.030  43.237  50.838  0.00  0.00     0.102 C 
BRANCH  15  16
ATOM     16  C   UNL d   1      62.668  42.742  51.021  0.00  0.00     0.021 C 
BRANCH  16  17
ATOM     17  C   UNL d   1      62.791  42.048  50.583  0.00  0.00     0.002 A 
ATOM     18  C   UNL d   1      63.031  42.089  49.791  0.00  0.00     0.002 A 
ATOM     19  C   UNL d   1      63.154  41.393  49.353  0.00  0.00     0.024 A 
ATOM     20  C   UNL d   1      63.037  40.666  49.711  0.00  0.00     0.094 A 
ATOM     21  C   UNL d   1      62.798  40.616  50.499  0.00  0.00     0.024 A 
ATOM     22  C   UNL d   1      62.675  41.306  50.935  0.00  0.00     0.002 A 
BRANCH  20  23
ATOM     23  O   UNL d   1      63.154  39.955  49.290  0.00  0.00    -0.328 OA
ATOM     24  C   UNL d   1      62.513  39.493  49.080  0.00  0.00     0.181 C 
ENDBRANCH  20  23
ENDBRANCH  16  17
ENDBRANCH  15  16
ENDBRANCH  14  15
ENDBRANCH  11  12
ENDBRANCH  10  11
ENDBRANCH   3  10
BRANCH   7  25
ATOM     25  C   UNL d   1      60.773  48.695  51.107  0.00  0.00     0.022 A 
ATOM     26  C   UNL d   1      60.965  48.693  51.898  0.00  0.00     0.022 A 
ATOM     27  C   UNL d   1      60.580  49.191  52.416  0.00  0.00     0.099 A 
ATOM     28  N   UNL d   1      59.992  49.700  52.141  0.00  0.00    -0.242 NA
ATOM     29  C   UNL d   1      59.801  49.699  51.346  0.00  0.00     0.099 A 
ATOM     30  C   UNL d   1      60.196  49.193  50.827  0.00  0.00     0.022 A 
ENDBRANCH   7  25
TORSDOF 8
ENDMDL
