MODEL 1
REMARK VINA RESULT:     -10.1      0.000      0.000
REMARK  1 active torsions:
REMARK  status: ('A' for Active; 'I' for Inactive)
REMARK    1  A    between atoms: C_12  and  C_1 
ROOT
ATOM      1  C   UNL d   1      52.497  33.465  53.186  0.00  0.00     0.019 A 
ATOM      2  C   UNL d   1      53.540  32.798  53.906  0.00  0.00     0.103 A 
ATOM      3  C   UNL d   1      53.104  33.478  53.743  0.00  0.00     0.024 A 
ATOM      4  O   UNL d   1      53.372  32.095  53.510  0.00  0.00    -0.273 OA
ATOM      5  C   UNL d   1      52.763  32.080  52.951  0.00  0.00     0.300 A 
ATOM      6  C   UNL d   1      52.326  32.761  52.788  0.00  0.00     0.070 A 
ATOM      7  C   UNL d   1      53.276  34.179  54.142  0.00  0.00     0.002 A 
ATOM      8  C   UNL d   1      54.150  32.818  54.468  0.00  0.00     0.025 A 
ATOM      9  C   UNL d   1      53.879  34.204  54.699  0.00  0.00     0.000 A 
ATOM     10  O   UNL d   1      52.591  31.373  52.550  0.00  0.00    -0.259 OA
ATOM     11  C   UNL d   1      54.318  33.520  54.863  0.00  0.00     0.002 A 
ATOM     12  C   UNL d   1      52.843  34.864  53.984  0.00  0.00     0.000 C 
ATOM     13  C   UNL d   1      54.927  33.547  55.426  0.00  0.00     0.000 C 
ENDROOT
BRANCH   1  14
ATOM     14  C   UNL d   1      52.064  34.150  53.029  0.00  0.00     0.069 C 
ATOM     15 CL   UNL d   1      51.490  34.140  52.438  0.00  0.00    -0.082 Cl
ENDBRANCH   1  14
TORSDOF 1
ENDMDL
MODEL 2
REMARK VINA RESULT:      -9.9      1.218      2.456
REMARK  1 active torsions:
REMARK  status: ('A' for Active; 'I' for Inactive)
REMARK    1  A    between atoms: C_12  and  C_1 
ROOT
ATOM      1  C   UNL d   1      53.345  33.755  54.060  0.00  0.00     0.019 A 
ATOM      2  C   UNL d   1      53.784  32.392  54.059  0.00  0.00     0.103 A 
ATOM      3  C   UNL d   1      53.271  32.979  53.793  0.00  0.00     0.024 A 
ATOM      4  O   UNL d   1      54.379  32.576  54.599  0.00  0.00    -0.273 OA
ATOM      5  C   UNL d   1      54.454  33.354  54.868  0.00  0.00     0.300 A 
ATOM      6  C   UNL d   1      53.941  33.943  54.602  0.00  0.00     0.070 A 
ATOM      7  C   UNL d   1      52.677  32.789  53.253  0.00  0.00     0.002 A 
ATOM      8  C   UNL d   1      53.704  31.613  53.786  0.00  0.00     0.025 A 
ATOM      9  C   UNL d   1      52.594  32.019  52.979  0.00  0.00     0.000 A 
ATOM     10  O   UNL d   1      55.053  33.544  55.412  0.00  0.00    -0.259 OA
ATOM     11  C   UNL d   1      53.110  31.428  53.247  0.00  0.00     0.002 A 
ATOM     12  C   UNL d   1      52.159  33.372  52.982  0.00  0.00     0.000 C 
ATOM     13  C   UNL d   1      53.025  30.650  52.969  0.00  0.00     0.000 C 
ENDROOT
BRANCH   1  14
ATOM     14  C   UNL d   1      52.827  34.338  53.789  0.00  0.00     0.069 C 
ATOM     15 CL   UNL d   1      52.951  35.123  54.006  0.00  0.00    -0.082 Cl
ENDBRANCH   1  14
TORSDOF 1
ENDMDL
MODEL 3
REMARK VINA RESULT:      -9.9      1.290      2.380
REMARK  1 active torsions:
REMARK  status: ('A' for Active; 'I' for Inactive)
REMARK    1  A    between atoms: C_12  and  C_1 
ROOT
ATOM      1  C   UNL d   1      53.742  33.141  54.270  0.00  0.00     0.019 A 
ATOM      2  C   UNL d   1      52.728  32.922  53.283  0.00  0.00     0.103 A 
ATOM      3  C   UNL d   1      53.119  33.421  53.809  0.00  0.00     0.024 A 
ATOM      4  O   UNL d   1      52.957  32.134  53.212  0.00  0.00    -0.273 OA
ATOM      5  C   UNL d   1      53.582  31.851  53.674  0.00  0.00     0.300 A 
ATOM      6  C   UNL d   1      53.974  32.350  54.201  0.00  0.00     0.070 A 
ATOM      7  C   UNL d   1      52.886  34.210  53.877  0.00  0.00     0.002 A 
ATOM      8  C   UNL d   1      52.102  33.212  52.822  0.00  0.00     0.025 A 
ATOM      9  C   UNL d   1      52.267  34.500  53.422  0.00  0.00     0.000 A 
ATOM     10  O   UNL d   1      53.816  31.057  53.605  0.00  0.00    -0.259 OA
ATOM     11  C   UNL d   1      51.873  33.999  52.893  0.00  0.00     0.002 A 
ATOM     12  C   UNL d   1      53.273  34.715  54.402  0.00  0.00     0.000 C 
ATOM     13  C   UNL d   1      51.247  34.294  52.434  0.00  0.00     0.000 C 
ENDROOT
BRANCH   1  14
ATOM     14  C   UNL d   1      54.129  33.646  54.796  0.00  0.00     0.069 C 
ATOM     15 CL   UNL d   1      54.760  33.361  55.242  0.00  0.00    -0.082 Cl
ENDBRANCH   1  14
TORSDOF 1
ENDMDL
MODEL 4
REMARK VINA RESULT:      -9.7      1.319      2.220
REMARK  1 active torsions:
REMARK  status: ('A' for Active; 'I' for Inactive)
REMARK    1  A    between atoms: C_12  and  C_1 
ROOT
ATOM      1  C   UNL d   1      52.952  33.786  53.730  0.00  0.00     0.019 A 
ATOM      2  C   UNL d   1      52.680  32.558  53.044  0.00  0.00     0.103 A 
ATOM      3  C   UNL d   1      53.081  32.979  53.628  0.00  0.00     0.024 A 
ATOM      4  O   UNL d   1      52.143  32.944  52.553  0.00  0.00    -0.273 OA
ATOM      5  C   UNL d   1      52.011  33.755  52.654  0.00  0.00     0.300 A 
ATOM      6  C   UNL d   1      52.413  34.176  53.239  0.00  0.00     0.070 A 
ATOM      7  C   UNL d   1      53.619  32.587  54.117  0.00  0.00     0.002 A 
ATOM      8  C   UNL d   1      52.816  31.746  52.947  0.00  0.00     0.025 A 
ATOM      9  C   UNL d   1      53.756  31.783  54.025  0.00  0.00     0.000 A 
ATOM     10  O   UNL d   1      51.470  34.148  52.160  0.00  0.00    -0.259 OA
ATOM     11  C   UNL d   1      53.352  31.360  53.437  0.00  0.00     0.002 A 
ATOM     12  C   UNL d   1      54.025  33.001  54.704  0.00  0.00     0.000 C 
ATOM     13  C   UNL d   1      53.492  30.547  53.345  0.00  0.00     0.000 C 
ENDROOT
BRANCH   1  14
ATOM     14  C   UNL d   1      53.358  34.200  54.317  0.00  0.00     0.069 C 
ATOM     15 CL   UNL d   1      53.221  35.007  54.413  0.00  0.00    -0.082 Cl
ENDBRANCH   1  14
TORSDOF 1
ENDMDL
MODEL 5
REMARK VINA RESULT:      -9.5      1.306      1.901
REMARK  1 active torsions:
REMARK  status: ('A' for Active; 'I' for Inactive)
REMARK    1  A    between atoms: C_12  and  C_1 
ROOT
ATOM      1  C   UNL d   1      52.759  32.745  53.317  0.00  0.00     0.019 A 
ATOM      2  C   UNL d   1      53.301  33.805  54.113  0.00  0.00     0.103 A 
ATOM      3  C   UNL d   1      53.328  33.027  53.841  0.00  0.00     0.024 A 
ATOM      4  O   UNL d   1      52.700  34.310  53.862  0.00  0.00    -0.273 OA
ATOM      5  C   UNL d   1      52.128  34.028  53.335  0.00  0.00     0.300 A 
ATOM      6  C   UNL d   1      52.155  33.249  53.063  0.00  0.00     0.070 A 
ATOM      7  C   UNL d   1      53.932  32.526  54.096  0.00  0.00     0.002 A 
ATOM      8  C   UNL d   1      53.878  34.082  54.641  0.00  0.00     0.025 A 
ATOM      9  C   UNL d   1      54.505  32.796  54.618  0.00  0.00     0.000 A 
ATOM     10  O   UNL d   1      51.521  34.534  53.080  0.00  0.00    -0.259 OA
ATOM     11  C   UNL d   1      54.478  33.578  54.892  0.00  0.00     0.002 A 
ATOM     12  C   UNL d   1      53.966  31.746  53.828  0.00  0.00     0.000 C 
ATOM     13  C   UNL d   1      55.058  33.850  55.420  0.00  0.00     0.000 C 
ENDROOT
BRANCH   1  14
ATOM     14  C   UNL d   1      52.793  31.965  53.049  0.00  0.00     0.069 C 
ATOM     15 CL   UNL d   1      52.109  31.604  52.765  0.00  0.00    -0.082 Cl
ENDBRANCH   1  14
TORSDOF 1
ENDMDL
MODEL 6
REMARK VINA RESULT:      -9.2      1.596      2.833
REMARK  1 active torsions:
REMARK  status: ('A' for Active; 'I' for Inactive)
REMARK    1  A    between atoms: C_12  and  C_1 
ROOT
ATOM      1  C   UNL d   1      53.617  32.314  53.897  0.00  0.00     0.019 A 
ATOM      2  C   UNL d   1      53.148  33.664  53.987  0.00  0.00     0.103 A 
ATOM      3  C   UNL d   1      53.088  32.905  53.673  0.00  0.00     0.024 A 
ATOM      4  O   UNL d   1      53.741  33.841  54.531  0.00  0.00    -0.273 OA
ATOM      5  C   UNL d   1      54.273  33.250  54.757  0.00  0.00     0.300 A 
ATOM      6  C   UNL d   1      54.214  32.489  54.442  0.00  0.00     0.070 A 
ATOM      7  C   UNL d   1      52.492  32.732  53.129  0.00  0.00     0.002 A 
ATOM      8  C   UNL d   1      52.611  34.253  53.757  0.00  0.00     0.025 A 
ATOM      9  C   UNL d   1      51.959  33.313  52.898  0.00  0.00     0.000 A 
ATOM     10  O   UNL d   1      54.872  33.424  55.305  0.00  0.00    -0.259 OA
ATOM     11  C   UNL d   1      52.019  34.077  53.214  0.00  0.00     0.002 A 
ATOM     12  C   UNL d   1      52.426  31.974  52.810  0.00  0.00     0.000 C 
ATOM     13  C   UNL d   1      51.479  34.663  52.980  0.00  0.00     0.000 C 
ENDROOT
BRANCH   1  14
ATOM     14  C   UNL d   1      53.552  31.556  53.578  0.00  0.00     0.069 C 
ATOM     15 CL   UNL d   1      53.920  30.923  53.957  0.00  0.00    -0.082 Cl
ENDBRANCH   1  14
TORSDOF 1
ENDMDL
MODEL 7
REMARK VINA RESULT:      -8.7      1.315      2.026
REMARK  1 active torsions:
REMARK  status: ('A' for Active; 'I' for Inactive)
REMARK    1  A    between atoms: C_12  and  C_1 
ROOT
ATOM      1  C   UNL d   1      53.411  32.519  53.819  0.00  0.00     0.019 A 
ATOM      2  C   UNL d   1      52.801  33.797  53.606  0.00  0.00     0.103 A 
ATOM      3  C   UNL d   1      53.328  33.314  54.016  0.00  0.00     0.024 A 
ATOM      4  O   UNL d   1      52.348  33.486  52.992  0.00  0.00    -0.273 OA
ATOM      5  C   UNL d   1      52.430  32.687  52.793  0.00  0.00     0.300 A 
ATOM      6  C   UNL d   1      52.958  32.204  53.203  0.00  0.00     0.070 A 
ATOM      7  C   UNL d   1      53.779  33.630  54.631  0.00  0.00     0.002 A 
ATOM      8  C   UNL d   1      52.723  34.597  53.811  0.00  0.00     0.025 A 
ATOM      9  C   UNL d   1      53.705  34.422  54.836  0.00  0.00     0.000 A 
ATOM     10  O   UNL d   1      51.976  32.370  52.173  0.00  0.00    -0.259 OA
ATOM     11  C   UNL d   1      53.174  34.907  54.424  0.00  0.00     0.002 A 
ATOM     12  C   UNL d   1      54.309  33.153  55.046  0.00  0.00     0.000 C 
ATOM     13  C   UNL d   1      53.100  35.708  54.633  0.00  0.00     0.000 C 
ENDROOT
BRANCH   1  14
ATOM     14  C   UNL d   1      53.941  32.042  54.234  0.00  0.00     0.069 C 
ATOM     15 CL   UNL d   1      53.945  31.228  54.101  0.00  0.00    -0.082 Cl
ENDBRANCH   1  14
TORSDOF 1
ENDMDL
MODEL 8
REMARK VINA RESULT:      -8.3      1.365      2.047
REMARK  1 active torsions:
REMARK  status: ('A' for Active; 'I' for Inactive)
REMARK    1  A    between atoms: C_12  and  C_1 
ROOT
ATOM      1  C   UNL d   1      53.022  32.802  53.640  0.00  0.00     0.019 A 
ATOM      2  C   UNL d   1      53.388  33.866  54.527  0.00  0.00     0.103 A 
ATOM      3  C   UNL d   1      53.004  33.599  53.848  0.00  0.00     0.024 A 
ATOM      4  O   UNL d   1      53.796  33.334  55.006  0.00  0.00    -0.273 OA
ATOM      5  C   UNL d   1      53.815  32.534  54.799  0.00  0.00     0.300 A 
ATOM      6  C   UNL d   1      53.431  32.267  54.119  0.00  0.00     0.070 A 
ATOM      7  C   UNL d   1      52.597  34.135  53.371  0.00  0.00     0.002 A 
ATOM      8  C   UNL d   1      53.365  34.670  54.730  0.00  0.00     0.025 A 
ATOM      9  C   UNL d   1      52.572  34.932  53.568  0.00  0.00     0.000 A 
ATOM     10  O   UNL d   1      54.225  31.995  55.280  0.00  0.00    -0.259 OA
ATOM     11  C   UNL d   1      52.958  35.200  54.251  0.00  0.00     0.002 A 
ATOM     12  C   UNL d   1      52.210  33.876  52.690  0.00  0.00     0.000 C 
ATOM     13  C   UNL d   1      52.931  36.006  54.450  0.00  0.00     0.000 C 
ENDROOT
BRANCH   1  14
ATOM     14  C   UNL d   1      52.636  32.543  52.958  0.00  0.00     0.069 C 
ATOM     15 CL   UNL d   1      52.648  31.742  52.765  0.00  0.00    -0.082 Cl
ENDBRANCH   1  14
TORSDOF 1
ENDMDL
