MODEL 1
REMARK VINA RESULT:      11.0      0.000      0.000
REMARK  0 active torsions:
REMARK  status: ('A' for Active; 'I' for Inactive)
ROOT
ATOM      1  C   UNL d   1     -52.425  24.788  33.311  0.00  0.00     0.086 A 
ATOM      2  S   UNL d   1     -52.187  25.573  33.310  0.00  0.00    -0.081 SA
ATOM      3  C   UNL d   1     -51.843  24.176  33.313  0.00  0.00     0.090 A 
ATOM      4  N   UNL d   1     -51.046  24.375  33.313  0.00  0.00    -0.244 NA
ATOM      5  C   UNL d   1     -51.391  25.771  33.310  0.00  0.00     0.047 A 
ATOM      6  C   UNL d   1     -50.822  25.174  33.312  0.00  0.00     0.087 A 
ATOM      7  C   UNL d   1     -53.234  24.576  33.310  0.00  0.00     0.203 A 
ATOM      8  O   UNL d   1     -53.815  25.187  33.308  0.00  0.00    -0.286 OA
ATOM      9  C   UNL d   1     -52.094  23.378  33.314  0.00  0.00     0.020 A 
ATOM     10  C   UNL d   1     -53.471  23.792  33.311  0.00  0.00     0.043 A 
ATOM     11  C   UNL d   1     -52.903  23.194  33.313  0.00  0.00     0.005 A 
ATOM     12  C   UNL d   1     -51.153  26.557  33.309  0.00  0.00     0.008 A 
ATOM     13  C   UNL d   1     -50.023  25.370  33.313  0.00  0.00     0.020 A 
ATOM     14  C   UNL d   1     -50.342  26.739  33.310  0.00  0.00     0.001 A 
ATOM     15  C   UNL d   1     -49.788  26.157  33.312  0.00  0.00     0.002 A 
ENDROOT
TORSDOF 0
ENDMDL
