MODEL 1
REMARK VINA RESULT:      -5.3      0.000      0.000
REMARK  5 active torsions:
REMARK  status: ('A' for Active; 'I' for Inactive)
REMARK    1  A    between atoms: N_5  and  C_1 
REMARK    2  A    between atoms: N_6  and  C_1 
REMARK       I    between atoms: C_2  and  N_3 
REMARK    3  A    between atoms: C_4  and  C_2 
REMARK    4  A    between atoms: N_3  and  N_5 
REMARK    5  A    between atoms: C_10  and  N_6 
ROOT
ATOM      1  C   UNL d   1      57.434   0.167  32.183  0.00  0.00     0.272 C 
ATOM      2  N   UNL d   1      57.581   0.043  31.386  0.00  0.00    -0.264 N 
ATOM      3  O   UNL d   1      57.965   0.579  32.647  0.00  0.00    -0.266 OA
ATOM      4  H   UNL d   1      57.028  -0.380  30.925  0.00  0.00     0.190 HD
ENDROOT
BRANCH   2   5
ATOM      5  N   UNL d   1      58.258   0.327  31.046  0.00  0.00    -0.274 N 
ATOM      6  H   UNL d   1      58.801   0.767  31.501  0.00  0.00     0.189 HD
BRANCH   5   7
ATOM      7  C   UNL d   1      58.407   0.180  30.246  0.00  0.00     0.187 C 
ATOM      8  S   UNL d   1      58.021   0.616  29.665  0.00  0.00    -0.040 SA
BRANCH   7   9
ATOM      9  N   UNL d   1      58.943  -0.406  30.042  0.00  0.00    -0.354 N 
ATOM     10  H   UNL d   1      59.033  -1.059  30.523  0.00  0.00     0.162 HD
BRANCH   9  11
ATOM     11  C   UNL d   1      59.384  -0.322  29.348  0.00  0.00     0.063 C 
ATOM     12  C   UNL d   1      59.832  -0.232  28.662  0.00  0.00     0.022 C 
ATOM     13  C   UNL d   1      58.849  -0.783  28.935  0.00  0.00     0.022 C 
ATOM     14  C   UNL d   1      59.935   0.149  29.762  0.00  0.00     0.022 C 
ENDBRANCH   9  11
ENDBRANCH   7   9
ENDBRANCH   5   7
ENDBRANCH   2   5
BRANCH   1  15
ATOM     15  C   UNL d   1      56.742  -0.125  32.526  0.00  0.00     0.058 A 
ATOM     16  C   UNL d   1      56.222   0.398  32.917  0.00  0.00     0.011 A 
ATOM     17  C   UNL d   1      55.544   0.104  33.252  0.00  0.00     0.035 A 
ATOM     18 BR   UNL d   1      55.039   0.606  33.631  0.00  0.00    -0.049 Br
ATOM     19  C   UNL d   1      55.365  -0.699  33.210  0.00  0.00     0.007 A 
ATOM     20  C   UNL d   1      55.874  -1.231  32.823  0.00  0.00     0.001 A 
ATOM     21  C   UNL d   1      56.564  -0.927  32.483  0.00  0.00     0.005 A 
ENDBRANCH   1  15
TORSDOF 5
ENDMDL
MODEL 2
REMARK VINA RESULT:      -4.6      1.998      4.447
REMARK  5 active torsions:
REMARK  status: ('A' for Active; 'I' for Inactive)
REMARK    1  A    between atoms: N_5  and  C_1 
REMARK    2  A    between atoms: N_6  and  C_1 
REMARK       I    between atoms: C_2  and  N_3 
REMARK    3  A    between atoms: C_4  and  C_2 
REMARK    4  A    between atoms: N_3  and  N_5 
REMARK    5  A    between atoms: C_10  and  N_6 
ROOT
ATOM      1  C   UNL d   1      57.891   0.215  30.234  0.00  0.00     0.272 C 
ATOM      2  N   UNL d   1      57.723   0.081  31.025  0.00  0.00    -0.264 N 
ATOM      3  O   UNL d   1      57.402   0.682  29.775  0.00  0.00    -0.266 OA
ATOM      4  H   UNL d   1      58.233  -0.398  31.480  0.00  0.00     0.190 HD
ENDROOT
BRANCH   2   5
ATOM      5  N   UNL d   1      57.066   0.411  31.366  0.00  0.00    -0.274 N 
ATOM      6  H   UNL d   1      56.626   0.986  30.952  0.00  0.00     0.189 HD
BRANCH   5   7
ATOM      7  C   UNL d   1      56.836   0.175  32.123  0.00  0.00     0.187 C 
ATOM      8  S   UNL d   1      57.287   0.386  32.779  0.00  0.00    -0.040 SA
BRANCH   7   9
ATOM      9  N   UNL d   1      56.154  -0.271  32.212  0.00  0.00    -0.354 N 
ATOM     10  H   UNL d   1      55.862  -0.697  31.578  0.00  0.00     0.162 HD
BRANCH   9  11
ATOM     11  C   UNL d   1      55.772  -0.281  32.944  0.00  0.00     0.063 C 
ATOM     12  C   UNL d   1      55.394  -0.302  33.677  0.00  0.00     0.022 C 
ATOM     13  C   UNL d   1      55.616   0.520  32.890  0.00  0.00     0.022 C 
ATOM     14  C   UNL d   1      55.928  -1.099  33.008  0.00  0.00     0.022 C 
ENDBRANCH   9  11
ENDBRANCH   7   9
ENDBRANCH   5   7
ENDBRANCH   2   5
BRANCH   1  15
ATOM     15  C   UNL d   1      58.561  -0.123  29.892  0.00  0.00     0.058 A 
ATOM     16  C   UNL d   1      58.519  -0.893  29.571  0.00  0.00     0.011 A 
ATOM     17  C   UNL d   1      59.182  -1.219  29.236  0.00  0.00     0.035 A 
ATOM     18 BR   UNL d   1      59.144  -1.963  28.926  0.00  0.00    -0.049 Br
ATOM     19  C   UNL d   1      59.891  -0.802  29.209  0.00  0.00     0.007 A 
ATOM     20  C   UNL d   1      59.948  -0.034  29.524  0.00  0.00     0.001 A 
ATOM     21  C   UNL d   1      59.270   0.294  29.864  0.00  0.00     0.005 A 
ENDBRANCH   1  15
TORSDOF 5
ENDMDL
MODEL 3
REMARK VINA RESULT:      -3.8      2.357      4.573
REMARK  5 active torsions:
REMARK  status: ('A' for Active; 'I' for Inactive)
REMARK    1  A    between atoms: N_5  and  C_1 
REMARK    2  A    between atoms: N_6  and  C_1 
REMARK       I    between atoms: C_2  and  N_3 
REMARK    3  A    between atoms: C_4  and  C_2 
REMARK    4  A    between atoms: N_3  and  N_5 
REMARK    5  A    between atoms: C_10  and  N_6 
ROOT
ATOM      1  C   UNL d   1      58.490  -0.905  29.477  0.00  0.00     0.272 C 
ATOM      2  N   UNL d   1      58.335  -0.813  30.277  0.00  0.00    -0.264 N 
ATOM      3  O   UNL d   1      58.142  -0.413  28.925  0.00  0.00    -0.266 OA
ATOM      4  H   UNL d   1      58.698  -1.324  30.829  0.00  0.00     0.190 HD
ENDROOT
BRANCH   2   5
ATOM      5  N   UNL d   1      57.832  -0.232  30.533  0.00  0.00    -0.274 N 
ATOM      6  H   UNL d   1      57.561   0.349  30.000  0.00  0.00     0.189 HD
BRANCH   5   7
ATOM      7  C   UNL d   1      57.591  -0.219  31.323  0.00  0.00     0.187 C 
ATOM      8  S   UNL d   1      58.016   0.213  31.880  0.00  0.00    -0.040 SA
BRANCH   7   9
ATOM      9  N   UNL d   1      56.923  -0.641  31.543  0.00  0.00    -0.354 N 
ATOM     10  H   UNL d   1      56.726  -1.326  31.143  0.00  0.00     0.162 HD
BRANCH   9  11
ATOM     11  C   UNL d   1      56.461  -0.364  32.169  0.00  0.00     0.063 C 
ATOM     12  C   UNL d   1      55.999  -0.099  32.798  0.00  0.00     0.022 C 
ATOM     13  C   UNL d   1      56.492   0.398  31.874  0.00  0.00     0.022 C 
ATOM     14  C   UNL d   1      56.424  -1.140  32.477  0.00  0.00     0.022 C 
ENDBRANCH   9  11
ENDBRANCH   7   9
ENDBRANCH   5   7
ENDBRANCH   2   5
BRANCH   1  15
ATOM     15  C   UNL d   1      59.002  -1.499  29.221  0.00  0.00     0.058 A 
ATOM     16  C   UNL d   1      58.694  -2.239  28.986  0.00  0.00     0.011 A 
ATOM     17  C   UNL d   1      59.204  -2.817  28.735  0.00  0.00     0.035 A 
ATOM     18 BR   UNL d   1      58.909  -3.533  28.507  0.00  0.00    -0.049 Br
ATOM     19  C   UNL d   1      60.016  -2.684  28.710  0.00  0.00     0.007 A 
ATOM     20  C   UNL d   1      60.337  -1.952  28.942  0.00  0.00     0.001 A 
ATOM     21  C   UNL d   1      59.814  -1.365  29.196  0.00  0.00     0.005 A 
ENDBRANCH   1  15
TORSDOF 5
ENDMDL
