MODEL 1
REMARK VINA RESULT:      36.4      0.000      0.000
REMARK  3 active torsions:
REMARK  status: ('A' for Active; 'I' for Inactive)
REMARK    1  A    between atoms: C_9  and  C_4 
REMARK    2  A    between atoms: C_10  and  C_7 
REMARK    3  A    between atoms: C_13  and  C_10 
ROOT
ATOM      1  C   UNL d   1     -54.765-101.431 -41.278  0.00  0.00     0.179 A 
ATOM      2  N   UNL d   1     -54.737-102.143 -41.705  0.00  0.00    -0.282 N 
ATOM      3  N   UNL d   1     -54.778-100.809 -41.813  0.00  0.00    -0.221 NA
ATOM      4  C   UNL d   1     -54.758-101.134 -42.582  0.00  0.00     0.101 A 
ATOM      5  S   UNL d   1     -54.769-101.614 -40.474  0.00  0.00    -0.048 SA
ATOM      6  C   UNL d   1     -54.733-101.950 -42.507  0.00  0.00     0.101 A 
ATOM      7  C   UNL d   1     -54.743-102.440 -40.405  0.00  0.00     0.050 A 
ATOM      8  C   UNL d   1     -54.723-102.755 -41.157  0.00  0.00     0.089 A 
ENDROOT
BRANCH   7   9
ATOM      9  C   UNL d   1     -54.738-102.857 -39.689  0.00  0.00     0.008 C 
BRANCH   9  10
ATOM     10  C   UNL d   1     -54.735-102.459 -38.975  0.00  0.00     0.001 A 
ATOM     11  C   UNL d   1     -54.721-101.626 -38.965  0.00  0.00     0.002 A 
ATOM     12  C   UNL d   1     -54.717-101.224 -38.240  0.00  0.00     0.030 A 
ATOM     13  C   UNL d   1     -54.728-101.646 -37.532  0.00  0.00     0.140 A 
ATOM     14  C   UNL d   1     -54.742-102.471 -37.540  0.00  0.00     0.030 A 
ATOM     15  F   UNL d   1     -54.725-101.261 -36.806  0.00  0.00    -0.204 F 
ATOM     16  C   UNL d   1     -54.746-102.875 -38.263  0.00  0.00     0.002 A 
ENDBRANCH   9  10
ENDBRANCH   7   9
BRANCH   4  17
ATOM     17  C   UNL d   1     -54.764-100.707 -43.281  0.00  0.00     0.019 A 
ATOM     18  C   UNL d   1     -54.816-101.107 -43.995  0.00  0.00     0.004 A 
ATOM     19  C   UNL d   1     -54.822-100.687 -44.710  0.00  0.00     0.030 A 
ATOM     20  C   UNL d   1     -54.775 -99.860 -44.696  0.00  0.00     0.140 A 
ATOM     21  C   UNL d   1     -54.723 -99.460 -43.982  0.00  0.00     0.030 A 
ATOM     22  F   UNL d   1     -54.769 -99.299 -45.297  0.00  0.00    -0.204 F 
ATOM     23  C   UNL d   1     -54.717 -99.879 -43.273  0.00  0.00     0.004 A 
ENDBRANCH   4  17
TORSDOF 3
ENDMDL
