MODEL 1
REMARK VINA RESULT:       0.4      0.000      0.000
REMARK  7 active torsions:
REMARK  status: ('A' for Active; 'I' for Inactive)
REMARK    1  A    between atoms: S_2  and  C_1 
REMARK    2  A    between atoms: N_7  and  S_2 
REMARK    3  A    between atoms: C_8  and  C_3 
REMARK    4  A    between atoms: C_10  and  C_6 
REMARK    5  A    between atoms: O_21  and  C_8 
REMARK    6  A    between atoms: C_17  and  N_9 
REMARK    7  A    between atoms: O_22  and  C_10 
ROOT
ATOM      1  S   UNL d   1     -41.600-123.189 -52.568  0.00  0.00     0.277 S 
ATOM      2  O   UNL d   1     -41.125-123.816 -52.319  0.00  0.00    -0.199 OA
ATOM      3  O   UNL d   1     -41.216-123.481 -53.208  0.00  0.00    -0.199 OA
ENDROOT
BRANCH   1   4
ATOM      4  C   UNL d   1     -41.831-122.744 -53.234  0.00  0.00     0.139 A 
ATOM      5  C   UNL d   1     -41.938-121.947 -53.165  0.00  0.00     0.082 A 
ATOM      6  C   UNL d   1     -42.160-121.664 -53.898  0.00  0.00     0.018 A 
ATOM      7  C   UNL d   1     -42.339-120.854 -54.116  0.00  0.00     0.001 C 
ATOM      8  C   UNL d   1     -42.189-122.292 -54.421  0.00  0.00     0.093 A 
ATOM      9  S   UNL d   1     -41.983-122.980 -54.017  0.00  0.00    -0.069 SA
BRANCH   5  10
ATOM     10  C   UNL d   1     -41.849-121.437 -52.466  0.00  0.00     0.297 C 
ATOM     11  O   UNL d   1     -42.473-121.356 -51.924  0.00  0.00    -0.259 OA
BRANCH  10  12
ATOM     12  O   UNL d   1     -41.126-121.038 -52.361  0.00  0.00    -0.296 OA
ATOM     13  C   UNL d   1     -41.126-120.246 -52.083  0.00  0.00     0.185 C 
ENDBRANCH  10  12
ENDBRANCH   5  10
BRANCH   8  14
ATOM     14  C   UNL d   1     -42.394-122.234 -55.231  0.00  0.00     0.302 C 
ATOM     15  O   UNL d   1     -41.837-121.983 -55.779  0.00  0.00    -0.259 OA
BRANCH  14  16
ATOM     16  O   UNL d   1     -43.177-122.437 -55.458  0.00  0.00    -0.295 OA
ATOM     17  C   UNL d   1     -43.353-122.693 -56.219  0.00  0.00     0.185 C 
ENDBRANCH  14  16
ENDBRANCH   8  14
ENDBRANCH   1   4
BRANCH   1  18
ATOM     18  N   UNL d   1     -41.706-123.275 -51.736  0.00  0.00    -0.226 N 
ATOM     19  C   UNL d   1     -42.375-123.681 -51.404  0.00  0.00     0.111 A 
ATOM     20  C   UNL d   1     -42.463-123.757 -50.587  0.00  0.00     0.100 A 
ATOM     21  N   UNL d   1     -41.909-123.444 -50.070  0.00  0.00    -0.301 N 
ATOM     22  C   UNL d   1     -41.260-123.051 -50.392  0.00  0.00     0.100 A 
ATOM     23  C   UNL d   1     -41.151-122.962 -51.218  0.00  0.00     0.111 A 
BRANCH  21  24
ATOM     24  C   UNL d   1     -41.977-123.507 -49.277  0.00  0.00     0.064 A 
ATOM     25  C   UNL d   1     -42.675-123.342 -48.879  0.00  0.00     0.018 A 
ATOM     26  C   UNL d   1     -42.735-123.410 -48.059  0.00  0.00     0.002 A 
ATOM     27  C   UNL d   1     -42.084-123.648 -47.632  0.00  0.00     0.000 A 
ATOM     28  C   UNL d   1     -41.378-123.816 -48.021  0.00  0.00     0.002 A 
ATOM     29  C   UNL d   1     -41.314-123.750 -48.827  0.00  0.00     0.018 A 
ENDBRANCH  21  24
ENDBRANCH   1  18
TORSDOF 7
ENDMDL
