MODEL 1
REMARK VINA RESULT:      -7.3      0.000      0.000
REMARK  4 active torsions:
REMARK  status: ('A' for Active; 'I' for Inactive)
REMARK    1  A    between atoms: N_3  and  C_1 
REMARK    2  A    between atoms: C_7  and  C_2 
REMARK       I    between atoms: C_5  and  N_3 
REMARK    3  A    between atoms: C_4  and  C_5 
REMARK    4  A    between atoms: O_17  and  C_7 
ROOT
ATOM      1  N   UNL d   1     -49.978  13.133  21.640  0.00  0.00    -0.200 NA
ATOM      2  C   UNL d   1     -49.243  12.885  21.361  0.00  0.00     0.304 C 
ATOM      3  O   UNL d   1     -49.048  13.017  20.563  0.00  0.00    -0.263 OA
ENDROOT
BRANCH   2   4
ATOM      4  C   UNL d   1     -48.713  12.511  21.871  0.00  0.00     0.182 A 
ATOM      5  O   UNL d   1     -48.078  12.929  22.170  0.00  0.00    -0.298 OA
ATOM      6  C   UNL d   1     -47.555  12.553  22.675  0.00  0.00     0.123 A 
ATOM      7  C   UNL d   1     -46.908  12.970  22.981  0.00  0.00     0.027 A 
ATOM      8  C   UNL d   1     -47.653  11.770  22.887  0.00  0.00     0.123 A 
ATOM      9  C   UNL d   1     -46.382  12.595  23.488  0.00  0.00     0.002 A 
ATOM     10  C   UNL d   1     -46.490  11.801  23.698  0.00  0.00     0.002 A 
ATOM     11  C   UNL d   1     -47.136  11.384  23.391  0.00  0.00     0.027 A 
ATOM     12  O   UNL d   1     -48.306  11.351  22.576  0.00  0.00    -0.301 OA
ATOM     13  C   UNL d   1     -48.836  11.722  22.068  0.00  0.00     0.152 A 
ENDBRANCH   2   4
BRANCH   1  14
ATOM     14  C   UNL d   1     -50.179  13.006  22.427  0.00  0.00     0.119 A 
ATOM     15  C   UNL d   1     -50.402  13.588  22.971  0.00  0.00     0.087 A 
ATOM     16  C   UNL d   1     -50.555  13.214  23.698  0.00  0.00     0.014 A 
ATOM     17  C   UNL d   1     -50.424  12.405  23.595  0.00  0.00     0.037 A 
ATOM     18  S   UNL d   1     -50.193  12.283  22.815  0.00  0.00    -0.067 SA
BRANCH  15  19
ATOM     19  C   UNL d   1     -50.465  14.395  22.825  0.00  0.00     0.298 C 
ATOM     20  O   UNL d   1     -50.857  14.659  22.144  0.00  0.00    -0.259 OA
BRANCH  19  21
ATOM     21  O   UNL d   1     -50.141  14.940  23.353  0.00  0.00    -0.296 OA
ATOM     22  C   UNL d   1     -49.947  15.694  23.095  0.00  0.00     0.185 C 
ENDBRANCH  19  21
ENDBRANCH  15  19
ENDBRANCH   1  14
TORSDOF 4
ENDMDL
MODEL 2
REMARK VINA RESULT:      -7.2      1.687      3.822
REMARK  4 active torsions:
REMARK  status: ('A' for Active; 'I' for Inactive)
REMARK    1  A    between atoms: N_3  and  C_1 
REMARK    2  A    between atoms: C_7  and  C_2 
REMARK       I    between atoms: C_5  and  N_3 
REMARK    3  A    between atoms: C_4  and  C_5 
REMARK    4  A    between atoms: O_17  and  C_7 
ROOT
ATOM      1  N   UNL d   1     -46.967  12.046  23.475  0.00  0.00    -0.200 NA
ATOM      2  C   UNL d   1     -47.675  11.632  23.399  0.00  0.00     0.304 C 
ATOM      3  O   UNL d   1     -47.690  10.820  23.579  0.00  0.00    -0.263 OA
ENDROOT
BRANCH   2   4
ATOM      4  C   UNL d   1     -48.356  12.022  23.145  0.00  0.00     0.182 A 
ATOM      5  O   UNL d   1     -48.566  11.997  22.356  0.00  0.00    -0.298 OA
ATOM      6  C   UNL d   1     -49.243  12.386  22.111  0.00  0.00     0.123 A 
ATOM      7  C   UNL d   1     -49.462  12.365  21.312  0.00  0.00     0.027 A 
ATOM      8  C   UNL d   1     -49.714  12.799  22.635  0.00  0.00     0.123 A 
ATOM      9  C   UNL d   1     -50.141  12.755  21.063  0.00  0.00     0.002 A 
ATOM     10  C   UNL d   1     -50.611  13.171  21.604  0.00  0.00     0.002 A 
ATOM     11  C   UNL d   1     -50.393  13.192  22.401  0.00  0.00     0.027 A 
ATOM     12  O   UNL d   1     -49.491  12.819  23.441  0.00  0.00    -0.301 OA
ATOM     13  C   UNL d   1     -48.812  12.431  23.696  0.00  0.00     0.152 A 
ENDBRANCH   2   4
BRANCH   1  14
ATOM     14  C   UNL d   1     -46.943  12.849  23.299  0.00  0.00     0.119 A 
ATOM     15  C   UNL d   1     -46.344  13.236  22.881  0.00  0.00     0.087 A 
ATOM     16  C   UNL d   1     -46.546  14.042  22.831  0.00  0.00     0.014 A 
ATOM     17  C   UNL d   1     -47.268  14.142  23.218  0.00  0.00     0.037 A 
ATOM     18  S   UNL d   1     -47.507  13.408  23.503  0.00  0.00    -0.067 SA
BRANCH  15  19
ATOM     19  C   UNL d   1     -45.665  12.892  22.568  0.00  0.00     0.298 C 
ATOM     20  O   UNL d   1     -45.202  12.395  23.043  0.00  0.00    -0.259 OA
BRANCH  19  21
ATOM     21  O   UNL d   1     -45.445  13.042  21.787  0.00  0.00    -0.296 OA
ATOM     22  C   UNL d   1     -44.680  12.881  21.540  0.00  0.00     0.185 C 
ENDBRANCH  19  21
ENDBRANCH  15  19
ENDBRANCH   1  14
TORSDOF 4
ENDMDL
MODEL 3
REMARK VINA RESULT:      -7.0      1.408      3.777
REMARK  4 active torsions:
REMARK  status: ('A' for Active; 'I' for Inactive)
REMARK    1  A    between atoms: N_3  and  C_1 
REMARK    2  A    between atoms: C_7  and  C_2 
REMARK       I    between atoms: C_5  and  N_3 
REMARK    3  A    between atoms: C_4  and  C_5 
REMARK    4  A    between atoms: O_17  and  C_7 
ROOT
ATOM      1  N   UNL d   1     -47.526  12.783  21.834  0.00  0.00    -0.200 NA
ATOM      2  C   UNL d   1     -48.283  12.969  21.568  0.00  0.00     0.304 C 
ATOM      3  O   UNL d   1     -48.608  12.535  20.936  0.00  0.00    -0.263 OA
ENDROOT
BRANCH   2   4
ATOM      4  C   UNL d   1     -48.709  13.577  21.927  0.00  0.00     0.182 A 
ATOM      5  O   UNL d   1     -49.307  13.396  22.454  0.00  0.00    -0.298 OA
ATOM      6  C   UNL d   1     -49.726  14.003  22.807  0.00  0.00     0.123 A 
ATOM      7  C   UNL d   1     -50.333  13.827  23.342  0.00  0.00     0.027 A 
ATOM      8  C   UNL d   1     -49.562  14.787  22.645  0.00  0.00     0.123 A 
ATOM      9  C   UNL d   1     -50.755  14.435  23.697  0.00  0.00     0.002 A 
ATOM     10  C   UNL d   1     -50.581  15.226  23.527  0.00  0.00     0.002 A 
ATOM     11  C   UNL d   1     -49.974  15.403  22.993  0.00  0.00     0.027 A 
ATOM     12  O   UNL d   1     -48.949  14.963  22.105  0.00  0.00    -0.301 OA
ATOM     13  C   UNL d   1     -48.522  14.358  21.746  0.00  0.00     0.152 A 
ENDBRANCH   2   4
BRANCH   1  14
ATOM     14  C   UNL d   1     -47.198  13.207  22.458  0.00  0.00     0.119 A 
ATOM     15  C   UNL d   1     -46.861  12.883  23.140  0.00  0.00     0.087 A 
ATOM     16  C   UNL d   1     -46.601  13.511  23.619  0.00  0.00     0.014 A 
ATOM     17  C   UNL d   1     -46.780  14.215  23.228  0.00  0.00     0.037 A 
ATOM     18  S   UNL d   1     -47.146  14.023  22.516  0.00  0.00    -0.067 SA
BRANCH  15  19
ATOM     19  C   UNL d   1     -46.792  12.083  23.319  0.00  0.00     0.298 C 
ATOM     20  O   UNL d   1     -47.418  11.692  23.695  0.00  0.00    -0.259 OA
BRANCH  19  21
ATOM     21  O   UNL d   1     -46.103  11.671  23.125  0.00  0.00    -0.296 OA
ATOM     22  C   UNL d   1     -45.942  10.952  23.486  0.00  0.00     0.185 C 
ENDBRANCH  19  21
ENDBRANCH  15  19
ENDBRANCH   1  14
TORSDOF 4
ENDMDL
MODEL 4
REMARK VINA RESULT:      -6.2      1.287      2.038
REMARK  4 active torsions:
REMARK  status: ('A' for Active; 'I' for Inactive)
REMARK    1  A    between atoms: N_3  and  C_1 
REMARK    2  A    between atoms: C_7  and  C_2 
REMARK       I    between atoms: C_5  and  N_3 
REMARK    3  A    between atoms: C_4  and  C_5 
REMARK    4  A    between atoms: O_17  and  C_7 
ROOT
ATOM      1  N   UNL d   1     -49.778  13.268  21.635  0.00  0.00    -0.200 NA
ATOM      2  C   UNL d   1     -49.025  13.211  21.304  0.00  0.00     0.304 C 
ATOM      3  O   UNL d   1     -48.939  12.860  20.554  0.00  0.00    -0.263 OA
ENDROOT
BRANCH   2   4
ATOM      4  C   UNL d   1     -48.370  13.499  21.715  0.00  0.00     0.182 A 
ATOM      5  O   UNL d   1     -47.873  12.976  22.098  0.00  0.00    -0.298 OA
ATOM      6  C   UNL d   1     -47.225  13.267  22.505  0.00  0.00     0.123 A 
ATOM      7  C   UNL d   1     -46.716  12.743  22.895  0.00  0.00     0.027 A 
ATOM      8  C   UNL d   1     -47.063  14.067  22.537  0.00  0.00     0.123 A 
ATOM      9  C   UNL d   1     -46.065  13.033  23.304  0.00  0.00     0.002 A 
ATOM     10  C   UNL d   1     -45.910  13.846  23.330  0.00  0.00     0.002 A 
ATOM     11  C   UNL d   1     -46.418  14.369  22.940  0.00  0.00     0.027 A 
ATOM     12  O   UNL d   1     -47.578  14.594  22.142  0.00  0.00    -0.301 OA
ATOM     13  C   UNL d   1     -48.232  14.309  21.731  0.00  0.00     0.152 A 
ENDBRANCH   2   4
BRANCH   1  14
ATOM     14  C   UNL d   1     -49.872  13.613  22.376  0.00  0.00     0.119 A 
ATOM     15  C   UNL d   1     -50.190  13.246  23.045  0.00  0.00     0.087 A 
ATOM     16  C   UNL d   1     -50.180  13.797  23.668  0.00  0.00     0.014 A 
ATOM     17  C   UNL d   1     -49.855  14.498  23.377  0.00  0.00     0.037 A 
ATOM     18  S   UNL d   1     -49.668  14.380  22.584  0.00  0.00    -0.067 SA
BRANCH  15  19
ATOM     19  C   UNL d   1     -50.470  12.474  23.093  0.00  0.00     0.298 C 
ATOM     20  O   UNL d   1     -51.062  12.220  22.572  0.00  0.00    -0.259 OA
BRANCH  19  21
ATOM     21  O   UNL d   1     -50.163  11.954  23.655  0.00  0.00    -0.296 OA
ATOM     22  C   UNL d   1     -50.428  11.179  23.684  0.00  0.00     0.185 C 
ENDBRANCH  19  21
ENDBRANCH  15  19
ENDBRANCH   1  14
TORSDOF 4
ENDMDL
MODEL 5
REMARK VINA RESULT:      -6.1      9.421     10.851
REMARK  4 active torsions:
REMARK  status: ('A' for Active; 'I' for Inactive)
REMARK    1  A    between atoms: N_3  and  C_1 
REMARK    2  A    between atoms: C_7  and  C_2 
REMARK       I    between atoms: C_5  and  N_3 
REMARK    3  A    between atoms: C_4  and  C_5 
REMARK    4  A    between atoms: O_17  and  C_7 
ROOT
ATOM      1  N   UNL d   1     -40.502  14.678  19.388  0.00  0.00    -0.200 NA
ATOM      2  C   UNL d   1     -40.658  14.215  18.724  0.00  0.00     0.304 C 
ATOM      3  O   UNL d   1     -41.373  13.793  18.684  0.00  0.00    -0.263 OA
ENDROOT
BRANCH   2   4
ATOM      4  C   UNL d   1     -40.107  14.175  18.111  0.00  0.00     0.182 A 
ATOM      5  O   UNL d   1     -39.594  13.540  18.070  0.00  0.00    -0.298 OA
ATOM      6  C   UNL d   1     -39.051  13.506  17.459  0.00  0.00     0.123 A 
ATOM      7  C   UNL d   1     -38.528  12.865  17.411  0.00  0.00     0.027 A 
ATOM      8  C   UNL d   1     -39.008  14.090  16.890  0.00  0.00     0.123 A 
ATOM      9  C   UNL d   1     -37.981  12.829  16.799  0.00  0.00     0.002 A 
ATOM     10  C   UNL d   1     -37.946  13.426  16.227  0.00  0.00     0.002 A 
ATOM     11  C   UNL d   1     -38.468  14.066  16.275  0.00  0.00     0.027 A 
ATOM     12  O   UNL d   1     -39.537  14.736  16.941  0.00  0.00    -0.301 OA
ATOM     13  C   UNL d   1     -40.086  14.778  17.551  0.00  0.00     0.152 A 
ENDBRANCH   2   4
BRANCH   1  14
ATOM     14  C   UNL d   1     -39.797  15.098  19.436  0.00  0.00     0.119 A 
ATOM     15  C   UNL d   1     -39.255  15.068  20.059  0.00  0.00     0.087 A 
ATOM     16  C   UNL d   1     -38.625  15.579  19.876  0.00  0.00     0.014 A 
ATOM     17  C   UNL d   1     -38.785  15.920  19.141  0.00  0.00     0.037 A 
ATOM     18  S   UNL d   1     -39.505  15.622  18.876  0.00  0.00    -0.067 SA
BRANCH  15  19
ATOM     19  C   UNL d   1     -39.321  14.614  20.743  0.00  0.00     0.298 C 
ATOM     20  O   UNL d   1     -39.921  14.781  21.288  0.00  0.00    -0.259 OA
BRANCH  19  21
ATOM     21  O   UNL d   1     -38.792  13.997  20.885  0.00  0.00    -0.296 OA
ATOM     22  C   UNL d   1     -38.748  13.660  21.631  0.00  0.00     0.185 C 
ENDBRANCH  19  21
ENDBRANCH  15  19
ENDBRANCH   1  14
TORSDOF 4
ENDMDL
MODEL 6
REMARK VINA RESULT:      -5.8      9.575     10.819
REMARK  4 active torsions:
REMARK  status: ('A' for Active; 'I' for Inactive)
REMARK    1  A    between atoms: N_3  and  C_1 
REMARK    2  A    between atoms: C_7  and  C_2 
REMARK       I    between atoms: C_5  and  N_3 
REMARK    3  A    between atoms: C_4  and  C_5 
REMARK    4  A    between atoms: O_17  and  C_7 
ROOT
ATOM      1  N   UNL d   1     -40.049  14.234  17.669  0.00  0.00    -0.200 NA
ATOM      2  C   UNL d   1     -40.595  14.282  18.283  0.00  0.00     0.304 C 
ATOM      3  O   UNL d   1     -41.337  13.916  18.195  0.00  0.00    -0.263 OA
ENDROOT
BRANCH   2   4
ATOM      4  C   UNL d   1     -40.404  14.690  18.975  0.00  0.00     0.182 A 
ATOM      5  O   UNL d   1     -40.171  14.274  19.638  0.00  0.00    -0.298 OA
ATOM      6  C   UNL d   1     -39.982  14.683  20.321  0.00  0.00     0.123 A 
ATOM      7  C   UNL d   1     -39.746  14.268  20.997  0.00  0.00     0.027 A 
ATOM      8  C   UNL d   1     -40.021  15.498  20.355  0.00  0.00     0.123 A 
ATOM      9  C   UNL d   1     -39.556  14.677  21.683  0.00  0.00     0.002 A 
ATOM     10  C   UNL d   1     -39.598  15.503  21.708  0.00  0.00     0.002 A 
ATOM     11  C   UNL d   1     -39.834  15.919  21.033  0.00  0.00     0.027 A 
ATOM     12  O   UNL d   1     -40.260  15.916  19.672  0.00  0.00    -0.301 OA
ATOM     13  C   UNL d   1     -40.451  15.512  18.981  0.00  0.00     0.152 A 
ENDBRANCH   2   4
BRANCH   1  14
ATOM     14  C   UNL d   1     -39.313  14.593  17.748  0.00  0.00     0.119 A 
ATOM     15  C   UNL d   1     -38.580  14.224  17.646  0.00  0.00     0.087 A 
ATOM     16  C   UNL d   1     -37.987  14.792  17.779  0.00  0.00     0.014 A 
ATOM     17  C   UNL d   1     -38.361  15.505  17.963  0.00  0.00     0.037 A 
ATOM     18  S   UNL d   1     -39.174  15.377  17.942  0.00  0.00    -0.067 SA
BRANCH  15  19
ATOM     19  C   UNL d   1     -38.452  13.436  17.447  0.00  0.00     0.298 C 
ATOM     20  O   UNL d   1     -38.640  13.171  16.685  0.00  0.00    -0.259 OA
BRANCH  19  21
ATOM     21  O   UNL d   1     -38.138  12.912  18.002  0.00  0.00    -0.296 OA
ATOM     22  C   UNL d   1     -37.967  12.140  17.785  0.00  0.00     0.185 C 
ENDBRANCH  19  21
ENDBRANCH  15  19
ENDBRANCH   1  14
TORSDOF 4
ENDMDL
MODEL 7
REMARK VINA RESULT:      -5.6      1.804      3.770
REMARK  4 active torsions:
REMARK  status: ('A' for Active; 'I' for Inactive)
REMARK    1  A    between atoms: N_3  and  C_1 
REMARK    2  A    between atoms: C_7  and  C_2 
REMARK       I    between atoms: C_5  and  N_3 
REMARK    3  A    between atoms: C_4  and  C_5 
REMARK    4  A    between atoms: O_17  and  C_7 
ROOT
ATOM      1  N   UNL d   1     -46.867  14.346  22.773  0.00  0.00    -0.200 NA
ATOM      2  C   UNL d   1     -47.594  14.675  22.568  0.00  0.00     0.304 C 
ATOM      3  O   UNL d   1     -47.622  15.465  22.307  0.00  0.00    -0.263 OA
ENDROOT
BRANCH   2   4
ATOM      4  C   UNL d   1     -48.282  14.222  22.622  0.00  0.00     0.182 A 
ATOM      5  O   UNL d   1     -48.580  13.860  21.953  0.00  0.00    -0.298 OA
ATOM      6  C   UNL d   1     -49.262  13.412  22.013  0.00  0.00     0.123 A 
ATOM      7  C   UNL d   1     -49.571  13.041  21.339  0.00  0.00     0.027 A 
ATOM      8  C   UNL d   1     -49.653  13.319  22.724  0.00  0.00     0.123 A 
ATOM      9  C   UNL d   1     -50.255  12.591  21.396  0.00  0.00     0.002 A 
ATOM     10  C   UNL d   1     -50.643  12.503  22.122  0.00  0.00     0.002 A 
ATOM     11  C   UNL d   1     -50.336  12.873  22.795  0.00  0.00     0.027 A 
ATOM     12  O   UNL d   1     -49.340  13.694  23.402  0.00  0.00    -0.301 OA
ATOM     13  C   UNL d   1     -48.655  14.145  23.351  0.00  0.00     0.152 A 
ENDBRANCH   2   4
BRANCH   1  14
ATOM     14  C   UNL d   1     -46.831  13.566  23.032  0.00  0.00     0.119 A 
ATOM     15  C   UNL d   1     -46.312  12.986  22.752  0.00  0.00     0.087 A 
ATOM     16  C   UNL d   1     -46.469  12.282  23.167  0.00  0.00     0.014 A 
ATOM     17  C   UNL d   1     -47.082  12.436  23.698  0.00  0.00     0.037 A 
ATOM     18  S   UNL d   1     -47.300  13.225  23.611  0.00  0.00    -0.067 SA
BRANCH  15  19
ATOM     19  C   UNL d   1     -45.741  13.081  22.168  0.00  0.00     0.298 C 
ATOM     20  O   UNL d   1     -45.935  12.927  21.377  0.00  0.00    -0.259 OA
BRANCH  19  21
ATOM     21  O   UNL d   1     -44.979  13.328  22.367  0.00  0.00    -0.296 OA
ATOM     22  C   UNL d   1     -44.357  13.192  21.851  0.00  0.00     0.185 C 
ENDBRANCH  19  21
ENDBRANCH  15  19
ENDBRANCH   1  14
TORSDOF 4
ENDMDL
MODEL 8
REMARK VINA RESULT:      -5.3      8.598     10.113
REMARK  4 active torsions:
REMARK  status: ('A' for Active; 'I' for Inactive)
REMARK    1  A    between atoms: N_3  and  C_1 
REMARK    2  A    between atoms: C_7  and  C_2 
REMARK       I    between atoms: C_5  and  N_3 
REMARK    3  A    between atoms: C_4  and  C_5 
REMARK    4  A    between atoms: O_17  and  C_7 
ROOT
ATOM      1  N   UNL d   1     -40.863  14.334  19.417  0.00  0.00    -0.200 NA
ATOM      2  C   UNL d   1     -41.011  14.248  20.223  0.00  0.00     0.304 C 
ATOM      3  O   UNL d   1     -41.619  13.738  20.472  0.00  0.00    -0.263 OA
ENDROOT
BRANCH   2   4
ATOM      4  C   UNL d   1     -40.558  14.666  20.773  0.00  0.00     0.182 A 
ATOM      5  O   UNL d   1     -39.943  14.290  21.158  0.00  0.00    -0.298 OA
ATOM      6  C   UNL d   1     -39.497  14.709  21.701  0.00  0.00     0.123 A 
ATOM      7  C   UNL d   1     -38.872  14.334  22.095  0.00  0.00     0.027 A 
ATOM      8  C   UNL d   1     -39.652  15.493  21.868  0.00  0.00     0.123 A 
ATOM      9  C   UNL d   1     -38.423  14.753  22.642  0.00  0.00     0.002 A 
ATOM     10  C   UNL d   1     -38.588  15.548  22.804  0.00  0.00     0.002 A 
ATOM     11  C   UNL d   1     -39.213  15.922  22.410  0.00  0.00     0.027 A 
ATOM     12  O   UNL d   1     -40.283  15.869  21.469  0.00  0.00    -0.301 OA
ATOM     13  C   UNL d   1     -40.736  15.455  20.921  0.00  0.00     0.152 A 
ENDBRANCH   2   4
BRANCH   1  14
ATOM     14  C   UNL d   1     -40.264  14.837  19.164  0.00  0.00     0.119 A 
ATOM     15  C   UNL d   1     -39.642  14.633  18.659  0.00  0.00     0.087 A 
ATOM     16  C   UNL d   1     -39.168  15.309  18.552  0.00  0.00     0.014 A 
ATOM     17  C   UNL d   1     -39.503  15.921  18.992  0.00  0.00     0.037 A 
ATOM     18  S   UNL d   1     -40.175  15.626  19.365  0.00  0.00    -0.067 SA
BRANCH  15  19
ATOM     19  C   UNL d   1     -39.508  13.896  18.319  0.00  0.00     0.298 C 
ATOM     20  O   UNL d   1     -40.069  13.579  17.797  0.00  0.00    -0.259 OA
BRANCH  19  21
ATOM     21  O   UNL d   1     -38.822  13.474  18.495  0.00  0.00    -0.296 OA
ATOM     22  C   UNL d   1     -38.573  12.871  17.998  0.00  0.00     0.185 C 
ENDBRANCH  19  21
ENDBRANCH  15  19
ENDBRANCH   1  14
TORSDOF 4
ENDMDL
MODEL 9
REMARK VINA RESULT:      -5.1     10.007     11.250
REMARK  4 active torsions:
REMARK  status: ('A' for Active; 'I' for Inactive)
REMARK    1  A    between atoms: N_3  and  C_1 
REMARK    2  A    between atoms: C_7  and  C_2 
REMARK       I    between atoms: C_5  and  N_3 
REMARK    3  A    between atoms: C_4  and  C_5 
REMARK    4  A    between atoms: O_17  and  C_7 
ROOT
ATOM      1  N   UNL d   1     -38.316  13.549  18.798  0.00  0.00    -0.200 NA
ATOM      2  C   UNL d   1     -38.788  13.362  18.150  0.00  0.00     0.304 C 
ATOM      3  O   UNL d   1     -38.885  12.564  17.936  0.00  0.00    -0.263 OA
ENDROOT
BRANCH   2   4
ATOM      4  C   UNL d   1     -39.158  13.963  17.722  0.00  0.00     0.182 A 
ATOM      5  O   UNL d   1     -39.951  14.119  17.848  0.00  0.00    -0.298 OA
ATOM      6  C   UNL d   1     -40.312  14.716  17.420  0.00  0.00     0.123 A 
ATOM      7  C   UNL d   1     -41.115  14.880  17.543  0.00  0.00     0.027 A 
ATOM      8  C   UNL d   1     -39.901  15.159  16.871  0.00  0.00     0.123 A 
ATOM      9  C   UNL d   1     -41.480  15.479  17.115  0.00  0.00     0.002 A 
ATOM     10  C   UNL d   1     -41.054  15.922  16.560  0.00  0.00     0.002 A 
ATOM     11  C   UNL d   1     -40.253  15.758  16.438  0.00  0.00     0.027 A 
ATOM     12  O   UNL d   1     -39.092  14.991  16.749  0.00  0.00    -0.301 OA
ATOM     13  C   UNL d   1     -38.720  14.393  17.174  0.00  0.00     0.152 A 
ENDBRANCH   2   4
BRANCH   1  14
ATOM     14  C   UNL d   1     -38.216  14.336  19.016  0.00  0.00     0.119 A 
ATOM     15  C   UNL d   1     -38.334  14.649  19.772  0.00  0.00     0.087 A 
ATOM     16  C   UNL d   1     -38.170  15.464  19.740  0.00  0.00     0.014 A 
ATOM     17  C   UNL d   1     -37.951  15.645  18.965  0.00  0.00     0.037 A 
ATOM     18  S   UNL d   1     -37.981  14.950  18.525  0.00  0.00    -0.067 SA
BRANCH  15  19
ATOM     19  C   UNL d   1     -38.573  14.234  20.441  0.00  0.00     0.298 C 
ATOM     20  O   UNL d   1     -38.126  13.586  20.702  0.00  0.00    -0.259 OA
BRANCH  19  21
ATOM     21  O   UNL d   1     -39.252  14.461  20.852  0.00  0.00    -0.296 OA
ATOM     22  C   UNL d   1     -39.401  14.154  21.597  0.00  0.00     0.185 C 
ENDBRANCH  19  21
ENDBRANCH  15  19
ENDBRANCH   1  14
TORSDOF 4
ENDMDL
