MODEL 1
REMARK VINA RESULT:      -9.0      0.000      0.000
REMARK  3 active torsions:
REMARK  status: ('A' for Active; 'I' for Inactive)
REMARK    1  A    between atoms: S_15  and  C_3 
REMARK    2  A    between atoms: C_5  and  C_14 
REMARK    3  A    between atoms: C_14  and  S_15 
ROOT
ATOM      1  N   UNL d   1      53.318  33.116  54.098  0.00  0.00    -0.263 N 
ATOM      2  C   UNL d   1      53.807  33.629  54.542  0.00  0.00     0.202 A 
ATOM      3  C   UNL d   1      53.625  32.356  54.202  0.00  0.00     0.202 A 
ATOM      4  N   UNL d   1      54.392  33.145  54.894  0.00  0.00    -0.121 NA
ATOM      5  S   UNL d   1      53.528  34.415  54.463  0.00  0.00    -0.047 SA
ATOM      6  N   UNL d   1      54.295  32.399  54.702  0.00  0.00    -0.121 NA
ATOM      7  C   UNL d   1      52.744  33.589  53.752  0.00  0.00     0.074 A 
ATOM      8  C   UNL d   1      52.872  34.381  53.974  0.00  0.00     0.049 A 
ATOM      9  C   UNL d   1      52.111  33.404  53.256  0.00  0.00     0.018 A 
ATOM     10  C   UNL d   1      52.364  34.968  53.694  0.00  0.00     0.008 A 
ATOM     11  C   UNL d   1      51.597  33.993  52.972  0.00  0.00     0.002 A 
ATOM     12  C   UNL d   1      51.725  34.785  53.194  0.00  0.00     0.001 A 
ENDROOT
BRANCH   3  13
ATOM     13  S   UNL d   1      53.308  31.609  53.848  0.00  0.00    -0.048 SA
BRANCH  13  14
ATOM     14  C   UNL d   1      53.670  30.895  54.011  0.00  0.00     0.042 C 
BRANCH  14  15
ATOM     15  C   UNL d   1      53.306  30.208  53.771  0.00  0.00     0.051 A 
ATOM     16  C   UNL d   1      53.025  29.937  53.044  0.00  0.00     0.127 A 
ATOM     17  O   UNL d   1      52.710  29.197  53.137  0.00  0.00    -0.211 OA
ATOM     18  C   UNL d   1      53.063  30.384  52.292  0.00  0.00     0.029 C 
ATOM     19  N   UNL d   1      52.783  28.997  53.890  0.00  0.00    -0.126 NA
ATOM     20  C   UNL d   1      53.151  29.609  54.309  0.00  0.00     0.111 A 
ATOM     21  C   UNL d   1      53.335  29.629  55.111  0.00  0.00     0.023 C 
ENDBRANCH  14  15
ENDBRANCH  13  14
ENDBRANCH   3  13
TORSDOF 3
ENDMDL
MODEL 2
REMARK VINA RESULT:      -8.8      1.799      4.307
REMARK  3 active torsions:
REMARK  status: ('A' for Active; 'I' for Inactive)
REMARK    1  A    between atoms: S_15  and  C_3 
REMARK    2  A    between atoms: C_5  and  C_14 
REMARK    3  A    between atoms: C_14  and  S_15 
ROOT
ATOM      1  N   UNL d   1      53.107  31.127  53.499  0.00  0.00    -0.263 N 
ATOM      2  C   UNL d   1      52.838  30.822  52.769  0.00  0.00     0.202 A 
ATOM      3  C   UNL d   1      53.164  31.946  53.402  0.00  0.00     0.202 A 
ATOM      4  N   UNL d   1      52.744  31.482  52.263  0.00  0.00    -0.121 NA
ATOM      5  S   UNL d   1      52.767  29.990  52.826  0.00  0.00    -0.047 SA
ATOM      6  N   UNL d   1      52.932  32.144  52.623  0.00  0.00    -0.121 NA
ATOM      7  C   UNL d   1      53.200  30.481  53.997  0.00  0.00     0.074 A 
ATOM      8  C   UNL d   1      52.992  29.788  53.586  0.00  0.00     0.049 A 
ATOM      9  C   UNL d   1      53.449  30.429  54.782  0.00  0.00     0.018 A 
ATOM     10  C   UNL d   1      53.039  29.059  53.971  0.00  0.00     0.008 A 
ATOM     11  C   UNL d   1      53.497  29.696  55.173  0.00  0.00     0.002 A 
ATOM     12  C   UNL d   1      53.290  29.003  54.762  0.00  0.00     0.001 A 
ENDROOT
BRANCH   3  13
ATOM     13  S   UNL d   1      53.425  32.530  54.014  0.00  0.00    -0.048 SA
BRANCH  13  14
ATOM     14  C   UNL d   1      53.544  33.311  53.807  0.00  0.00     0.042 C 
BRANCH  14  15
ATOM     15  C   UNL d   1      53.680  33.856  54.397  0.00  0.00     0.051 A 
ATOM     16  C   UNL d   1      54.291  33.964  54.941  0.00  0.00     0.127 A 
ATOM     17  O   UNL d   1      54.127  34.610  55.401  0.00  0.00    -0.211 OA
ATOM     18  C   UNL d   1      55.002  33.458  55.007  0.00  0.00     0.029 C 
ATOM     19  N   UNL d   1      53.442  34.907  55.166  0.00  0.00    -0.126 NA
ATOM     20  C   UNL d   1      53.141  34.456  54.541  0.00  0.00     0.111 A 
ATOM     21  C   UNL d   1      52.437  34.574  54.130  0.00  0.00     0.023 C 
ENDBRANCH  14  15
ENDBRANCH  13  14
ENDBRANCH   3  13
TORSDOF 3
ENDMDL
MODEL 3
REMARK VINA RESULT:      -8.3      1.180      1.856
REMARK  3 active torsions:
REMARK  status: ('A' for Active; 'I' for Inactive)
REMARK    1  A    between atoms: S_15  and  C_3 
REMARK    2  A    between atoms: C_5  and  C_14 
REMARK    3  A    between atoms: C_14  and  S_15 
ROOT
ATOM      1  N   UNL d   1      52.612  33.367  53.315  0.00  0.00    -0.263 N 
ATOM      2  C   UNL d   1      52.171  33.901  52.846  0.00  0.00     0.202 A 
ATOM      3  C   UNL d   1      52.515  32.622  52.972  0.00  0.00     0.202 A 
ATOM      4  N   UNL d   1      51.827  33.443  52.235  0.00  0.00    -0.121 NA
ATOM      5  S   UNL d   1      52.244  34.673  53.162  0.00  0.00    -0.047 SA
ATOM      6  N   UNL d   1      52.021  32.694  52.300  0.00  0.00    -0.121 NA
ATOM      7  C   UNL d   1      52.950  33.815  53.913  0.00  0.00     0.074 A 
ATOM      8  C   UNL d   1      52.726  34.611  53.820  0.00  0.00     0.049 A 
ATOM      9  C   UNL d   1      53.441  33.603  54.542  0.00  0.00     0.018 A 
ATOM     10  C   UNL d   1      52.998  35.175  54.358  0.00  0.00     0.008 A 
ATOM     11  C   UNL d   1      53.717  34.168  55.086  0.00  0.00     0.002 A 
ATOM     12  C   UNL d   1      53.493  34.964  54.993  0.00  0.00     0.001 A 
ENDROOT
BRANCH   3  13
ATOM     13  S   UNL d   1      52.869  31.863  53.257  0.00  0.00    -0.048 SA
BRANCH  13  14
ATOM     14  C   UNL d   1      52.629  31.154  52.932  0.00  0.00     0.042 C 
BRANCH  14  15
ATOM     15  C   UNL d   1      52.896  30.459  53.264  0.00  0.00     0.051 A 
ATOM     16  C   UNL d   1      53.646  30.134  53.374  0.00  0.00     0.127 A 
ATOM     17  O   UNL d   1      53.575  29.417  53.743  0.00  0.00    -0.211 OA
ATOM     18  C   UNL d   1      54.398  30.508  53.128  0.00  0.00     0.029 C 
ATOM     19  N   UNL d   1      52.813  29.284  53.867  0.00  0.00    -0.126 NA
ATOM     20  C   UNL d   1      52.367  29.918  53.578  0.00  0.00     0.111 A 
ATOM     21  C   UNL d   1      51.548  30.005  53.595  0.00  0.00     0.023 C 
ENDBRANCH  14  15
ENDBRANCH  13  14
ENDBRANCH   3  13
TORSDOF 3
ENDMDL
MODEL 4
REMARK VINA RESULT:      -7.6      2.067      4.033
REMARK  3 active torsions:
REMARK  status: ('A' for Active; 'I' for Inactive)
REMARK    1  A    between atoms: S_15  and  C_3 
REMARK    2  A    between atoms: C_5  and  C_14 
REMARK    3  A    between atoms: C_14  and  S_15 
ROOT
ATOM      1  N   UNL d   1      52.977  32.896  53.545  0.00  0.00    -0.263 N 
ATOM      2  C   UNL d   1      53.649  33.108  53.996  0.00  0.00     0.202 A 
ATOM      3  C   UNL d   1      52.549  33.592  53.424  0.00  0.00     0.202 A 
ATOM      4  N   UNL d   1      53.590  33.933  54.125  0.00  0.00    -0.121 NA
ATOM      5  S   UNL d   1      54.112  32.426  54.141  0.00  0.00    -0.047 SA
ATOM      6  N   UNL d   1      52.950  34.226  53.795  0.00  0.00    -0.121 NA
ATOM      7  C   UNL d   1      53.034  32.087  53.418  0.00  0.00     0.074 A 
ATOM      8  C   UNL d   1      53.726  31.801  53.781  0.00  0.00     0.049 A 
ATOM      9  C   UNL d   1      52.541  31.563  53.013  0.00  0.00     0.018 A 
ATOM     10  C   UNL d   1      53.908  30.997  53.731  0.00  0.00     0.008 A 
ATOM     11  C   UNL d   1      52.722  30.752  52.961  0.00  0.00     0.002 A 
ATOM     12  C   UNL d   1      53.414  30.466  53.324  0.00  0.00     0.001 A 
ENDROOT
BRANCH   3  13
ATOM     13  S   UNL d   1      51.789  33.669  52.978  0.00  0.00    -0.048 SA
BRANCH  13  14
ATOM     14  C   UNL d   1      51.398  34.386  52.960  0.00  0.00     0.042 C 
BRANCH  14  15
ATOM     15  C   UNL d   1      50.695  34.439  52.551  0.00  0.00     0.051 A 
ATOM     16  C   UNL d   1      50.495  34.370  51.754  0.00  0.00     0.127 A 
ATOM     17  O   UNL d   1      49.697  34.477  51.668  0.00  0.00    -0.211 OA
ATOM     18  C   UNL d   1      51.060  34.207  51.105  0.00  0.00     0.029 C 
ATOM     19  N   UNL d   1      49.394  34.610  52.378  0.00  0.00    -0.126 NA
ATOM     20  C   UNL d   1      49.994  34.591  52.947  0.00  0.00     0.111 A 
ATOM     21  C   UNL d   1      49.919  34.703  53.760  0.00  0.00     0.023 C 
ENDBRANCH  14  15
ENDBRANCH  13  14
ENDBRANCH   3  13
TORSDOF 3
ENDMDL
MODEL 5
REMARK VINA RESULT:      -7.1      2.257      4.004
REMARK  3 active torsions:
REMARK  status: ('A' for Active; 'I' for Inactive)
REMARK    1  A    between atoms: S_15  and  C_3 
REMARK    2  A    between atoms: C_5  and  C_14 
REMARK    3  A    between atoms: C_14  and  S_15 
ROOT
ATOM      1  N   UNL d   1      53.164  32.898  53.503  0.00  0.00    -0.263 N 
ATOM      2  C   UNL d   1      53.573  32.187  53.341  0.00  0.00     0.202 A 
ATOM      3  C   UNL d   1      52.487  32.890  53.030  0.00  0.00     0.202 A 
ATOM      4  N   UNL d   1      53.114  31.781  52.770  0.00  0.00    -0.121 NA
ATOM      5  S   UNL d   1      54.270  32.157  53.803  0.00  0.00    -0.047 SA
ATOM      6  N   UNL d   1      52.477  32.183  52.581  0.00  0.00    -0.121 NA
ATOM      7  C   UNL d   1      53.613  33.297  54.062  0.00  0.00     0.074 A 
ATOM      8  C   UNL d   1      54.287  32.845  54.245  0.00  0.00     0.049 A 
ATOM      9  C   UNL d   1      53.498  34.024  54.437  0.00  0.00     0.018 A 
ATOM     10  C   UNL d   1      54.830  33.131  54.798  0.00  0.00     0.008 A 
ATOM     11  C   UNL d   1      54.042  34.314  54.995  0.00  0.00     0.002 A 
ATOM     12  C   UNL d   1      54.716  33.862  55.178  0.00  0.00     0.001 A 
ENDROOT
BRANCH   3  13
ATOM     13  S   UNL d   1      51.864  33.518  52.994  0.00  0.00    -0.048 SA
BRANCH  13  14
ATOM     14  C   UNL d   1      51.190  33.398  52.549  0.00  0.00     0.042 C 
BRANCH  14  15
ATOM     15  C   UNL d   1      50.606  33.966  52.563  0.00  0.00     0.051 A 
ATOM     16  C   UNL d   1      50.116  34.263  53.156  0.00  0.00     0.127 A 
ATOM     17  O   UNL d   1      49.632  34.832  52.844  0.00  0.00    -0.211 OA
ATOM     18  C   UNL d   1      50.121  34.001  53.992  0.00  0.00     0.029 C 
ATOM     19  N   UNL d   1      49.801  34.901  52.082  0.00  0.00    -0.126 NA
ATOM     20  C   UNL d   1      50.405  34.373  51.880  0.00  0.00     0.111 A 
ATOM     21  C   UNL d   1      50.750  34.263  51.140  0.00  0.00     0.023 C 
ENDBRANCH  14  15
ENDBRANCH  13  14
ENDBRANCH   3  13
TORSDOF 3
ENDMDL
MODEL 6
REMARK VINA RESULT:      -6.9      2.209      3.211
REMARK  3 active torsions:
REMARK  status: ('A' for Active; 'I' for Inactive)
REMARK    1  A    between atoms: S_15  and  C_3 
REMARK    2  A    between atoms: C_5  and  C_14 
REMARK    3  A    between atoms: C_14  and  S_15 
ROOT
ATOM      1  N   UNL d   1      52.356  32.794  53.188  0.00  0.00    -0.263 N 
ATOM      2  C   UNL d   1      51.915  32.118  52.968  0.00  0.00     0.202 A 
ATOM      3  C   UNL d   1      53.112  32.525  53.382  0.00  0.00     0.202 A 
ATOM      4  N   UNL d   1      52.437  31.468  53.042  0.00  0.00    -0.121 NA
ATOM      5  S   UNL d   1      51.137  32.349  52.763  0.00  0.00    -0.047 SA
ATOM      6  N   UNL d   1      53.140  31.694  53.283  0.00  0.00    -0.121 NA
ATOM      7  C   UNL d   1      51.845  33.432  53.117  0.00  0.00     0.074 A 
ATOM      8  C   UNL d   1      51.103  33.161  52.857  0.00  0.00     0.049 A 
ATOM      9  C   UNL d   1      51.957  34.239  53.255  0.00  0.00     0.018 A 
ATOM     10  C   UNL d   1      50.490  33.703  52.742  0.00  0.00     0.008 A 
ATOM     11  C   UNL d   1      51.343  34.787  53.140  0.00  0.00     0.002 A 
ATOM     12  C   UNL d   1      50.600  34.516  52.880  0.00  0.00     0.001 A 
ENDROOT
BRANCH   3  13
ATOM     13  S   UNL d   1      53.793  33.023  53.652  0.00  0.00    -0.048 SA
BRANCH  13  14
ATOM     14  C   UNL d   1      54.296  32.745  54.232  0.00  0.00     0.042 C 
BRANCH  14  15
ATOM     15  C   UNL d   1      54.855  33.250  54.541  0.00  0.00     0.051 A 
ATOM     16  C   UNL d   1      55.512  33.634  54.223  0.00  0.00     0.127 A 
ATOM     17  O   UNL d   1      55.870  34.075  54.800  0.00  0.00    -0.211 OA
ATOM     18  C   UNL d   1      55.778  33.572  53.391  0.00  0.00     0.029 C 
ATOM     19  N   UNL d   1      55.463  33.981  55.463  0.00  0.00    -0.126 NA
ATOM     20  C   UNL d   1      54.825  33.472  55.330  0.00  0.00     0.111 A 
ATOM     21  C   UNL d   1      54.258  33.224  55.873  0.00  0.00     0.023 C 
ENDBRANCH  14  15
ENDBRANCH  13  14
ENDBRANCH   3  13
TORSDOF 3
ENDMDL
