MODEL 1
REMARK VINA RESULT:      59.8      0.000      0.000
REMARK  7 active torsions:
REMARK  status: ('A' for Active; 'I' for Inactive)
REMARK    1  A    between atoms: C_11  and  N_3 
REMARK    2  A    between atoms: C_10  and  C_4 
REMARK    3  A    between atoms: C_16  and  C_11 
REMARK    4  A    between atoms: N_13  and  C_17 
REMARK    5  A    between atoms: C_26  and  N_14 
REMARK    6  A    between atoms: C_17  and  C_16 
REMARK    7  A    between atoms: C_28  and  C_26 
ROOT
ATOM      1  C   UNL d   1     -51.124  25.297  33.306  0.00  0.00     0.137 A 
ATOM      2  N   UNL d   1     -51.957  25.240  33.306  0.00  0.00    -0.259 N 
ATOM      3  N   UNL d   1     -50.937  26.101  33.306  0.00  0.00    -0.287 N 
ATOM      4  C   UNL d   1     -50.666  24.618  33.306  0.00  0.00     0.054 A 
ATOM      5  C   UNL d   1     -52.316  24.494  33.306  0.00  0.00     0.266 A 
ATOM      6  C   UNL d   1     -52.272  26.002  33.306  0.00  0.00     0.084 A 
ATOM      7  C   UNL d   1     -51.633  26.542  33.306  0.00  0.00     0.082 A 
ATOM      8  C   UNL d   1     -51.021  23.874  33.306  0.00  0.00     0.009 A 
ATOM      9  C   UNL d   1     -51.849  23.804  33.306  0.00  0.00     0.061 A 
ATOM     10  O   UNL d   1     -53.142  24.429  33.306  0.00  0.00    -0.267 OA
ATOM     11  C   UNL d   1     -53.043  26.287  33.306  0.00  0.00     0.019 A 
ATOM     12  C   UNL d   1     -50.557  23.188  33.306  0.00  0.00     0.000 C 
ATOM     13  C   UNL d   1     -51.792  27.344  33.306  0.00  0.00     0.019 A 
ATOM     14  C   UNL d   1     -53.183  27.093  33.306  0.00  0.00     0.002 A 
ATOM     15  C   UNL d   1     -52.550  27.627  33.306  0.00  0.00     0.002 A 
ENDROOT
BRANCH   3  16
ATOM     16  C   UNL d   1     -50.315  26.639  33.306  0.00  0.00     0.125 C 
BRANCH  16  17
ATOM     17  C   UNL d   1     -49.941  26.833  34.015  0.00  0.00     0.231 C 
ATOM     18  O   UNL d   1     -50.353  26.797  34.727  0.00  0.00    -0.283 OA
BRANCH  17  19
ATOM     19  C   UNL d   1     -49.151  27.065  34.013  0.00  0.00     0.124 C 
BRANCH  19  20
ATOM     20  N   UNL d   1     -48.890  27.645  34.533  0.00  0.00    -0.297 N 
ATOM     21  C   UNL d   1     -48.276  28.120  34.237  0.00  0.00     0.100 A 
ATOM     22  C   UNL d   1     -47.960  28.727  34.705  0.00  0.00     0.100 A 
ATOM     23  N   UNL d   1     -48.252  28.862  35.466  0.00  0.00    -0.297 N 
ATOM     24  C   UNL d   1     -48.863  28.390  35.761  0.00  0.00     0.100 A 
ATOM     25  C   UNL d   1     -49.179  27.783  35.293  0.00  0.00     0.100 A 
BRANCH  23  26
ATOM     26  C   UNL d   1     -47.933  29.471  35.932  0.00  0.00     0.126 C 
BRANCH  26  27
ATOM     27  C   UNL d   1     -47.525  30.096  35.580  0.00  0.00     0.253 C 
ATOM     28  O   UNL d   1     -46.809  30.336  35.884  0.00  0.00    -0.281 OA
ENDBRANCH  26  27
ENDBRANCH  23  26
ENDBRANCH  19  20
ENDBRANCH  17  19
ENDBRANCH  16  17
ENDBRANCH   3  16
BRANCH   4  29
ATOM     29  C   UNL d   1     -49.848  24.674  33.306  0.00  0.00     0.125 C 
ATOM     30  N   UNL d   1     -49.380  24.103  33.668  0.00  0.00    -0.146 N 
ENDBRANCH   4  29
TORSDOF 7
ENDMDL
