MODEL 1
REMARK VINA RESULT:      -7.5      0.000      0.000
REMARK  5 active torsions:
REMARK  status: ('A' for Active; 'I' for Inactive)
REMARK    1  A    between atoms: S_3  and  N_1 
REMARK    2  A    between atoms: C_7  and  C_4 
REMARK    3  A    between atoms: C_8  and  C_5 
REMARK    4  A    between atoms: O_21  and  C_13 
REMARK    5  A    between atoms: O_22  and  C_15 
ROOT
ATOM      1  N   UNL d   1      54.257  32.418  53.746  0.00  0.00    -0.155 N 
ATOM      2  N   UNL d   1      54.274  31.607  53.680  0.00  0.00    -0.155 NA
ATOM      3  C   UNL d   1      53.504  31.325  53.756  0.00  0.00     0.110 A 
ATOM      4  C   UNL d   1      53.472  32.640  53.864  0.00  0.00     0.096 A 
ATOM      5  C   UNL d   1      53.014  31.965  53.869  0.00  0.00     0.041 A 
ENDROOT
BRANCH   4   6
ATOM      6  C   UNL d   1      53.199  33.409  53.959  0.00  0.00     0.021 A 
ATOM      7  C   UNL d   1      52.784  33.778  53.349  0.00  0.00     0.028 A 
ATOM      8  C   UNL d   1      52.509  34.552  53.445  0.00  0.00     0.116 A 
ATOM      9  C   UNL d   1      52.652  34.954  54.149  0.00  0.00     0.116 A 
ATOM     10  C   UNL d   1      53.068  34.586  54.759  0.00  0.00     0.026 A 
ATOM     11  C   UNL d   1      53.340  33.817  54.664  0.00  0.00     0.004 A 
BRANCH   8  12
ATOM     12  O   UNL d   1      52.094  34.920  52.835  0.00  0.00    -0.326 OA
ATOM     13  C   UNL d   1      51.627  34.473  52.325  0.00  0.00     0.181 C 
ENDBRANCH   8  12
BRANCH   9  14
ATOM     14  O   UNL d   1      52.378  35.729  54.245  0.00  0.00    -0.326 OA
ATOM     15  C   UNL d   1      52.700  36.213  54.832  0.00  0.00     0.181 C 
ENDBRANCH   9  14
ENDBRANCH   4   6
BRANCH   1  16
ATOM     16  S   UNL d   1      54.900  32.917  53.703  0.00  0.00     0.266 S 
ATOM     17  O   UNL d   1      55.564  33.432  53.675  0.00  0.00    -0.203 OA
ATOM     18  O   UNL d   1      54.821  32.954  52.886  0.00  0.00    -0.203 OA
ATOM     19  C   UNL d   1      54.981  32.884  54.513  0.00  0.00     0.165 C 
ENDBRANCH   1  16
BRANCH   3  20
ATOM     20  C   UNL d   1      53.279  30.526  53.722  0.00  0.00     0.049 A 
ATOM     21  S   UNL d   1      52.868  30.172  53.104  0.00  0.00    -0.085 SA
ATOM     22  C   UNL d   1      52.748  29.359  53.283  0.00  0.00     0.035 A 
ATOM     23  C   UNL d   1      53.096  29.229  54.022  0.00  0.00     0.007 A 
ATOM     24  C   UNL d   1      53.420  29.954  54.283  0.00  0.00     0.009 A 
ENDBRANCH   3  20
TORSDOF 5
ENDMDL
MODEL 2
REMARK VINA RESULT:      -6.8      1.755      2.557
REMARK  5 active torsions:
REMARK  status: ('A' for Active; 'I' for Inactive)
REMARK    1  A    between atoms: S_3  and  N_1 
REMARK    2  A    between atoms: C_7  and  C_4 
REMARK    3  A    between atoms: C_8  and  C_5 
REMARK    4  A    between atoms: O_21  and  C_13 
REMARK    5  A    between atoms: O_22  and  C_15 
ROOT
ATOM      1  N   UNL d   1      52.499  33.778  53.260  0.00  0.00    -0.155 N 
ATOM      2  N   UNL d   1      53.010  33.147  53.318  0.00  0.00    -0.155 NA
ATOM      3  C   UNL d   1      52.581  32.455  53.203  0.00  0.00     0.110 A 
ATOM      4  C   UNL d   1      51.748  33.475  53.109  0.00  0.00     0.096 A 
ATOM      5  C   UNL d   1      51.804  32.662  53.075  0.00  0.00     0.041 A 
ENDROOT
BRANCH   4   6
ATOM      6  C   UNL d   1      51.063  33.917  53.009  0.00  0.00     0.021 A 
ATOM      7  C   UNL d   1      50.780  34.073  52.250  0.00  0.00     0.028 A 
ATOM      8  C   UNL d   1      50.090  34.518  52.149  0.00  0.00     0.116 A 
ATOM      9  C   UNL d   1      49.686  34.804  52.807  0.00  0.00     0.116 A 
ATOM     10  C   UNL d   1      49.968  34.647  53.567  0.00  0.00     0.026 A 
ATOM     11  C   UNL d   1      50.654  34.205  53.666  0.00  0.00     0.004 A 
BRANCH   8  12
ATOM     12  O   UNL d   1      49.808  34.675  51.390  0.00  0.00    -0.326 OA
ATOM     13  C   UNL d   1      49.611  34.054  50.888  0.00  0.00     0.181 C 
ENDBRANCH   8  12
BRANCH   9  14
ATOM     14  O   UNL d   1      48.996  35.249  52.707  0.00  0.00    -0.326 OA
ATOM     15  C   UNL d   1      48.661  35.645  53.351  0.00  0.00     0.181 C 
ENDBRANCH   9  14
ENDBRANCH   4   6
BRANCH   1  16
ATOM     16  S   UNL d   1      52.696  34.566  53.338  0.00  0.00     0.266 S 
ATOM     17  O   UNL d   1      52.898  35.376  53.435  0.00  0.00    -0.203 OA
ATOM     18  O   UNL d   1      52.752  34.636  52.522  0.00  0.00    -0.203 OA
ATOM     19  C   UNL d   1      52.642  34.500  54.148  0.00  0.00     0.165 C 
ENDBRANCH   1  16
BRANCH   3  20
ATOM     20  C   UNL d   1      52.895  31.686  53.218  0.00  0.00     0.049 A 
ATOM     21  S   UNL d   1      52.542  31.020  52.888  0.00  0.00    -0.085 SA
ATOM     22  C   UNL d   1      53.035  30.352  53.023  0.00  0.00     0.035 A 
ATOM     23  C   UNL d   1      53.693  30.628  53.441  0.00  0.00     0.007 A 
ATOM     24  C   UNL d   1      53.596  31.451  53.556  0.00  0.00     0.009 A 
ENDBRANCH   3  20
TORSDOF 5
ENDMDL
MODEL 3
REMARK VINA RESULT:      -6.6      1.692      4.014
REMARK  5 active torsions:
REMARK  status: ('A' for Active; 'I' for Inactive)
REMARK    1  A    between atoms: S_3  and  N_1 
REMARK    2  A    between atoms: C_7  and  C_4 
REMARK    3  A    between atoms: C_8  and  C_5 
REMARK    4  A    between atoms: O_21  and  C_13 
REMARK    5  A    between atoms: O_22  and  C_15 
ROOT
ATOM      1  N   UNL d   1      53.327  32.855  53.493  0.00  0.00    -0.155 N 
ATOM      2  N   UNL d   1      52.901  33.505  53.254  0.00  0.00    -0.155 NA
ATOM      3  C   UNL d   1      52.128  33.267  53.105  0.00  0.00     0.110 A 
ATOM      4  C   UNL d   1      52.815  32.209  53.493  0.00  0.00     0.096 A 
ATOM      5  C   UNL d   1      52.080  32.468  53.254  0.00  0.00     0.041 A 
ENDROOT
BRANCH   4   6
ATOM      6  C   UNL d   1      53.013  31.439  53.699  0.00  0.00     0.021 A 
ATOM      7  C   UNL d   1      53.043  30.853  53.119  0.00  0.00     0.028 A 
ATOM      8  C   UNL d   1      53.242  30.077  53.326  0.00  0.00     0.116 A 
ATOM      9  C   UNL d   1      53.409  29.891  54.110  0.00  0.00     0.116 A 
ATOM     10  C   UNL d   1      53.379  30.477  54.690  0.00  0.00     0.026 A 
ATOM     11  C   UNL d   1      53.181  31.247  54.484  0.00  0.00     0.004 A 
BRANCH   8  12
ATOM     12  O   UNL d   1      53.273  29.491  52.746  0.00  0.00    -0.326 OA
ATOM     13  C   UNL d   1      52.846  29.579  52.048  0.00  0.00     0.181 C 
ENDBRANCH   8  12
BRANCH   9  14
ATOM     14  O   UNL d   1      53.608  29.115  54.318  0.00  0.00    -0.326 OA
ATOM     15  C   UNL d   1      53.457  28.838  55.082  0.00  0.00     0.181 C 
ENDBRANCH   9  14
ENDBRANCH   4   6
BRANCH   1  16
ATOM     16  S   UNL d   1      54.117  32.845  53.697  0.00  0.00     0.266 S 
ATOM     17  O   UNL d   1      54.928  32.840  53.921  0.00  0.00    -0.203 OA
ATOM     18  O   UNL d   1      54.315  32.620  52.932  0.00  0.00    -0.203 OA
ATOM     19  C   UNL d   1      53.925  33.069  54.456  0.00  0.00     0.165 C 
ENDBRANCH   1  16
BRANCH   3  20
ATOM     20  C   UNL d   1      51.512  33.763  52.848  0.00  0.00     0.049 A 
ATOM     21  S   UNL d   1      50.850  33.968  53.289  0.00  0.00    -0.085 SA
ATOM     22  C   UNL d   1      50.362  34.478  52.832  0.00  0.00     0.035 A 
ATOM     23  C   UNL d   1      50.743  34.576  52.105  0.00  0.00     0.007 A 
ATOM     24  C   UNL d   1      51.451  34.132  52.125  0.00  0.00     0.009 A 
ENDBRANCH   3  20
TORSDOF 5
ENDMDL
MODEL 4
REMARK VINA RESULT:      -6.4      1.274      1.998
REMARK  5 active torsions:
REMARK  status: ('A' for Active; 'I' for Inactive)
REMARK    1  A    between atoms: S_3  and  N_1 
REMARK    2  A    between atoms: C_7  and  C_4 
REMARK    3  A    between atoms: C_8  and  C_5 
REMARK    4  A    between atoms: O_21  and  C_13 
REMARK    5  A    between atoms: O_22  and  C_15 
ROOT
ATOM      1  N   UNL d   1      52.868  31.979  53.243  0.00  0.00    -0.155 N 
ATOM      2  N   UNL d   1      52.882  31.166  53.209  0.00  0.00    -0.155 NA
ATOM      3  C   UNL d   1      53.197  30.883  53.914  0.00  0.00     0.110 A 
ATOM      4  C   UNL d   1      53.177  32.201  53.974  0.00  0.00     0.096 A 
ATOM      5  C   UNL d   1      53.377  31.524  54.382  0.00  0.00     0.041 A 
ENDROOT
BRANCH   4   6
ATOM      6  C   UNL d   1      53.267  32.972  54.243  0.00  0.00     0.021 A 
ATOM      7  C   UNL d   1      54.018  33.259  54.427  0.00  0.00     0.028 A 
ATOM      8  C   UNL d   1      54.108  34.036  54.699  0.00  0.00     0.116 A 
ATOM      9  C   UNL d   1      53.449  34.520  54.784  0.00  0.00     0.116 A 
ATOM     10  C   UNL d   1      52.698  34.234  54.600  0.00  0.00     0.026 A 
ATOM     11  C   UNL d   1      52.608  33.463  54.330  0.00  0.00     0.004 A 
BRANCH   8  12
ATOM     12  O   UNL d   1      54.860  34.323  54.883  0.00  0.00    -0.326 OA
ATOM     13  C   UNL d   1      55.447  33.806  55.138  0.00  0.00     0.181 C 
ENDBRANCH   8  12
BRANCH   9  14
ATOM     14  O   UNL d   1      53.539  35.297  55.055  0.00  0.00    -0.326 OA
ATOM     15  C   UNL d   1      53.013  35.885  54.811  0.00  0.00     0.181 C 
ENDBRANCH   9  14
ENDBRANCH   4   6
BRANCH   1  16
ATOM     16  S   UNL d   1      52.598  32.480  52.659  0.00  0.00     0.266 S 
ATOM     17  O   UNL d   1      52.303  32.996  52.063  0.00  0.00    -0.203 OA
ATOM     18  O   UNL d   1      53.367  32.596  52.396  0.00  0.00    -0.203 OA
ATOM     19  C   UNL d   1      51.833  32.369  52.917  0.00  0.00     0.165 C 
ENDBRANCH   1  16
BRANCH   3  20
ATOM     20  C   UNL d   1      53.308  30.082  54.104  0.00  0.00     0.049 A 
ATOM     21  S   UNL d   1      53.031  29.710  54.784  0.00  0.00    -0.085 SA
ATOM     22  C   UNL d   1      53.259  28.901  54.767  0.00  0.00     0.035 A 
ATOM     23  C   UNL d   1      53.678  28.791  54.063  0.00  0.00     0.007 A 
ATOM     24  C   UNL d   1      53.702  29.524  53.663  0.00  0.00     0.009 A 
ENDBRANCH   3  20
TORSDOF 5
ENDMDL
MODEL 5
REMARK VINA RESULT:      -6.1      1.828      3.212
REMARK  5 active torsions:
REMARK  status: ('A' for Active; 'I' for Inactive)
REMARK    1  A    between atoms: S_3  and  N_1 
REMARK    2  A    between atoms: C_7  and  C_4 
REMARK    3  A    between atoms: C_8  and  C_5 
REMARK    4  A    between atoms: O_21  and  C_13 
REMARK    5  A    between atoms: O_22  and  C_15 
ROOT
ATOM      1  N   UNL d   1      52.825  32.577  53.316  0.00  0.00    -0.155 N 
ATOM      2  N   UNL d   1      53.481  32.530  53.796  0.00  0.00    -0.155 NA
ATOM      3  C   UNL d   1      53.637  33.281  54.095  0.00  0.00     0.110 A 
ATOM      4  C   UNL d   1      52.573  33.362  53.318  0.00  0.00     0.096 A 
ATOM      5  C   UNL d   1      53.075  33.789  53.798  0.00  0.00     0.041 A 
ENDROOT
BRANCH   4   6
ATOM      6  C   UNL d   1      51.927  33.660  52.907  0.00  0.00     0.021 A 
ATOM      7  C   UNL d   1      51.219  33.809  53.304  0.00  0.00     0.028 A 
ATOM      8  C   UNL d   1      50.569  34.109  52.890  0.00  0.00     0.116 A 
ATOM      9  C   UNL d   1      50.629  34.258  52.083  0.00  0.00     0.116 A 
ATOM     10  C   UNL d   1      51.337  34.109  51.686  0.00  0.00     0.026 A 
ATOM     11  C   UNL d   1      51.983  33.811  52.097  0.00  0.00     0.004 A 
BRANCH   8  12
ATOM     12  O   UNL d   1      49.861  34.257  53.287  0.00  0.00    -0.326 OA
ATOM     13  C   UNL d   1      49.793  34.916  53.775  0.00  0.00     0.181 C 
ENDBRANCH   8  12
BRANCH   9  14
ATOM     14  O   UNL d   1      49.978  34.558  51.669  0.00  0.00    -0.326 OA
ATOM     15  C   UNL d   1      49.888  34.394  50.864  0.00  0.00     0.181 C 
ENDBRANCH   9  14
ENDBRANCH   4   6
BRANCH   1  16
ATOM     16  S   UNL d   1      52.482  31.959  52.909  0.00  0.00     0.266 S 
ATOM     17  O   UNL d   1      52.119  31.319  52.502  0.00  0.00    -0.203 OA
ATOM     18  O   UNL d   1      52.923  32.148  52.242  0.00  0.00    -0.203 OA
ATOM     19  C   UNL d   1      52.042  31.769  53.568  0.00  0.00     0.165 C 
ENDBRANCH   1  16
BRANCH   3  20
ATOM     20  C   UNL d   1      54.261  33.474  54.609  0.00  0.00     0.049 A 
ATOM     21  S   UNL d   1      54.225  33.455  55.430  0.00  0.00    -0.085 SA
ATOM     22  C   UNL d   1      54.970  33.688  55.743  0.00  0.00     0.035 A 
ATOM     23  C   UNL d   1      55.456  33.849  55.094  0.00  0.00     0.007 A 
ATOM     24  C   UNL d   1      55.009  33.714  54.400  0.00  0.00     0.009 A 
ENDBRANCH   3  20
TORSDOF 5
ENDMDL
MODEL 6
REMARK VINA RESULT:      -5.1      1.911      3.633
REMARK  5 active torsions:
REMARK  status: ('A' for Active; 'I' for Inactive)
REMARK    1  A    between atoms: S_3  and  N_1 
REMARK    2  A    between atoms: C_7  and  C_4 
REMARK    3  A    between atoms: C_8  and  C_5 
REMARK    4  A    between atoms: O_21  and  C_13 
REMARK    5  A    between atoms: O_22  and  C_15 
ROOT
ATOM      1  N   UNL d   1      52.077  32.667  52.939  0.00  0.00    -0.155 N 
ATOM      2  N   UNL d   1      51.372  32.837  52.569  0.00  0.00    -0.155 NA
ATOM      3  C   UNL d   1      51.236  33.646  52.631  0.00  0.00     0.110 A 
ATOM      4  C   UNL d   1      52.379  33.375  53.234  0.00  0.00     0.096 A 
ATOM      5  C   UNL d   1      51.858  33.973  53.042  0.00  0.00     0.041 A 
ENDROOT
BRANCH   4   6
ATOM      6  C   UNL d   1      53.083  33.461  53.649  0.00  0.00     0.021 A 
ATOM      7  C   UNL d   1      53.073  33.760  54.417  0.00  0.00     0.028 A 
ATOM      8  C   UNL d   1      53.782  33.847  54.835  0.00  0.00     0.116 A 
ATOM      9  C   UNL d   1      54.495  33.635  54.483  0.00  0.00     0.116 A 
ATOM     10  C   UNL d   1      54.505  33.335  53.714  0.00  0.00     0.026 A 
ATOM     11  C   UNL d   1      53.801  33.249  53.300  0.00  0.00     0.004 A 
BRANCH   8  12
ATOM     12  O   UNL d   1      53.773  34.147  55.604  0.00  0.00    -0.326 OA
ATOM     13  C   UNL d   1      53.290  34.785  55.791  0.00  0.00     0.181 C 
ENDBRANCH   8  12
BRANCH   9  14
ATOM     14  O   UNL d   1      55.204  33.722  54.901  0.00  0.00    -0.326 OA
ATOM     15  C   UNL d   1      55.925  33.736  54.496  0.00  0.00     0.181 C 
ENDBRANCH   9  14
ENDBRANCH   4   6
BRANCH   1  16
ATOM     16  S   UNL d   1      52.419  31.930  53.006  0.00  0.00     0.266 S 
ATOM     17  O   UNL d   1      52.764  31.166  53.088  0.00  0.00    -0.203 OA
ATOM     18  O   UNL d   1      52.884  32.082  52.345  0.00  0.00    -0.203 OA
ATOM     19  C   UNL d   1      51.961  31.775  53.661  0.00  0.00     0.165 C 
ENDBRANCH   1  16
BRANCH   3  20
ATOM     20  C   UNL d   1      50.576  34.048  52.326  0.00  0.00     0.049 A 
ATOM     21  S   UNL d   1      50.006  34.438  52.773  0.00  0.00    -0.085 SA
ATOM     22  C   UNL d   1      49.433  34.772  52.257  0.00  0.00     0.035 A 
ATOM     23  C   UNL d   1      49.668  34.576  51.489  0.00  0.00     0.007 A 
ATOM     24  C   UNL d   1      50.373  34.130  51.543  0.00  0.00     0.009 A 
ENDBRANCH   3  20
TORSDOF 5
ENDMDL
MODEL 7
REMARK VINA RESULT:      -5.0      2.165      4.166
REMARK  5 active torsions:
REMARK  status: ('A' for Active; 'I' for Inactive)
REMARK    1  A    between atoms: S_3  and  N_1 
REMARK    2  A    between atoms: C_7  and  C_4 
REMARK    3  A    between atoms: C_8  and  C_5 
REMARK    4  A    between atoms: O_21  and  C_13 
REMARK    5  A    between atoms: O_22  and  C_15 
ROOT
ATOM      1  N   UNL d   1      52.133  34.536  53.146  0.00  0.00    -0.155 N 
ATOM      2  N   UNL d   1      51.458  34.967  52.999  0.00  0.00    -0.155 NA
ATOM      3  C   UNL d   1      50.822  34.447  52.966  0.00  0.00     0.110 A 
ATOM      4  C   UNL d   1      51.913  33.744  53.205  0.00  0.00     0.096 A 
ATOM      5  C   UNL d   1      51.107  33.695  53.094  0.00  0.00     0.041 A 
ENDROOT
BRANCH   4   6
ATOM      6  C   UNL d   1      52.420  33.114  53.352  0.00  0.00     0.021 A 
ATOM      7  C   UNL d   1      52.718  32.993  54.112  0.00  0.00     0.028 A 
ATOM      8  C   UNL d   1      53.229  32.359  54.259  0.00  0.00     0.116 A 
ATOM      9  C   UNL d   1      53.439  31.851  53.647  0.00  0.00     0.116 A 
ATOM     10  C   UNL d   1      53.142  31.972  52.887  0.00  0.00     0.026 A 
ATOM     11  C   UNL d   1      52.635  32.601  52.741  0.00  0.00     0.004 A 
BRANCH   8  12
ATOM     12  O   UNL d   1      53.526  32.238  55.019  0.00  0.00    -0.326 OA
ATOM     13  C   UNL d   1      54.107  32.738  55.319  0.00  0.00     0.181 C 
ENDBRANCH   8  12
BRANCH   9  14
ATOM     14  O   UNL d   1      53.950  31.216  53.795  0.00  0.00    -0.326 OA
ATOM     15  C   UNL d   1      53.873  30.514  53.366  0.00  0.00     0.181 C 
ENDBRANCH   9  14
ENDBRANCH   4   6
BRANCH   1  16
ATOM     16  S   UNL d   1      52.888  34.836  53.222  0.00  0.00     0.266 S 
ATOM     17  O   UNL d   1      53.663  35.149  53.315  0.00  0.00    -0.203 OA
ATOM     18  O   UNL d   1      53.065  34.593  52.457  0.00  0.00    -0.203 OA
ATOM     19  C   UNL d   1      52.717  35.078  53.981  0.00  0.00     0.165 C 
ENDBRANCH   1  16
BRANCH   3  20
ATOM     20  C   UNL d   1      50.031  34.661  52.826  0.00  0.00     0.049 A 
ATOM     21  S   UNL d   1      49.595  34.465  52.157  0.00  0.00    -0.085 SA
ATOM     22  C   UNL d   1      48.821  34.787  52.229  0.00  0.00     0.035 A 
ATOM     23  C   UNL d   1      48.799  35.181  52.956  0.00  0.00     0.007 A 
ATOM     24  C   UNL d   1      49.550  35.098  53.315  0.00  0.00     0.009 A 
ENDBRANCH   3  20
TORSDOF 5
ENDMDL
