MODEL 1
REMARK VINA RESULT:      -6.2      0.000      0.000
REMARK  5 active torsions:
REMARK  status: ('A' for Active; 'I' for Inactive)
REMARK    1  A    between atoms: N_2  and  S_1 
REMARK    2  A    between atoms: C_4  and  S_1 
REMARK    3  A    between atoms: C_3  and  N_2 
REMARK    4  A    between atoms: O_19  and  C_13 
REMARK    5  A    between atoms: C_20  and  O_19 
ROOT
ATOM      1  S   UNL d   1     -47.125  13.759  22.685  0.00  0.00     0.327 S 
ATOM      2  O   UNL d   1     -46.758  14.298  23.192  0.00  0.00    -0.186 OA
ATOM      3  O   UNL d   1     -47.495  13.221  22.178  0.00  0.00    -0.186 OA
ENDROOT
BRANCH   1   4
ATOM      4  N   UNL d   1     -46.423  13.325  22.631  0.00  0.00    -0.314 NA
BRANCH   4   5
ATOM      5  C   UNL d   1     -45.720  12.896  22.564  0.00  0.00     0.185 A 
ATOM      6  C   UNL d   1     -45.140  13.139  22.032  0.00  0.00     0.048 A 
ATOM      7  C   UNL d   1     -44.444  12.715  21.966  0.00  0.00     0.060 A 
ATOM      8 CL   UNL d   1     -43.862  12.956  21.435  0.00  0.00    -0.082 Cl
ATOM      9  C   UNL d   1     -44.323  12.045  22.432  0.00  0.00     0.015 A 
ATOM     10  C   UNL d   1     -44.905  11.803  22.964  0.00  0.00     0.046 A 
ATOM     11  C   UNL d   1     -45.609  12.232  23.031  0.00  0.00     0.226 A 
ATOM     12  O   UNL d   1     -46.191  11.991  23.563  0.00  0.00    -0.284 OA
ENDBRANCH   4   5
ENDBRANCH   1   4
BRANCH   1  13
ATOM     13  C   UNL d   1     -47.829  14.189  22.737  0.00  0.00     0.117 A 
ATOM     14  C   UNL d   1     -47.842  14.979  22.510  0.00  0.00     0.016 A 
ATOM     15  C   UNL d   1     -48.543  15.414  22.559  0.00  0.00     0.025 A 
ATOM     16  C   UNL d   1     -49.236  15.051  22.840  0.00  0.00     0.100 A 
ATOM     17  C   UNL d   1     -49.214  14.253  23.067  0.00  0.00     0.025 A 
ATOM     18  C   UNL d   1     -48.513  13.825  23.015  0.00  0.00     0.016 A 
BRANCH  16  19
ATOM     19  O   UNL d   1     -49.940  15.481  22.891  0.00  0.00    -0.305 OA
BRANCH  19  20
ATOM     20  C   UNL d   1     -50.256  15.664  23.629  0.00  0.00     0.123 C 
ATOM     21  C   UNL d   1     -51.039  15.922  23.698  0.00  0.00     0.029 C 
ENDBRANCH  19  20
ENDBRANCH  16  19
ENDBRANCH   1  13
TORSDOF 5
ENDMDL
MODEL 2
REMARK VINA RESULT:      -5.1      7.702     10.055
REMARK  5 active torsions:
REMARK  status: ('A' for Active; 'I' for Inactive)
REMARK    1  A    between atoms: N_2  and  S_1 
REMARK    2  A    between atoms: C_4  and  S_1 
REMARK    3  A    between atoms: C_3  and  N_2 
REMARK    4  A    between atoms: O_19  and  C_13 
REMARK    5  A    between atoms: C_20  and  O_19 
ROOT
ATOM      1  S   UNL d   1     -39.337  14.676  18.313  0.00  0.00     0.327 S 
ATOM      2  O   UNL d   1     -39.816  14.003  18.318  0.00  0.00    -0.186 OA
ATOM      3  O   UNL d   1     -38.856  15.349  18.305  0.00  0.00    -0.186 OA
ENDROOT
BRANCH   1   4
ATOM      4  N   UNL d   1     -39.683  14.934  19.018  0.00  0.00    -0.314 NA
BRANCH   4   5
ATOM      5  C   UNL d   1     -40.024  15.182  19.729  0.00  0.00     0.185 A 
ATOM      6  C   UNL d   1     -39.703  14.935  20.446  0.00  0.00     0.048 A 
ATOM      7  C   UNL d   1     -40.040  15.181  21.149  0.00  0.00     0.060 A 
ATOM      8 CL   UNL d   1     -39.720  14.934  21.869  0.00  0.00    -0.082 Cl
ATOM      9  C   UNL d   1     -40.700  15.675  21.141  0.00  0.00     0.015 A 
ATOM     10  C   UNL d   1     -41.020  15.922  20.421  0.00  0.00     0.046 A 
ATOM     11  C   UNL d   1     -40.679  15.674  19.710  0.00  0.00     0.226 A 
ATOM     12  O   UNL d   1     -40.998  15.920  18.991  0.00  0.00    -0.284 OA
ENDBRANCH   4   5
ENDBRANCH   1   4
BRANCH   1  13
ATOM     13  C   UNL d   1     -38.987  14.422  17.608  0.00  0.00     0.117 A 
ATOM     14  C   UNL d   1     -39.138  13.664  17.328  0.00  0.00     0.016 A 
ATOM     15  C   UNL d   1     -38.791  13.405  16.624  0.00  0.00     0.025 A 
ATOM     16  C   UNL d   1     -38.289  13.914  16.199  0.00  0.00     0.100 A 
ATOM     17  C   UNL d   1     -38.143  14.677  16.488  0.00  0.00     0.025 A 
ATOM     18  C   UNL d   1     -38.491  14.929  17.190  0.00  0.00     0.016 A 
BRANCH  16  19
ATOM     19  O   UNL d   1     -37.940  13.660  15.493  0.00  0.00    -0.305 OA
BRANCH  19  20
ATOM     20  C   UNL d   1     -38.107  14.051  14.788  0.00  0.00     0.123 C 
ATOM     21  C   UNL d   1     -37.946  13.691  14.061  0.00  0.00     0.029 C 
ENDBRANCH  19  20
ENDBRANCH  16  19
ENDBRANCH   1  13
TORSDOF 5
ENDMDL
