MODEL 1
REMARK VINA RESULT:      -4.6      0.000      0.000
REMARK  4 active torsions:
REMARK  status: ('A' for Active; 'I' for Inactive)
REMARK    1  A    between atoms: C_7  and  N_1 
REMARK    2  A    between atoms: C_6  and  C_8 
REMARK    3  A    between atoms: O_16  and  C_6 
REMARK    4  A    between atoms: C_17  and  O_16 
ROOT
ATOM      1  C   UNL d   1      56.253   0.099  32.994  0.00  0.00     0.070 A 
ATOM      2  C   UNL d   1      57.021  -0.306  31.592  0.00  0.00     0.064 A 
ATOM      3  C   UNL d   1      56.384   0.681  32.418  0.00  0.00     0.018 A 
ATOM      4  C   UNL d   1      56.505  -0.673  32.865  0.00  0.00     0.018 A 
ATOM      5  C   UNL d   1      56.770   0.482  31.711  0.00  0.00     0.007 A 
ATOM      6  C   UNL d   1      56.887  -0.875  32.170  0.00  0.00     0.007 A 
ENDROOT
BRANCH   1   7
ATOM      7  N   UNL d   1      55.869   0.290  33.699  0.00  0.00    -0.242 N 
ATOM      8  C   UNL d   1      56.242   0.555  34.400  0.00  0.00     0.267 A 
ATOM      9  C   UNL d   1      55.660   0.682  34.971  0.00  0.00     0.066 A 
ATOM     10  O   UNL d   1      57.049   0.679  34.537  0.00  0.00    -0.267 OA
ATOM     11  C   UNL d   1      54.926   0.498  34.631  0.00  0.00     0.066 A 
ATOM     12  C   UNL d   1      55.055   0.260  33.856  0.00  0.00     0.267 A 
ATOM     13  O   UNL d   1      54.434   0.033  33.348  0.00  0.00    -0.267 OA
ENDBRANCH   1   7
BRANCH   2  14
ATOM     14  C   UNL d   1      57.405  -0.507  30.892  0.00  0.00     0.300 C 
ATOM     15  O   UNL d   1      57.398  -1.309  30.631  0.00  0.00    -0.259 OA
BRANCH  14  16
ATOM     16  O   UNL d   1      57.795   0.070  30.447  0.00  0.00    -0.271 OA
BRANCH  16  17
ATOM     17  C   UNL d   1      58.256  -0.152  29.786  0.00  0.00     0.126 C 
ATOM     18  C   UNL d   1      58.705   0.420  29.411  0.00  0.00     0.029 C 
ENDBRANCH  16  17
ENDBRANCH  14  16
ENDBRANCH   2  14
TORSDOF 4
ENDMDL
MODEL 2
REMARK VINA RESULT:      -4.6      1.627      4.443
REMARK  4 active torsions:
REMARK  status: ('A' for Active; 'I' for Inactive)
REMARK    1  A    between atoms: C_7  and  N_1 
REMARK    2  A    between atoms: C_6  and  C_8 
REMARK    3  A    between atoms: O_16  and  C_6 
REMARK    4  A    between atoms: C_17  and  O_16 
ROOT
ATOM      1  C   UNL d   1      58.042   0.083  30.388  0.00  0.00     0.070 A 
ATOM      2  C   UNL d   1      56.990  -0.411  31.557  0.00  0.00     0.064 A 
ATOM      3  C   UNL d   1      57.642   0.649  30.841  0.00  0.00     0.018 A 
ATOM      4  C   UNL d   1      57.915  -0.718  30.521  0.00  0.00     0.018 A 
ATOM      5  C   UNL d   1      57.111   0.405  31.431  0.00  0.00     0.007 A 
ATOM      6  C   UNL d   1      57.392  -0.965  31.102  0.00  0.00     0.007 A 
ENDROOT
BRANCH   1   7
ATOM      7  N   UNL d   1      58.572   0.318  29.800  0.00  0.00    -0.242 N 
ATOM      8  C   UNL d   1      58.378   0.458  28.998  0.00  0.00     0.267 A 
ATOM      9  C   UNL d   1      59.065   0.682  28.600  0.00  0.00     0.066 A 
ATOM     10  O   UNL d   1      57.639   0.395  28.630  0.00  0.00    -0.267 OA
ATOM     11  C   UNL d   1      59.687   0.682  29.149  0.00  0.00     0.066 A 
ATOM     12  C   UNL d   1      59.385   0.460  29.879  0.00  0.00     0.267 A 
ATOM     13  O   UNL d   1      59.860   0.401  30.561  0.00  0.00    -0.267 OA
ENDBRANCH   1   7
BRANCH   2  14
ATOM     14  C   UNL d   1      56.464  -0.657  32.141  0.00  0.00     0.300 C 
ATOM     15  O   UNL d   1      56.314  -1.480  32.245  0.00  0.00    -0.259 OA
BRANCH  14  16
ATOM     16  O   UNL d   1      56.085  -0.103  32.624  0.00  0.00    -0.271 OA
BRANCH  16  17
ATOM     17  C   UNL d   1      55.495  -0.351  33.161  0.00  0.00     0.126 C 
ATOM     18  C   UNL d   1      55.173   0.201  33.673  0.00  0.00     0.029 C 
ENDBRANCH  16  17
ENDBRANCH  14  16
ENDBRANCH   2  14
TORSDOF 4
ENDMDL
MODEL 3
REMARK VINA RESULT:      -3.8      1.243      1.917
REMARK  4 active torsions:
REMARK  status: ('A' for Active; 'I' for Inactive)
REMARK    1  A    between atoms: C_7  and  N_1 
REMARK    2  A    between atoms: C_6  and  C_8 
REMARK    3  A    between atoms: O_16  and  C_6 
REMARK    4  A    between atoms: C_17  and  O_16 
ROOT
ATOM      1  C   UNL d   1      56.984  -0.230  31.828  0.00  0.00     0.070 A 
ATOM      2  C   UNL d   1      57.792   0.059  30.420  0.00  0.00     0.064 A 
ATOM      3  C   UNL d   1      56.974   0.532  31.501  0.00  0.00     0.018 A 
ATOM      4  C   UNL d   1      57.393  -0.835  31.452  0.00  0.00     0.018 A 
ATOM      5  C   UNL d   1      57.379   0.682  30.793  0.00  0.00     0.007 A 
ATOM      6  C   UNL d   1      57.795  -0.693  30.753  0.00  0.00     0.007 A 
ENDROOT
BRANCH   1   7
ATOM      7  N   UNL d   1      56.583  -0.386  32.533  0.00  0.00    -0.242 N 
ATOM      8  C   UNL d   1      56.028  -1.000  32.651  0.00  0.00     0.267 A 
ATOM      9  C   UNL d   1      55.760  -0.962  33.430  0.00  0.00     0.066 A 
ATOM     10  O   UNL d   1      55.766  -1.568  32.107  0.00  0.00    -0.267 OA
ATOM     11  C   UNL d   1      56.145  -0.327  33.799  0.00  0.00     0.066 A 
ATOM     12  C   UNL d   1      56.646   0.023  33.251  0.00  0.00     0.267 A 
ATOM     13  O   UNL d   1      57.122   0.682  33.436  0.00  0.00    -0.267 OA
ENDBRANCH   1   7
BRANCH   2  14
ATOM     14  C   UNL d   1      58.195   0.204  29.717  0.00  0.00     0.300 C 
ATOM     15  O   UNL d   1      57.759   0.311  29.003  0.00  0.00    -0.259 OA
BRANCH  14  16
ATOM     16  O   UNL d   1      59.021   0.244  29.708  0.00  0.00    -0.271 OA
BRANCH  16  17
ATOM     17  C   UNL d   1      59.418   0.532  29.032  0.00  0.00     0.126 C 
ATOM     18  C   UNL d   1      60.231   0.448  28.988  0.00  0.00     0.029 C 
ENDBRANCH  16  17
ENDBRANCH  14  16
ENDBRANCH   2  14
TORSDOF 4
ENDMDL
MODEL 4
REMARK VINA RESULT:      -3.5      1.372      4.033
REMARK  4 active torsions:
REMARK  status: ('A' for Active; 'I' for Inactive)
REMARK    1  A    between atoms: C_7  and  N_1 
REMARK    2  A    between atoms: C_6  and  C_8 
REMARK    3  A    between atoms: O_16  and  C_6 
REMARK    4  A    between atoms: C_17  and  O_16 
ROOT
ATOM      1  C   UNL d   1      57.535   0.055  31.168  0.00  0.00     0.070 A 
ATOM      2  C   UNL d   1      56.483  -0.195  32.414  0.00  0.00     0.064 A 
ATOM      3  C   UNL d   1      57.352   0.682  31.679  0.00  0.00     0.018 A 
ATOM      4  C   UNL d   1      57.193  -0.684  31.283  0.00  0.00     0.018 A 
ATOM      5  C   UNL d   1      56.824   0.561  32.308  0.00  0.00     0.007 A 
ATOM      6  C   UNL d   1      56.671  -0.809  31.901  0.00  0.00     0.007 A 
ENDROOT
BRANCH   1   7
ATOM      7  N   UNL d   1      58.059   0.168  30.541  0.00  0.00    -0.242 N 
ATOM      8  C   UNL d   1      58.882   0.016  30.561  0.00  0.00     0.267 A 
ATOM      9  C   UNL d   1      59.198   0.202  29.822  0.00  0.00     0.066 A 
ATOM     10  O   UNL d   1      59.336  -0.272  31.191  0.00  0.00    -0.267 OA
ATOM     11  C   UNL d   1      58.578   0.470  29.341  0.00  0.00     0.066 A 
ATOM     12  C   UNL d   1      57.885   0.449  29.780  0.00  0.00     0.267 A 
ATOM     13  O   UNL d   1      57.148   0.682  29.467  0.00  0.00    -0.267 OA
ENDBRANCH   1   7
BRANCH   2  14
ATOM     14  C   UNL d   1      55.959  -0.318  33.036  0.00  0.00     0.300 C 
ATOM     15  O   UNL d   1      56.001  -1.035  33.478  0.00  0.00    -0.259 OA
BRANCH  14  16
ATOM     16  O   UNL d   1      55.394   0.254  33.228  0.00  0.00    -0.271 OA
BRANCH  16  17
ATOM     17  C   UNL d   1      54.988   0.212  33.957  0.00  0.00     0.126 C 
ATOM     18  C   UNL d   1      54.237   0.534  34.007  0.00  0.00     0.029 C 
ENDBRANCH  16  17
ENDBRANCH  14  16
ENDBRANCH   2  14
TORSDOF 4
ENDMDL
MODEL 5
REMARK VINA RESULT:      -2.1      9.592      9.975
REMARK  4 active torsions:
REMARK  status: ('A' for Active; 'I' for Inactive)
REMARK    1  A    between atoms: C_7  and  N_1 
REMARK    2  A    between atoms: C_6  and  C_8 
REMARK    3  A    between atoms: O_16  and  C_6 
REMARK    4  A    between atoms: C_17  and  O_16 
ROOT
ATOM      1  C   UNL d   1      59.634  -9.119  34.311  0.00  0.00     0.070 A 
ATOM      2  C   UNL d   1      58.887  -9.505  32.893  0.00  0.00     0.064 A 
ATOM      3  C   UNL d   1      58.862  -8.853  34.172  0.00  0.00     0.018 A 
ATOM      4  C   UNL d   1      60.023  -9.571  33.746  0.00  0.00     0.018 A 
ATOM      5  C   UNL d   1      58.482  -9.045  33.460  0.00  0.00     0.007 A 
ATOM      6  C   UNL d   1      59.654  -9.764  33.041  0.00  0.00     0.007 A 
ENDROOT
BRANCH   1   7
ATOM      7  N   UNL d   1      60.019  -8.933  35.018  0.00  0.00    -0.242 N 
ATOM      8  C   UNL d   1      60.685  -8.432  35.092  0.00  0.00     0.267 A 
ATOM      9  C   UNL d   1      60.894  -8.394  35.889  0.00  0.00     0.066 A 
ATOM     10  O   UNL d   1      61.092  -8.027  34.495  0.00  0.00    -0.267 OA
ATOM     11  C   UNL d   1      60.362  -8.869  36.313  0.00  0.00     0.066 A 
ATOM     12  C   UNL d   1      59.829  -9.196  35.781  0.00  0.00     0.267 A 
ATOM     13  O   UNL d   1      59.214  -9.706  36.019  0.00  0.00    -0.267 OA
ENDBRANCH   1   7
BRANCH   2  14
ATOM     14  C   UNL d   1      58.514  -9.697  32.185  0.00  0.00     0.300 C 
ATOM     15  O   UNL d   1      57.677  -9.802  32.173  0.00  0.00    -0.259 OA
BRANCH  14  16
ATOM     16  O   UNL d   1      58.953  -9.787  31.490  0.00  0.00    -0.271 OA
BRANCH  16  17
ATOM     17  C   UNL d   1      58.566  -9.794  30.749  0.00  0.00     0.126 C 
ATOM     18  C   UNL d   1      59.012  -9.673  30.073  0.00  0.00     0.029 C 
ENDBRANCH  16  17
ENDBRANCH  14  16
ENDBRANCH   2  14
TORSDOF 4
ENDMDL
