MODEL 1
REMARK VINA RESULT:      47.1      0.000      0.000
REMARK  7 active torsions:
REMARK  status: ('A' for Active; 'I' for Inactive)
REMARK    1  A    between atoms: C_3  and  N_1 
REMARK       I    between atoms: C_2  and  N_4 
REMARK    2  A    between atoms: C_11  and  C_2 
REMARK    3  A    between atoms: N_4  and  C_12 
REMARK    4  A    between atoms: O_5  and  C_11 
REMARK    5  A    between atoms: C_6  and  O_5 
REMARK    6  A    between atoms: O_15  and  C_8 
REMARK    7  A    between atoms: C_20  and  O_15 
ROOT
ATOM      1  C   UNL d   1      13.397  12.465  -3.746  0.00  0.00     0.353 C 
ATOM      2  N   UNL d   1      13.413  13.202  -4.113  0.00  0.00    -0.363 NA
ATOM      3  O   UNL d   1      13.507  11.779  -4.192  0.00  0.00    -0.249 OA
ENDROOT
BRANCH   1   4
ATOM      4  C   UNL d   1      13.270  12.406  -2.935  0.00  0.00     0.199 C 
BRANCH   4   5
ATOM      5  O   UNL d   1      13.721  11.882  -2.478  0.00  0.00    -0.297 OA
BRANCH   5   6
ATOM      6  C   UNL d   1      13.621  11.848  -1.661  0.00  0.00     0.123 A 
ATOM      7  C   UNL d   1      14.285  11.842  -1.160  0.00  0.00     0.123 A 
ATOM      8  C   UNL d   1      14.186  11.807  -0.343  0.00  0.00     0.027 A 
ATOM      9  C   UNL d   1      13.428  11.779  -0.024  0.00  0.00     0.002 A 
ATOM     10  C   UNL d   1      12.770  11.785  -0.520  0.00  0.00     0.002 A 
ATOM     11  C   UNL d   1      12.863  11.820  -1.342  0.00  0.00     0.027 A 
BRANCH   7  12
ATOM     12  O   UNL d   1      15.049  11.870  -1.486  0.00  0.00    -0.303 OA
BRANCH  12  13
ATOM     13  C   UNL d   1      15.686  12.107  -1.018  0.00  0.00     0.123 C 
ATOM     14  C   UNL d   1      16.088  12.805  -1.190  0.00  0.00     0.029 C 
ENDBRANCH  12  13
ENDBRANCH   7  12
ENDBRANCH   5   6
ENDBRANCH   4   5
ENDBRANCH   1   4
BRANCH   2  15
ATOM     15  C   UNL d   1      13.429  13.942  -4.472  0.00  0.00     0.135 A 
ATOM     16  C   UNL d   1      13.534  14.011  -5.284  0.00  0.00     0.034 A 
ATOM     17  C   UNL d   1      13.549  14.752  -5.643  0.00  0.00     0.020 A 
ATOM     18  C   UNL d   1      13.459  15.436  -5.186  0.00  0.00     0.064 A 
ATOM     19  C   UNL d   1      13.353  15.374  -4.370  0.00  0.00     0.020 A 
ATOM     20  C   UNL d   1      13.337  14.629  -4.003  0.00  0.00     0.034 A 
BRANCH  18  21
ATOM     21  N   UNL d   1      13.474  16.176  -5.545  0.00  0.00    -0.304 N 
ATOM     22  C   UNL d   1      14.190  16.580  -5.621  0.00  0.00     0.080 A 
ATOM     23  C   UNL d   1      14.209  17.314  -5.976  0.00  0.00     0.019 A 
ATOM     24  C   UNL d   1      13.511  17.656  -6.263  0.00  0.00     0.003 A 
ATOM     25  C   UNL d   1      12.796  17.252  -6.187  0.00  0.00     0.019 A 
ATOM     26  C   UNL d   1      12.769  16.506  -5.827  0.00  0.00     0.080 A 
ENDBRANCH  18  21
ENDBRANCH   2  15
TORSDOF 7
ENDMDL
