MODEL 1
REMARK VINA RESULT:      -3.8      0.000      0.000
REMARK  3 active torsions:
REMARK  status: ('A' for Active; 'I' for Inactive)
REMARK    1  A    between atoms: C_2  and  N_1 
REMARK    2  A    between atoms: O_14  and  C_5 
REMARK    3  A    between atoms: O_15  and  C_12 
ROOT
ATOM      1  C   UNL d   1      56.351   0.110  32.945  0.00  0.00     0.092 A 
ATOM      2  C   UNL d   1      56.322  -0.673  32.714  0.00  0.00     0.112 A 
ATOM      3  C   UNL d   1      56.630  -0.897  31.981  0.00  0.00     0.050 A 
ATOM      4  C   UNL d   1      56.683   0.682  32.458  0.00  0.00     0.022 A 
ATOM      5  C   UNL d   1      56.964  -0.324  31.490  0.00  0.00     0.096 A 
ATOM      6  C   UNL d   1      56.990   0.466  31.731  0.00  0.00     0.026 A 
ENDROOT
BRANCH   1   7
ATOM      7  N   UNL d   1      56.042   0.336  33.681  0.00  0.00    -0.240 N 
ATOM      8  C   UNL d   1      55.252   0.471  33.864  0.00  0.00     0.267 A 
ATOM      9  C   UNL d   1      55.198   0.682  34.651  0.00  0.00     0.066 A 
ATOM     10  O   UNL d   1      54.617   0.403  33.336  0.00  0.00    -0.267 OA
ATOM     11  C   UNL d   1      55.964   0.682  34.971  0.00  0.00     0.066 A 
ATOM     12  C   UNL d   1      56.486   0.468  34.371  0.00  0.00     0.267 A 
ATOM     13  O   UNL d   1      57.361   0.393  34.452  0.00  0.00    -0.267 OA
ENDBRANCH   1   7
BRANCH   2  14
ATOM     14  O   UNL d   1      55.987  -1.250  33.206  0.00  0.00    -0.327 OA
ATOM     15  C   UNL d   1      55.909  -2.030  32.943  0.00  0.00     0.181 C 
ENDBRANCH   2  14
BRANCH   5  16
ATOM     16  O   UNL d   1      57.276  -0.543  30.750  0.00  0.00    -0.328 OA
ATOM     17  C   UNL d   1      58.063  -0.375  30.561  0.00  0.00     0.181 C 
ENDBRANCH   5  16
TORSDOF 3
ENDMDL
MODEL 2
REMARK VINA RESULT:      -3.2      1.213      2.052
REMARK  3 active torsions:
REMARK  status: ('A' for Active; 'I' for Inactive)
REMARK    1  A    between atoms: C_2  and  N_1 
REMARK    2  A    between atoms: O_14  and  C_5 
REMARK    3  A    between atoms: O_15  and  C_12 
ROOT
ATOM      1  C   UNL d   1      56.794  -0.257  32.253  0.00  0.00     0.092 A 
ATOM      2  C   UNL d   1      57.351   0.229  32.601  0.00  0.00     0.112 A 
ATOM      3  C   UNL d   1      57.964   0.544  32.145  0.00  0.00     0.050 A 
ATOM      4  C   UNL d   1      56.834  -0.439  31.454  0.00  0.00     0.022 A 
ATOM      5  C   UNL d   1      58.006   0.362  31.342  0.00  0.00     0.096 A 
ATOM      6  C   UNL d   1      57.439  -0.130  30.997  0.00  0.00     0.026 A 
ENDROOT
BRANCH   1   7
ATOM      7  N   UNL d   1      56.178  -0.574  32.710  0.00  0.00    -0.240 N 
ATOM      8  C   UNL d   1      56.122  -1.342  32.997  0.00  0.00     0.267 A 
ATOM      9  C   UNL d   1      55.426  -1.413  33.418  0.00  0.00     0.066 A 
ATOM     10  O   UNL d   1      56.681  -1.942  32.879  0.00  0.00    -0.267 OA
ATOM     11  C   UNL d   1      55.035  -0.681  33.397  0.00  0.00     0.066 A 
ATOM     12  C   UNL d   1      55.501  -0.162  32.958  0.00  0.00     0.267 A 
ATOM     13  O   UNL d   1      55.309   0.682  32.787  0.00  0.00    -0.267 OA
ENDBRANCH   1   7
BRANCH   2  14
ATOM     14  O   UNL d   1      57.310   0.413  33.408  0.00  0.00    -0.327 OA
ATOM     15  C   UNL d   1      57.983   0.677  33.811  0.00  0.00     0.181 C 
ENDBRANCH   2  14
BRANCH   5  16
ATOM     16  O   UNL d   1      58.621   0.677  30.877  0.00  0.00    -0.328 OA
ATOM     17  C   UNL d   1      58.565   0.676  30.052  0.00  0.00     0.181 C 
ENDBRANCH   5  16
TORSDOF 3
ENDMDL
MODEL 3
REMARK VINA RESULT:      -2.8      2.030      4.473
REMARK  3 active torsions:
REMARK  status: ('A' for Active; 'I' for Inactive)
REMARK    1  A    between atoms: C_2  and  N_1 
REMARK    2  A    between atoms: O_14  and  C_5 
REMARK    3  A    between atoms: O_15  and  C_12 
ROOT
ATOM      1  C   UNL d   1      58.237   0.099  30.253  0.00  0.00     0.092 A 
ATOM      2  C   UNL d   1      58.044  -0.688  30.361  0.00  0.00     0.112 A 
ATOM      3  C   UNL d   1      57.520  -0.905  30.961  0.00  0.00     0.050 A 
ATOM      4  C   UNL d   1      57.916   0.681  30.735  0.00  0.00     0.022 A 
ATOM      5  C   UNL d   1      57.197  -0.321  31.446  0.00  0.00     0.096 A 
ATOM      6  C   UNL d   1      57.396   0.473  31.332  0.00  0.00     0.026 A 
ENDROOT
BRANCH   1   7
ATOM      7  N   UNL d   1      58.763   0.318  29.650  0.00  0.00    -0.240 N 
ATOM      8  C   UNL d   1      59.578   0.401  29.713  0.00  0.00     0.267 A 
ATOM      9  C   UNL d   1      59.876   0.624  28.987  0.00  0.00     0.066 A 
ATOM     10  O   UNL d   1      60.023   0.279  30.402  0.00  0.00    -0.267 OA
ATOM     11  C   UNL d   1      59.241   0.682  28.455  0.00  0.00     0.066 A 
ATOM     12  C   UNL d   1      58.552   0.493  28.866  0.00  0.00     0.267 A 
ATOM     13  O   UNL d   1      57.738   0.480  28.528  0.00  0.00    -0.267 OA
ENDBRANCH   1   7
BRANCH   2  14
ATOM     14  O   UNL d   1      58.368  -1.276  29.874  0.00  0.00    -0.327 OA
ATOM     15  C   UNL d   1      58.136  -2.065  29.960  0.00  0.00     0.181 C 
ENDBRANCH   2  14
BRANCH   5  16
ATOM     16  O   UNL d   1      56.668  -0.533  32.053  0.00  0.00    -0.328 OA
ATOM     17  C   UNL d   1      56.616  -0.077  32.741  0.00  0.00     0.181 C 
ENDBRANCH   5  16
TORSDOF 3
ENDMDL
MODEL 4
REMARK VINA RESULT:      -2.7      2.014      4.301
REMARK  3 active torsions:
REMARK  status: ('A' for Active; 'I' for Inactive)
REMARK    1  A    between atoms: C_2  and  N_1 
REMARK    2  A    between atoms: O_14  and  C_5 
REMARK    3  A    between atoms: O_15  and  C_12 
ROOT
ATOM      1  C   UNL d   1      58.158   0.092  30.235  0.00  0.00     0.092 A 
ATOM      2  C   UNL d   1      58.002  -0.701  30.353  0.00  0.00     0.112 A 
ATOM      3  C   UNL d   1      57.459  -0.932  30.931  0.00  0.00     0.050 A 
ATOM      4  C   UNL d   1      57.782   0.667  30.683  0.00  0.00     0.022 A 
ATOM      5  C   UNL d   1      57.080  -0.356  31.383  0.00  0.00     0.096 A 
ATOM      6  C   UNL d   1      57.242   0.445  31.258  0.00  0.00     0.026 A 
ENDROOT
BRANCH   1   7
ATOM      7  N   UNL d   1      58.703   0.326  29.654  0.00  0.00    -0.240 N 
ATOM      8  C   UNL d   1      58.548   0.464  28.859  0.00  0.00     0.267 A 
ATOM      9  C   UNL d   1      59.243   0.682  28.491  0.00  0.00     0.066 A 
ATOM     10  O   UNL d   1      57.808   0.393  28.494  0.00  0.00    -0.267 OA
ATOM     11  C   UNL d   1      59.848   0.682  29.060  0.00  0.00     0.066 A 
ATOM     12  C   UNL d   1      59.513   0.461  29.780  0.00  0.00     0.267 A 
ATOM     13  O   UNL d   1      59.944   0.385  30.546  0.00  0.00    -0.267 OA
ENDBRANCH   1   7
BRANCH   2  14
ATOM     14  O   UNL d   1      58.383  -1.281  29.899  0.00  0.00    -0.327 OA
ATOM     15  C   UNL d   1      58.134  -2.069  29.934  0.00  0.00     0.181 C 
ENDBRANCH   2  14
BRANCH   5  16
ATOM     16  O   UNL d   1      56.532  -0.582  31.967  0.00  0.00    -0.328 OA
ATOM     17  C   UNL d   1      56.598  -0.291  32.738  0.00  0.00     0.181 C 
ENDBRANCH   5  16
TORSDOF 3
ENDMDL
MODEL 5
REMARK VINA RESULT:      -1.8      3.468      5.066
REMARK  3 active torsions:
REMARK  status: ('A' for Active; 'I' for Inactive)
REMARK    1  A    between atoms: C_2  and  N_1 
REMARK    2  A    between atoms: O_14  and  C_5 
REMARK    3  A    between atoms: O_15  and  C_12 
ROOT
ATOM      1  C   UNL d   1      59.142  -0.921  29.301  0.00  0.00     0.092 A 
ATOM      2  C   UNL d   1      59.935  -0.788  29.451  0.00  0.00     0.112 A 
ATOM      3  C   UNL d   1      60.500  -1.321  29.170  0.00  0.00     0.050 A 
ATOM      4  C   UNL d   1      58.897  -1.578  28.875  0.00  0.00     0.022 A 
ATOM      5  C   UNL d   1      60.257  -1.982  28.741  0.00  0.00     0.096 A 
ATOM      6  C   UNL d   1      59.453  -2.109  28.594  0.00  0.00     0.026 A 
ENDROOT
BRANCH   1   7
ATOM      7  N   UNL d   1      58.572  -0.387  29.583  0.00  0.00    -0.240 N 
ATOM      8  C   UNL d   1      58.127  -0.457  30.270  0.00  0.00     0.267 A 
ATOM      9  C   UNL d   1      57.636   0.192  30.331  0.00  0.00     0.066 A 
ATOM     10  O   UNL d   1      58.171  -1.085  30.810  0.00  0.00    -0.267 OA
ATOM     11  C   UNL d   1      57.772   0.681  29.674  0.00  0.00     0.066 A 
ATOM     12  C   UNL d   1      58.351   0.323  29.211  0.00  0.00     0.267 A 
ATOM     13  O   UNL d   1      58.676   0.641  28.455  0.00  0.00    -0.267 OA
ENDBRANCH   1   7
BRANCH   2  14
ATOM     14  O   UNL d   1      60.180  -0.125  29.882  0.00  0.00    -0.327 OA
ATOM     15  C   UNL d   1      60.986   0.020  30.005  0.00  0.00     0.181 C 
ENDBRANCH   2  14
BRANCH   5  16
ATOM     16  O   UNL d   1      60.822  -2.522  28.456  0.00  0.00    -0.328 OA
ATOM     17  C   UNL d   1      60.841  -3.298  28.741  0.00  0.00     0.181 C 
ENDBRANCH   5  16
TORSDOF 3
ENDMDL
MODEL 6
REMARK VINA RESULT:      -1.6      2.820      5.342
REMARK  3 active torsions:
REMARK  status: ('A' for Active; 'I' for Inactive)
REMARK    1  A    between atoms: C_2  and  N_1 
REMARK    2  A    between atoms: O_14  and  C_5 
REMARK    3  A    between atoms: O_15  and  C_12 
ROOT
ATOM      1  C   UNL d   1      58.661  -1.153  29.648  0.00  0.00     0.092 A 
ATOM      2  C   UNL d   1      58.641  -0.383  29.373  0.00  0.00     0.112 A 
ATOM      3  C   UNL d   1      58.163   0.176  29.749  0.00  0.00     0.050 A 
ATOM      4  C   UNL d   1      58.212  -1.380  30.297  0.00  0.00     0.022 A 
ATOM      5  C   UNL d   1      57.711  -0.051  30.401  0.00  0.00     0.096 A 
ATOM      6  C   UNL d   1      57.737  -0.831  30.674  0.00  0.00     0.026 A 
ENDROOT
BRANCH   1   7
ATOM      7  N   UNL d   1      59.140  -1.715  29.271  0.00  0.00    -0.240 N 
ATOM      8  C   UNL d   1      59.952  -1.811  29.360  0.00  0.00     0.267 A 
ATOM      9  C   UNL d   1      60.196  -2.429  28.887  0.00  0.00     0.066 A 
ATOM     10  O   UNL d   1      60.440  -1.354  29.851  0.00  0.00    -0.267 OA
ATOM     11  C   UNL d   1      59.531  -2.730  28.492  0.00  0.00     0.066 A 
ATOM     12  C   UNL d   1      58.877  -2.288  28.730  0.00  0.00     0.267 A 
ATOM     13  O   UNL d   1      58.047  -2.406  28.455  0.00  0.00    -0.267 OA
ENDBRANCH   1   7
BRANCH   2  14
ATOM     14  O   UNL d   1      59.095  -0.155  28.718  0.00  0.00    -0.327 OA
ATOM     15  C   UNL d   1      59.092   0.632  28.461  0.00  0.00     0.181 C 
ENDBRANCH   2  14
BRANCH   5  16
ATOM     16  O   UNL d   1      57.228   0.508  30.784  0.00  0.00    -0.328 OA
ATOM     17  C   UNL d   1      57.184   0.527  31.609  0.00  0.00     0.181 C 
ENDBRANCH   5  16
TORSDOF 3
ENDMDL
MODEL 7
REMARK VINA RESULT:      -1.4      1.463      3.622
REMARK  3 active torsions:
REMARK  status: ('A' for Active; 'I' for Inactive)
REMARK    1  A    between atoms: C_2  and  N_1 
REMARK    2  A    between atoms: O_14  and  C_5 
REMARK    3  A    between atoms: O_15  and  C_12 
ROOT
ATOM      1  C   UNL d   1      57.462   0.113  31.270  0.00  0.00     0.092 A 
ATOM      2  C   UNL d   1      57.213  -0.665  31.297  0.00  0.00     0.112 A 
ATOM      3  C   UNL d   1      56.617  -0.888  31.824  0.00  0.00     0.050 A 
ATOM      4  C   UNL d   1      57.129   0.680  31.760  0.00  0.00     0.022 A 
ATOM      5  C   UNL d   1      56.281  -0.319  32.318  0.00  0.00     0.096 A 
ATOM      6  C   UNL d   1      56.538   0.465  32.285  0.00  0.00     0.026 A 
ENDROOT
BRANCH   1   7
ATOM      7  N   UNL d   1      58.061   0.338  30.741  0.00  0.00    -0.240 N 
ATOM      8  C   UNL d   1      58.852   0.472  30.919  0.00  0.00     0.267 A 
ATOM      9  C   UNL d   1      59.243   0.682  30.234  0.00  0.00     0.066 A 
ATOM     10  O   UNL d   1      59.194   0.405  31.671  0.00  0.00    -0.267 OA
ATOM     11  C   UNL d   1      58.692   0.680  29.612  0.00  0.00     0.066 A 
ATOM     12  C   UNL d   1      57.961   0.467  29.926  0.00  0.00     0.267 A 
ATOM     13  O   UNL d   1      57.208   0.392  29.473  0.00  0.00    -0.267 OA
ENDBRANCH   1   7
BRANCH   2  14
ATOM     14  O   UNL d   1      57.551  -1.237  30.801  0.00  0.00    -0.327 OA
ATOM     15  C   UNL d   1      57.298  -2.024  30.838  0.00  0.00     0.181 C 
ENDBRANCH   2  14
BRANCH   5  16
ATOM     16  O   UNL d   1      55.680  -0.538  32.851  0.00  0.00    -0.328 OA
ATOM     17  C   UNL d   1      55.354   0.021  33.366  0.00  0.00     0.181 C 
ENDBRANCH   5  16
TORSDOF 3
ENDMDL
MODEL 8
REMARK VINA RESULT:      -0.8      2.561      3.689
REMARK  3 active torsions:
REMARK  status: ('A' for Active; 'I' for Inactive)
REMARK    1  A    between atoms: C_2  and  N_1 
REMARK    2  A    between atoms: O_14  and  C_5 
REMARK    3  A    between atoms: O_15  and  C_12 
ROOT
ATOM      1  C   UNL d   1      58.743   0.160  30.289  0.00  0.00     0.092 A 
ATOM      2  C   UNL d   1      58.731  -0.524  29.842  0.00  0.00     0.112 A 
ATOM      3  C   UNL d   1      59.362  -0.697  29.337  0.00  0.00     0.050 A 
ATOM      4  C   UNL d   1      59.375   0.682  30.244  0.00  0.00     0.022 A 
ATOM      5  C   UNL d   1      59.998  -0.174  29.291  0.00  0.00     0.096 A 
ATOM      6  C   UNL d   1      60.003   0.516  29.746  0.00  0.00     0.026 A 
ENDROOT
BRANCH   1   7
ATOM      7  N   UNL d   1      58.110   0.335  30.796  0.00  0.00    -0.240 N 
ATOM      8  C   UNL d   1      57.354   0.570  30.578  0.00  0.00     0.267 A 
ATOM      9  C   UNL d   1      56.909   0.682  31.254  0.00  0.00     0.066 A 
ATOM     10  O   UNL d   1      57.088   0.675  29.800  0.00  0.00    -0.267 OA
ATOM     11  C   UNL d   1      57.390   0.516  31.909  0.00  0.00     0.066 A 
ATOM     12  C   UNL d   1      58.134   0.301  31.626  0.00  0.00     0.267 A 
ATOM     13  O   UNL d   1      58.828   0.076  32.121  0.00  0.00    -0.267 OA
ENDBRANCH   1   7
BRANCH   2  14
ATOM     14  O   UNL d   1      58.092  -1.050  29.888  0.00  0.00    -0.327 OA
ATOM     15  C   UNL d   1      58.196  -1.851  29.708  0.00  0.00     0.181 C 
ENDBRANCH   2  14
BRANCH   5  16
ATOM     16  O   UNL d   1      60.636  -0.342  28.784  0.00  0.00    -0.328 OA
ATOM     17  C   UNL d   1      61.084   0.271  28.456  0.00  0.00     0.181 C 
ENDBRANCH   5  16
TORSDOF 3
ENDMDL
