MODEL 1
REMARK VINA RESULT:       9.2      0.000      0.000
REMARK  1 active torsions:
REMARK  status: ('A' for Active; 'I' for Inactive)
REMARK    1  A    between atoms: O_8  and  C_4 
ROOT
ATOM      1  C   UNL d   1      59.718  49.681  51.345  0.00  0.00     0.065 A 
ATOM      2  C   UNL d   1      59.416  49.678  50.575  0.00  0.00     0.186 A 
ATOM      3  N   UNL d   1      59.931  49.690  49.930  0.00  0.00    -0.224 NA
ATOM      4  C   UNL d   1      60.534  49.696  51.466  0.00  0.00     0.099 A 
ATOM      5  N   UNL d   1      58.605  49.663  50.451  0.00  0.00    -0.127 N 
ATOM      6  C   UNL d   1      60.743  49.705  50.054  0.00  0.00     0.103 A 
ATOM      7  C   UNL d   1      61.045  49.708  50.824  0.00  0.00     0.045 A 
ENDROOT
BRANCH   4   8
ATOM      8  O   UNL d   1      60.833  49.699  52.229  0.00  0.00    -0.328 OA
ATOM      9  C   UNL d   1      61.644  49.672  52.353  0.00  0.00     0.181 C 
ENDBRANCH   4   8
TORSDOF 1
ENDMDL
MODEL 2
REMARK VINA RESULT:       9.6      2.593      3.710
REMARK  1 active torsions:
REMARK  status: ('A' for Active; 'I' for Inactive)
REMARK    1  A    between atoms: O_8  and  C_4 
ROOT
ATOM      1  C   UNL d   1      58.173  49.699  49.641  0.00  0.00     0.065 A 
ATOM      2  C   UNL d   1      58.553  49.699  50.376  0.00  0.00     0.186 A 
ATOM      3  N   UNL d   1      58.108  49.704  51.070  0.00  0.00    -0.224 NA
ATOM      4  C   UNL d   1      57.349  49.703  49.606  0.00  0.00     0.099 A 
ATOM      5  N   UNL d   1      59.373  49.695  50.415  0.00  0.00    -0.127 N 
ATOM      6  C   UNL d   1      57.287  49.708  51.032  0.00  0.00     0.103 A 
ATOM      7  C   UNL d   1      56.907  49.707  50.298  0.00  0.00     0.045 A 
ENDROOT
BRANCH   4   8
ATOM      8  O   UNL d   1      56.972  49.703  48.879  0.00  0.00    -0.328 OA
ATOM      9  C   UNL d   1      56.151  49.682  48.840  0.00  0.00     0.181 C 
ENDBRANCH   4   8
TORSDOF 1
ENDMDL
MODEL 3
REMARK VINA RESULT:      12.0      1.166      1.727
REMARK  1 active torsions:
REMARK  status: ('A' for Active; 'I' for Inactive)
REMARK    1  A    between atoms: O_8  and  C_4 
ROOT
ATOM      1  C   UNL d   1      59.682  49.705  50.501  0.00  0.00     0.065 A 
ATOM      2  C   UNL d   1      59.185  49.707  51.162  0.00  0.00     0.186 A 
ATOM      3  N   UNL d   1      59.508  49.707  51.921  0.00  0.00    -0.224 NA
ATOM      4  C   UNL d   1      60.500  49.704  50.603  0.00  0.00     0.099 A 
ATOM      5  N   UNL d   1      58.370  49.708  51.064  0.00  0.00    -0.127 N 
ATOM      6  C   UNL d   1      60.324  49.706  52.019  0.00  0.00     0.103 A 
ATOM      7  C   UNL d   1      60.821  49.704  51.359  0.00  0.00     0.045 A 
ENDROOT
BRANCH   4   8
ATOM      8  O   UNL d   1      60.993  49.703  49.949  0.00  0.00    -0.328 OA
ATOM      9  C   UNL d   1      60.695  49.504  49.209  0.00  0.00     0.181 C 
ENDBRANCH   4   8
TORSDOF 1
ENDMDL
