MODEL 1
REMARK VINA RESULT:      -4.2      0.000      0.000
REMARK  4 active torsions:
REMARK  status: ('A' for Active; 'I' for Inactive)
REMARK    1  A    between atoms: N_7  and  C_1 
REMARK    2  A    between atoms: S_3  and  N_7 
REMARK    3  A    between atoms: N_8  and  S_3 
REMARK    4  A    between atoms: C_12  and  N_5 
ROOT
ATOM      1  C   UNL d   1      58.216  -0.236  29.919  0.00  0.00     0.170 A 
ATOM      2  C   UNL d   1      58.212  -1.009  29.872  0.00  0.00     0.299 A 
ATOM      3  N   UNL d   1      59.257  -0.536  29.352  0.00  0.00    -0.238 N 
ATOM      4  N   UNL d   1      58.915  -1.206  29.489  0.00  0.00    -0.209 N 
ATOM      5  C   UNL d   1      58.793   0.118  29.638  0.00  0.00     0.105 A 
ATOM      6  O   UNL d   1      57.624  -1.536  30.148  0.00  0.00    -0.263 OA
ATOM      7  C   UNL d   1      60.003  -0.457  28.964  0.00  0.00     0.120 C 
ATOM      8  C   UNL d   1      59.204   0.679  29.458  0.00  0.00     0.022 C 
ENDROOT
BRANCH   1   9
ATOM      9  N   UNL d   1      57.615   0.227  30.266  0.00  0.00    -0.137 NA
BRANCH   9  10
ATOM     10  S   UNL d   1      57.534   0.273  31.104  0.00  0.00     0.351 S 
ATOM     11  O   UNL d   1      58.284   0.645  31.206  0.00  0.00    -0.180 OA
ATOM     12  O   UNL d   1      56.791  -0.097  30.998  0.00  0.00    -0.180 OA
BRANCH  10  13
ATOM     13  N   UNL d   1      57.364   0.273  31.917  0.00  0.00    -0.215 N 
ATOM     14  C   UNL d   1      57.869   0.682  32.453  0.00  0.00     0.093 A 
ATOM     15  C   UNL d   1      57.695   0.679  33.266  0.00  0.00     0.020 A 
ATOM     16  C   UNL d   1      57.021   0.272  33.555  0.00  0.00     0.003 A 
ATOM     17  C   UNL d   1      56.520  -0.134  33.024  0.00  0.00     0.020 A 
ATOM     18  C   UNL d   1      56.691  -0.135  32.197  0.00  0.00     0.093 A 
ENDBRANCH  10  13
ENDBRANCH   9  10
ENDBRANCH   1   9
BRANCH   4  19
ATOM     19  C   UNL d   1      59.258  -1.948  29.261  0.00  0.00     0.085 A 
ATOM     20  C   UNL d   1      58.870  -2.393  28.685  0.00  0.00     0.019 A 
ATOM     21  C   UNL d   1      59.198  -3.118  28.457  0.00  0.00     0.002 A 
ATOM     22  C   UNL d   1      59.895  -3.369  28.808  0.00  0.00     0.000 A 
ATOM     23  C   UNL d   1      60.237  -2.910  29.360  0.00  0.00     0.002 A 
ATOM     24  C   UNL d   1      59.904  -2.190  29.581  0.00  0.00     0.019 A 
ENDBRANCH   4  19
TORSDOF 4
ENDMDL
MODEL 2
REMARK VINA RESULT:      -3.9      0.553      1.006
REMARK  4 active torsions:
REMARK  status: ('A' for Active; 'I' for Inactive)
REMARK    1  A    between atoms: N_7  and  C_1 
REMARK    2  A    between atoms: S_3  and  N_7 
REMARK    3  A    between atoms: N_8  and  S_3 
REMARK    4  A    between atoms: C_12  and  N_5 
ROOT
ATOM      1  C   UNL d   1      58.430  -0.526  29.538  0.00  0.00     0.170 A 
ATOM      2  C   UNL d   1      58.580  -1.281  29.624  0.00  0.00     0.299 A 
ATOM      3  N   UNL d   1      59.493  -0.717  28.964  0.00  0.00    -0.238 N 
ATOM      4  N   UNL d   1      59.297  -1.405  29.236  0.00  0.00    -0.209 N 
ATOM      5  C   UNL d   1      58.916  -0.125  29.164  0.00  0.00     0.105 A 
ATOM      6  O   UNL d   1      58.119  -1.853  30.023  0.00  0.00    -0.263 OA
ATOM      7  C   UNL d   1      60.196  -0.567  28.522  0.00  0.00     0.120 C 
ATOM      8  C   UNL d   1      59.199   0.463  28.864  0.00  0.00     0.022 C 
ENDROOT
BRANCH   1   9
ATOM      9  N   UNL d   1      57.758  -0.133  29.838  0.00  0.00    -0.137 NA
BRANCH   9  10
ATOM     10  S   UNL d   1      57.688   0.035  30.661  0.00  0.00     0.351 S 
ATOM     11  O   UNL d   1      58.233   0.678  30.626  0.00  0.00    -0.180 OA
ATOM     12  O   UNL d   1      57.149  -0.603  30.691  0.00  0.00    -0.180 OA
BRANCH  10  13
ATOM     13  N   UNL d   1      57.554   0.125  31.476  0.00  0.00    -0.215 N 
ATOM     14  C   UNL d   1      56.896  -0.256  31.838  0.00  0.00     0.093 A 
ATOM     15  C   UNL d   1      56.765  -0.164  32.655  0.00  0.00     0.020 A 
ATOM     16  C   UNL d   1      57.285   0.305  33.118  0.00  0.00     0.003 A 
ATOM     17  C   UNL d   1      57.937   0.682  32.759  0.00  0.00     0.020 A 
ATOM     18  C   UNL d   1      58.076   0.593  31.930  0.00  0.00     0.093 A 
ENDBRANCH  10  13
ENDBRANCH   9  10
ENDBRANCH   1   9
BRANCH   4  19
ATOM     19  C   UNL d   1      59.775  -2.095  29.117  0.00  0.00     0.085 A 
ATOM     20  C   UNL d   1      60.471  -2.164  29.554  0.00  0.00     0.019 A 
ATOM     21  C   UNL d   1      60.944  -2.835  29.443  0.00  0.00     0.002 A 
ATOM     22  C   UNL d   1      60.707  -3.407  28.905  0.00  0.00     0.000 A 
ATOM     23  C   UNL d   1      60.028  -3.301  28.504  0.00  0.00     0.002 A 
ATOM     24  C   UNL d   1      59.564  -2.632  28.620  0.00  0.00     0.019 A 
ENDBRANCH   4  19
TORSDOF 4
ENDMDL
MODEL 3
REMARK VINA RESULT:      -3.4      1.253      4.149
REMARK  4 active torsions:
REMARK  status: ('A' for Active; 'I' for Inactive)
REMARK    1  A    between atoms: N_7  and  C_1 
REMARK    2  A    between atoms: S_3  and  N_7 
REMARK    3  A    between atoms: N_8  and  S_3 
REMARK    4  A    between atoms: C_12  and  N_5 
ROOT
ATOM      1  C   UNL d   1      58.612  -0.336  29.891  0.00  0.00     0.170 A 
ATOM      2  C   UNL d   1      57.928  -0.588  30.154  0.00  0.00     0.299 A 
ATOM      3  N   UNL d   1      58.460   0.199  30.981  0.00  0.00    -0.238 N 
ATOM      4  N   UNL d   1      57.830  -0.226  30.887  0.00  0.00    -0.209 N 
ATOM      5  C   UNL d   1      58.987   0.128  30.316  0.00  0.00     0.105 A 
ATOM      6  O   UNL d   1      57.398  -1.115  29.778  0.00  0.00    -0.263 OA
ATOM      7  C   UNL d   1      58.611   0.677  31.660  0.00  0.00     0.120 C 
ATOM      8  C   UNL d   1      59.528   0.558  30.512  0.00  0.00     0.022 C 
ENDROOT
BRANCH   1   9
ATOM      9  N   UNL d   1      58.956  -0.552  29.162  0.00  0.00    -0.137 NA
BRANCH   9  10
ATOM     10  S   UNL d   1      59.401  -1.263  29.089  0.00  0.00     0.351 S 
ATOM     11  O   UNL d   1      60.050  -0.961  29.535  0.00  0.00    -0.180 OA
ATOM     12  O   UNL d   1      58.756  -1.559  28.648  0.00  0.00    -0.180 OA
BRANCH  10  13
ATOM     13  N   UNL d   1      59.763  -2.001  28.963  0.00  0.00    -0.215 N 
ATOM     14  C   UNL d   1      59.304  -2.706  29.000  0.00  0.00     0.093 A 
ATOM     15  C   UNL d   1      59.670  -3.443  28.873  0.00  0.00     0.020 A 
ATOM     16  C   UNL d   1      60.492  -3.486  28.709  0.00  0.00     0.003 A 
ATOM     17  C   UNL d   1      60.947  -2.786  28.673  0.00  0.00     0.020 A 
ATOM     18  C   UNL d   1      60.582  -2.036  28.801  0.00  0.00     0.093 A 
ENDBRANCH  10  13
ENDBRANCH   9  10
ENDBRANCH   1   9
BRANCH   4  19
ATOM     19  C   UNL d   1      57.212  -0.257  31.467  0.00  0.00     0.085 A 
ATOM     20  C   UNL d   1      57.029  -0.989  31.799  0.00  0.00     0.019 A 
ATOM     21  C   UNL d   1      56.427  -1.029  32.366  0.00  0.00     0.002 A 
ATOM     22  C   UNL d   1      56.034  -0.341  32.579  0.00  0.00     0.000 A 
ATOM     23  C   UNL d   1      56.242   0.345  32.235  0.00  0.00     0.002 A 
ATOM     24  C   UNL d   1      56.841   0.375  31.672  0.00  0.00     0.019 A 
ENDBRANCH   4  19
TORSDOF 4
ENDMDL
MODEL 4
REMARK VINA RESULT:      -2.9      1.075      1.507
REMARK  4 active torsions:
REMARK  status: ('A' for Active; 'I' for Inactive)
REMARK    1  A    between atoms: N_7  and  C_1 
REMARK    2  A    between atoms: S_3  and  N_7 
REMARK    3  A    between atoms: N_8  and  S_3 
REMARK    4  A    between atoms: C_12  and  N_5 
ROOT
ATOM      1  C   UNL d   1      58.154   0.106  30.533  0.00  0.00     0.170 A 
ATOM      2  C   UNL d   1      58.352  -0.320  29.917  0.00  0.00     0.299 A 
ATOM      3  N   UNL d   1      59.374   0.017  30.573  0.00  0.00    -0.238 N 
ATOM      4  N   UNL d   1      59.174  -0.377  29.948  0.00  0.00    -0.209 N 
ATOM      5  C   UNL d   1      58.694   0.343  30.969  0.00  0.00     0.105 A 
ATOM      6  O   UNL d   1      57.847  -0.654  29.341  0.00  0.00    -0.263 OA
ATOM      7  C   UNL d   1      60.170   0.115  30.836  0.00  0.00     0.120 C 
ATOM      8  C   UNL d   1      58.997   0.682  31.525  0.00  0.00     0.022 C 
ENDROOT
BRANCH   1   9
ATOM      9  N   UNL d   1      57.374   0.316  30.741  0.00  0.00    -0.137 NA
BRANCH   9  10
ATOM     10  S   UNL d   1      56.990  -0.044  31.399  0.00  0.00     0.351 S 
ATOM     11  O   UNL d   1      57.455  -0.746  31.348  0.00  0.00    -0.180 OA
ATOM     12  O   UNL d   1      56.531   0.653  31.445  0.00  0.00    -0.180 OA
BRANCH  10  13
ATOM     13  N   UNL d   1      56.556  -0.316  32.053  0.00  0.00    -0.215 N 
ATOM     14  C   UNL d   1      56.301   0.228  32.644  0.00  0.00     0.093 A 
ATOM     15  C   UNL d   1      55.866  -0.048  33.298  0.00  0.00     0.020 A 
ATOM     16  C   UNL d   1      55.681  -0.863  33.371  0.00  0.00     0.003 A 
ATOM     17  C   UNL d   1      55.934  -1.402  32.785  0.00  0.00     0.020 A 
ATOM     18  C   UNL d   1      56.375  -1.129  32.119  0.00  0.00     0.093 A 
ENDBRANCH  10  13
ENDBRANCH   9  10
ENDBRANCH   1   9
BRANCH   4  19
ATOM     19  C   UNL d   1      59.744  -0.760  29.451  0.00  0.00     0.085 A 
ATOM     20  C   UNL d   1      59.853  -1.573  29.541  0.00  0.00     0.019 A 
ATOM     21  C   UNL d   1      60.407  -1.954  29.058  0.00  0.00     0.002 A 
ATOM     22  C   UNL d   1      60.829  -1.515  28.509  0.00  0.00     0.000 A 
ATOM     23  C   UNL d   1      60.694  -0.733  28.455  0.00  0.00     0.002 A 
ATOM     24  C   UNL d   1      60.140  -0.361  28.938  0.00  0.00     0.019 A 
ENDBRANCH   4  19
TORSDOF 4
ENDMDL
MODEL 5
REMARK VINA RESULT:      -2.0      8.350      9.791
REMARK  4 active torsions:
REMARK  status: ('A' for Active; 'I' for Inactive)
REMARK    1  A    between atoms: N_7  and  C_1 
REMARK    2  A    between atoms: S_3  and  N_7 
REMARK    3  A    between atoms: N_8  and  S_3 
REMARK    4  A    between atoms: C_12  and  N_5 
ROOT
ATOM      1  C   UNL d   1      59.915  -9.258  34.303  0.00  0.00     0.170 A 
ATOM      2  C   UNL d   1      59.566  -8.577  34.422  0.00  0.00     0.299 A 
ATOM      3  N   UNL d   1      60.524  -8.732  35.224  0.00  0.00    -0.238 N 
ATOM      4  N   UNL d   1      59.979  -8.226  35.043  0.00  0.00    -0.209 N 
ATOM      5  C   UNL d   1      60.485  -9.425  34.732  0.00  0.00     0.105 A 
ATOM      6  O   UNL d   1      58.910  -8.259  34.011  0.00  0.00    -0.263 OA
ATOM      7  C   UNL d   1      61.092  -8.615  35.838  0.00  0.00     0.120 C 
ATOM      8  C   UNL d   1      61.030  -9.818  34.988  0.00  0.00     0.022 C 
ENDROOT
BRANCH   1   9
ATOM      9  N   UNL d   1      59.693  -9.818  33.726  0.00  0.00    -0.137 NA
BRANCH   9  10
ATOM     10  S   UNL d   1      59.939  -9.732  32.924  0.00  0.00     0.351 S 
ATOM     11  O   UNL d   1      60.756  -9.818  33.115  0.00  0.00    -0.180 OA
ATOM     12  O   UNL d   1      59.128  -9.647  32.740  0.00  0.00    -0.180 OA
BRANCH  10  13
ATOM     13  N   UNL d   1      60.085  -9.637  32.111  0.00  0.00    -0.215 N 
ATOM     14  C   UNL d   1      60.847  -9.396  31.846  0.00  0.00     0.093 A 
ATOM     15  C   UNL d   1      60.987  -9.302  31.031  0.00  0.00     0.020 A 
ATOM     16  C   UNL d   1      60.376  -9.445  30.475  0.00  0.00     0.003 A 
ATOM     17  C   UNL d   1      59.621  -9.684  30.738  0.00  0.00     0.020 A 
ATOM     18  C   UNL d   1      59.471  -9.782  31.564  0.00  0.00     0.093 A 
ENDBRANCH  10  13
ENDBRANCH   9  10
ENDBRANCH   1   9
BRANCH   4  19
ATOM     19  C   UNL d   1      59.892  -7.486  35.447  0.00  0.00     0.085 A 
ATOM     20  C   UNL d   1      60.475  -6.914  35.337  0.00  0.00     0.019 A 
ATOM     21  C   UNL d   1      60.398  -6.188  35.728  0.00  0.00     0.002 A 
ATOM     22  C   UNL d   1      59.747  -6.062  36.211  0.00  0.00     0.000 A 
ATOM     23  C   UNL d   1      59.208  -6.641  36.290  0.00  0.00     0.002 A 
ATOM     24  C   UNL d   1      59.292  -7.359  35.898  0.00  0.00     0.019 A 
ENDBRANCH   4  19
TORSDOF 4
ENDMDL
