MODEL 1
REMARK VINA RESULT:      37.4      0.000      0.000
REMARK  4 active torsions:
REMARK  status: ('A' for Active; 'I' for Inactive)
REMARK    1  A    between atoms: C_9  and  N_1 
REMARK    2  A    between atoms: S_10  and  C_6 
REMARK    3  A    between atoms: C_16  and  S_10 
REMARK    4  A    between atoms: C_15  and  C_16 
ROOT
ATOM      1  N   UNL d   1      45.240 -15.308  43.466  0.00  0.00    -0.212 N 
ATOM      2  C   UNL d   1      45.713 -15.792  43.932  0.00  0.00     0.169 A 
ATOM      3  N   UNL d   1      44.914 -15.752  42.872  0.00  0.00    -0.162 NA
ATOM      4  C   UNL d   1      45.678 -16.554  43.615  0.00  0.00     0.081 A 
ATOM      5  C   UNL d   1      45.183 -16.531  42.958  0.00  0.00     0.126 A 
ATOM      6  C   UNL d   1      46.099 -17.165  43.966  0.00  0.00     0.117 A 
ATOM      7  N   UNL d   1      46.170 -15.643  44.599  0.00  0.00    -0.205 NA
ATOM      8  N   UNL d   1      46.559 -17.018  44.636  0.00  0.00    -0.217 NA
ATOM      9  C   UNL d   1      46.594 -16.257  44.952  0.00  0.00     0.201 A 
ENDROOT
BRANCH   6  10
ATOM     10  S   UNL d   1      46.064 -17.927  43.650  0.00  0.00    -0.067 SA
BRANCH  10  11
ATOM     11  C   UNL d   1      46.640 -18.180  43.130  0.00  0.00     0.038 C 
BRANCH  11  12
ATOM     12  C   UNL d   1      46.494 -18.823  42.634  0.00  0.00     0.026 A 
ATOM     13  C   UNL d   1      46.236 -18.697  41.860  0.00  0.00     0.099 A 
ATOM     14  N   UNL d   1      46.091 -19.340  41.364  0.00  0.00    -0.242 NA
ATOM     15  C   UNL d   1      46.202 -20.116  41.637  0.00  0.00     0.099 A 
ATOM     16  C   UNL d   1      46.462 -20.235  42.416  0.00  0.00     0.021 A 
ATOM     17  C   UNL d   1      46.607 -19.592  42.912  0.00  0.00     0.004 A 
ENDBRANCH  11  12
ENDBRANCH  10  11
ENDBRANCH   6  10
BRANCH   1  18
ATOM     18  C   UNL d   1      45.164 -14.502  43.649  0.00  0.00     0.085 A 
ATOM     19  C   UNL d   1      44.703 -14.268  44.288  0.00  0.00     0.021 A 
ATOM     20  C   UNL d   1      44.627 -13.474  44.471  0.00  0.00     0.031 A 
ATOM     21  C   UNL d   1      45.012 -12.902  44.014  0.00  0.00     0.140 A 
ATOM     22  C   UNL d   1      45.477 -13.150  43.367  0.00  0.00     0.031 A 
ATOM     23  F   UNL d   1      44.936 -12.095  44.196  0.00  0.00    -0.204 F 
ATOM     24  C   UNL d   1      45.548 -13.943  43.192  0.00  0.00     0.021 A 
ENDBRANCH   1  18
TORSDOF 4
ENDMDL
MODEL 2
REMARK VINA RESULT:      38.5      2.104      4.885
REMARK  4 active torsions:
REMARK  status: ('A' for Active; 'I' for Inactive)
REMARK    1  A    between atoms: C_9  and  N_1 
REMARK    2  A    between atoms: S_10  and  C_6 
REMARK    3  A    between atoms: C_16  and  S_10 
REMARK    4  A    between atoms: C_15  and  C_16 
ROOT
ATOM      1  N   UNL d   1      46.062 -17.520  43.825  0.00  0.00    -0.212 N 
ATOM      2  C   UNL d   1      46.209 -16.735  43.632  0.00  0.00     0.169 A 
ATOM      3  N   UNL d   1      45.786 -17.556  44.586  0.00  0.00    -0.162 NA
ATOM      4  C   UNL d   1      46.017 -16.277  44.290  0.00  0.00     0.081 A 
ATOM      5  C   UNL d   1      45.755 -16.783  44.883  0.00  0.00     0.126 A 
ATOM      6  C   UNL d   1      46.107 -15.460  44.264  0.00  0.00     0.117 A 
ATOM      7  N   UNL d   1      46.489 -16.377  42.947  0.00  0.00    -0.205 NA
ATOM      8  N   UNL d   1      46.389 -15.099  43.578  0.00  0.00    -0.217 NA
ATOM      9  C   UNL d   1      46.580 -15.557  42.919  0.00  0.00     0.201 A 
ENDROOT
BRANCH   6  10
ATOM     10  S   UNL d   1      45.916 -15.001  44.922  0.00  0.00    -0.067 SA
BRANCH  10  11
ATOM     11  C   UNL d   1      45.959 -14.188  44.880  0.00  0.00     0.038 C 
BRANCH  11  12
ATOM     12  C   UNL d   1      45.429 -13.771  44.405  0.00  0.00     0.026 A 
ATOM     13  C   UNL d   1      45.704 -13.170  43.909  0.00  0.00     0.099 A 
ATOM     14  N   UNL d   1      45.174 -12.753  43.434  0.00  0.00    -0.242 NA
ATOM     15  C   UNL d   1      44.364 -12.931  43.449  0.00  0.00     0.099 A 
ATOM     16  C   UNL d   1      44.095 -13.536  43.950  0.00  0.00     0.021 A 
ATOM     17  C   UNL d   1      44.624 -13.953  44.425  0.00  0.00     0.004 A 
ENDBRANCH  11  12
ENDBRANCH  10  11
ENDBRANCH   6  10
BRANCH   1  18
ATOM     18  C   UNL d   1      46.204 -18.119  43.267  0.00  0.00     0.085 A 
ATOM     19  C   UNL d   1      46.218 -18.905  43.505  0.00  0.00     0.021 A 
ATOM     20  C   UNL d   1      46.357 -19.497  42.957  0.00  0.00     0.031 A 
ATOM     21  C   UNL d   1      46.484 -19.309  42.162  0.00  0.00     0.140 A 
ATOM     22  C   UNL d   1      46.467 -18.506  41.932  0.00  0.00     0.031 A 
ATOM     23  F   UNL d   1      46.625 -19.907  41.604  0.00  0.00    -0.204 F 
ATOM     24  C   UNL d   1      46.328 -17.923  42.483  0.00  0.00     0.021 A 
ENDBRANCH   1  18
TORSDOF 4
ENDMDL
