MODEL 1
REMARK VINA RESULT:       3.2      0.000      0.000
REMARK  10 active torsions:
REMARK  status: ('A' for Active; 'I' for Inactive)
REMARK    1  A    between atoms: C_10  and  N_1 
REMARK    2  A    between atoms: S_7  and  C_2 
REMARK    3  A    between atoms: C_9  and  C_3 
REMARK       I    between atoms: C_6  and  N_8 
REMARK    4  A    between atoms: C_11  and  C_6 
REMARK    5  A    between atoms: C_15  and  S_7 
REMARK    6  A    between atoms: N_8  and  C_9 
REMARK    7  A    between atoms: C_12  and  C_15 
REMARK    8  A    between atoms: O_21  and  C_12 
REMARK    9  A    between atoms: O_22  and  C_18 
REMARK   10  A    between atoms: C_25  and  O_21 
ROOT
ATOM      1  N   UNL d   1      56.576  -0.349  32.644  0.00  0.00    -0.268 N 
ATOM      2  C   UNL d   1      56.873   0.267  33.105  0.00  0.00     0.201 A 
ATOM      3  C   UNL d   1      56.985  -0.330  31.919  0.00  0.00     0.190 A 
ATOM      4  N   UNL d   1      57.458   0.661  32.670  0.00  0.00    -0.121 NA
ATOM      5  N   UNL d   1      57.529   0.298  31.944  0.00  0.00    -0.126 NA
ENDROOT
BRANCH   3   6
ATOM      6  C   UNL d   1      56.872  -0.846  31.283  0.00  0.00     0.141 C 
BRANCH   6   7
ATOM      7  N   UNL d   1      57.536  -0.708  30.806  0.00  0.00    -0.203 NA
ATOM      8  C   UNL d   1      57.853  -1.325  30.357  0.00  0.00     0.279 C 
ATOM      9  O   UNL d   1      57.515  -2.073  30.382  0.00  0.00    -0.265 OA
BRANCH   8  10
ATOM     10  C   UNL d   1      58.514  -1.181  29.885  0.00  0.00     0.058 A 
ATOM     11  C   UNL d   1      58.426  -0.979  29.096  0.00  0.00     0.007 A 
ATOM     12  C   UNL d   1      59.086  -0.835  28.623  0.00  0.00     0.024 A 
ATOM     13  C   UNL d   1      59.842  -0.898  28.954  0.00  0.00     0.094 A 
ATOM     14  C   UNL d   1      59.930  -1.100  29.743  0.00  0.00     0.024 A 
ATOM     15  C   UNL d   1      59.269  -1.244  30.216  0.00  0.00     0.007 A 
BRANCH  13  16
ATOM     16  O   UNL d   1      60.502  -0.754  28.481  0.00  0.00    -0.328 OA
ATOM     17  C   UNL d   1      61.000  -0.128  28.657  0.00  0.00     0.181 C 
ENDBRANCH  13  16
ENDBRANCH   8  10
ENDBRANCH   6   7
ENDBRANCH   3   6
BRANCH   1  18
ATOM     18  C   UNL d   1      55.992  -0.875  32.858  0.00  0.00     0.067 A 
ATOM     19  C   UNL d   1      56.196  -1.625  33.125  0.00  0.00     0.018 A 
ATOM     20  C   UNL d   1      55.604  -2.160  33.343  0.00  0.00     0.002 A 
ATOM     21  C   UNL d   1      54.811  -1.941  33.294  0.00  0.00     0.000 A 
ATOM     22  C   UNL d   1      54.612  -1.190  33.027  0.00  0.00     0.002 A 
ATOM     23  C   UNL d   1      55.198  -0.661  32.811  0.00  0.00     0.018 A 
ENDBRANCH   1  18
BRANCH   2  24
ATOM     24  S   UNL d   1      56.630   0.461  33.873  0.00  0.00    -0.042 SA
BRANCH  24  25
ATOM     25  C   UNL d   1      57.177   0.493  34.489  0.00  0.00     0.107 C 
BRANCH  25  26
ATOM     26  C   UNL d   1      56.912   0.556  35.263  0.00  0.00     0.307 C 
ATOM     27  O   UNL d   1      57.445   0.588  35.880  0.00  0.00    -0.258 OA
BRANCH  26  28
ATOM     28  O   UNL d   1      56.101   0.586  35.414  0.00  0.00    -0.271 OA
BRANCH  28  29
ATOM     29  C   UNL d   1      55.817   0.360  36.150  0.00  0.00     0.126 C 
ATOM     30  C   UNL d   1      55.011   0.422  36.313  0.00  0.00     0.029 C 
ENDBRANCH  28  29
ENDBRANCH  26  28
ENDBRANCH  25  26
ENDBRANCH  24  25
ENDBRANCH   2  24
TORSDOF 10
ENDMDL
