MODEL 1
REMARK VINA RESULT:      14.8      0.000      0.000
REMARK  3 active torsions:
REMARK  status: ('A' for Active; 'I' for Inactive)
REMARK    1  A    between atoms: C_7  and  C_1 
REMARK    2  A    between atoms: C_13  and  C_7 
REMARK    3  A    between atoms: N_12  and  C_11 
ROOT
ATOM      1  C   UNL d   1      45.306 -14.254  44.953  0.00  0.00     0.010 C 
ENDROOT
BRANCH   1   2
ATOM      2  C   UNL d   1      45.257 -13.721  44.355  0.00  0.00     0.116 A 
ATOM      3  C   UNL d   1      44.640 -13.756  43.809  0.00  0.00     0.288 A 
ATOM      4  N   UNL d   1      44.580 -13.215  43.193  0.00  0.00    -0.152 NA
ATOM      5  O   UNL d   1      44.068 -14.349  43.884  0.00  0.00    -0.265 OA
ATOM      6  C   UNL d   1      45.142 -12.632  43.119  0.00  0.00     0.374 A 
ATOM      7  N   UNL d   1      45.766 -12.575  43.649  0.00  0.00    -0.152 NA
ATOM      8  O   UNL d   1      45.076 -12.082  42.488  0.00  0.00    -0.242 OA
ATOM      9  C   UNL d   1      45.818 -13.119  44.262  0.00  0.00     0.288 A 
ATOM     10  O   UNL d   1      46.450 -13.067  44.803  0.00  0.00    -0.265 OA
ENDBRANCH   1   2
BRANCH   1  11
ATOM     11  C   UNL d   1      45.484 -15.045  44.790  0.00  0.00     0.000 A 
ATOM     12  C   UNL d   1      46.198 -15.241  44.479  0.00  0.00     0.002 A 
ATOM     13  C   UNL d   1      46.392 -16.008  44.312  0.00  0.00     0.018 A 
ATOM     14  C   UNL d   1      45.833 -16.595  44.470  0.00  0.00     0.064 A 
ATOM     15  C   UNL d   1      45.095 -16.399  44.790  0.00  0.00     0.018 A 
ATOM     16  C   UNL d   1      44.921 -15.626  44.950  0.00  0.00     0.002 A 
BRANCH  14  17
ATOM     17  N   UNL d   1      46.026 -17.382  44.301  0.00  0.00    -0.301 N 
ATOM     18  C   UNL d   1      46.218 -17.596  43.538  0.00  0.00     0.100 C 
ATOM     19  C   UNL d   1      46.018 -17.934  44.919  0.00  0.00     0.100 C 
ENDBRANCH  14  17
ENDBRANCH   1  11
TORSDOF 3
ENDMDL
MODEL 2
REMARK VINA RESULT:      15.4      0.358      1.326
REMARK  3 active torsions:
REMARK  status: ('A' for Active; 'I' for Inactive)
REMARK    1  A    between atoms: C_7  and  C_1 
REMARK    2  A    between atoms: C_13  and  C_7 
REMARK    3  A    between atoms: N_12  and  C_11 
ROOT
ATOM      1  C   UNL d   1      45.284 -14.536  44.954  0.00  0.00     0.010 C 
ENDROOT
BRANCH   1   2
ATOM      2  C   UNL d   1      45.238 -13.941  44.418  0.00  0.00     0.116 A 
ATOM      3  C   UNL d   1      45.898 -13.479  44.243  0.00  0.00     0.288 A 
ATOM      4  N   UNL d   1      45.861 -12.867  43.696  0.00  0.00    -0.152 NA
ATOM      5  O   UNL d   1      46.613 -13.635  44.628  0.00  0.00    -0.265 OA
ATOM      6  C   UNL d   1      45.158 -12.713  43.318  0.00  0.00     0.374 A 
ATOM      7  N   UNL d   1      44.486 -13.157  43.473  0.00  0.00    -0.152 NA
ATOM      8  O   UNL d   1      45.126 -12.086  42.759  0.00  0.00    -0.242 OA
ATOM      9  C   UNL d   1      44.532 -13.767  44.022  0.00  0.00     0.288 A 
ATOM     10  O   UNL d   1      43.853 -14.222  44.185  0.00  0.00    -0.265 OA
ENDBRANCH   1   2
BRANCH   1  11
ATOM     11  C   UNL d   1      45.481 -15.300  44.709  0.00  0.00     0.000 A 
ATOM     12  C   UNL d   1      45.044 -15.927  44.955  0.00  0.00     0.002 A 
ATOM     13  C   UNL d   1      45.219 -16.683  44.727  0.00  0.00     0.018 A 
ATOM     14  C   UNL d   1      45.867 -16.799  44.228  0.00  0.00     0.064 A 
ATOM     15  C   UNL d   1      46.321 -16.156  43.970  0.00  0.00     0.018 A 
ATOM     16  C   UNL d   1      46.129 -15.409  44.210  0.00  0.00     0.002 A 
BRANCH  14  17
ATOM     17  N   UNL d   1      46.051 -17.571  43.990  0.00  0.00    -0.301 N 
ATOM     18  C   UNL d   1      45.926 -17.796  43.216  0.00  0.00     0.100 C 
ATOM     19  C   UNL d   1      46.360 -18.096  44.552  0.00  0.00     0.100 C 
ENDBRANCH  14  17
ENDBRANCH   1  11
TORSDOF 3
ENDMDL
