MODEL 1
REMARK VINA RESULT:      -0.7      0.000      0.000
REMARK  7 active torsions:
REMARK  status: ('A' for Active; 'I' for Inactive)
REMARK    1  A    between atoms: C_2  and  S_1 
REMARK    2  A    between atoms: N_6  and  S_1 
REMARK    3  A    between atoms: C_14  and  C_4 
REMARK    4  A    between atoms: O_15  and  C_5 
REMARK    5  A    between atoms: C_12  and  N_6 
REMARK    6  A    between atoms: C_13  and  C_12 
REMARK    7  A    between atoms: C_20  and  O_15 
ROOT
ATOM      1  C   UNL d   1      58.325  -0.369  30.654  0.00  0.00     0.128 A 
ATOM      2  C   UNL d   1      58.062  -0.969  30.151  0.00  0.00     0.015 A 
ATOM      3  C   UNL d   1      58.562  -1.272  29.574  0.00  0.00     0.001 A 
ATOM      4  C   UNL d   1      59.093  -0.076  30.575  0.00  0.00     0.112 A 
ATOM      5  C   UNL d   1      59.329  -0.979  29.495  0.00  0.00     0.002 A 
ATOM      6  C   UNL d   1      59.593  -0.380  29.997  0.00  0.00     0.025 A 
ATOM      7  C   UNL d   1      59.832  -1.285  28.915  0.00  0.00     0.000 C 
ENDROOT
BRANCH   1   8
ATOM      8  S   UNL d   1      57.823  -0.064  31.234  0.00  0.00     0.287 S 
ATOM      9  O   UNL d   1      57.258   0.108  30.654  0.00  0.00    -0.198 OA
ATOM     10  O   UNL d   1      58.387  -0.236  31.813  0.00  0.00    -0.198 OA
BRANCH   8  11
ATOM     11  N   UNL d   1      57.320   0.242  31.815  0.00  0.00    -0.155 NA
BRANCH  11  12
ATOM     12  C   UNL d   1      56.909  -0.268  32.316  0.00  0.00     0.131 C 
BRANCH  12  13
ATOM     13  C   UNL d   1      56.415   0.038  32.905  0.00  0.00     0.101 A 
ATOM     14  N   UNL d   1      56.747   0.374  33.576  0.00  0.00    -0.242 NA
ATOM     15  C   UNL d   1      56.262   0.681  34.166  0.00  0.00     0.099 A 
ATOM     16  C   UNL d   1      55.434   0.646  34.076  0.00  0.00     0.021 A 
ATOM     17  C   UNL d   1      55.107   0.306  33.399  0.00  0.00     0.003 A 
ATOM     18  C   UNL d   1      55.596   0.003  32.816  0.00  0.00     0.021 A 
ENDBRANCH  12  13
ENDBRANCH  11  12
ENDBRANCH   8  11
ENDBRANCH   1   8
BRANCH   4  19
ATOM     19  O   UNL d   1      59.359   0.526  31.078  0.00  0.00    -0.304 OA
BRANCH  19  20
ATOM     20  C   UNL d   1      60.167   0.682  31.142  0.00  0.00     0.123 C 
ATOM     21  C   UNL d   1      60.534   0.682  31.889  0.00  0.00     0.029 C 
ENDBRANCH  19  20
ENDBRANCH   4  19
BRANCH   3  22
ATOM     22  C   UNL d   1      58.298  -1.872  29.072  0.00  0.00     0.000 C 
ATOM     23  C   UNL d   1      58.557  -2.647  29.188  0.00  0.00     0.000 C 
ATOM     24  C   UNL d   1      57.777  -1.696  28.455  0.00  0.00     0.000 C 
ENDBRANCH   3  22
TORSDOF 7
ENDMDL
MODEL 2
REMARK VINA RESULT:      -0.1      1.739      4.554
REMARK  7 active torsions:
REMARK  status: ('A' for Active; 'I' for Inactive)
REMARK    1  A    between atoms: C_2  and  S_1 
REMARK    2  A    between atoms: N_6  and  S_1 
REMARK    3  A    between atoms: C_14  and  C_4 
REMARK    4  A    between atoms: O_15  and  C_5 
REMARK    5  A    between atoms: C_12  and  N_6 
REMARK    6  A    between atoms: C_13  and  C_12 
REMARK    7  A    between atoms: C_20  and  O_15 
ROOT
ATOM      1  C   UNL d   1      57.514  -0.772  31.198  0.00  0.00     0.128 A 
ATOM      2  C   UNL d   1      57.133  -1.026  31.884  0.00  0.00     0.015 A 
ATOM      3  C   UNL d   1      56.569  -0.549  32.244  0.00  0.00     0.001 A 
ATOM      4  C   UNL d   1      57.326  -0.036  30.873  0.00  0.00     0.112 A 
ATOM      5  C   UNL d   1      56.381   0.187  31.920  0.00  0.00     0.002 A 
ATOM      6  C   UNL d   1      56.762   0.441  31.233  0.00  0.00     0.025 A 
ATOM      7  C   UNL d   1      55.815   0.667  32.281  0.00  0.00     0.000 C 
ENDROOT
BRANCH   1   8
ATOM      8  S   UNL d   1      58.081  -1.252  30.836  0.00  0.00     0.287 S 
ATOM      9  O   UNL d   1      58.681  -0.835  31.225  0.00  0.00    -0.198 OA
ATOM     10  O   UNL d   1      57.481  -1.668  30.448  0.00  0.00    -0.198 OA
BRANCH   8  11
ATOM     11  N   UNL d   1      58.648  -1.732  30.474  0.00  0.00    -0.155 NA
BRANCH  11  12
ATOM     12  C   UNL d   1      58.592  -1.902  29.669  0.00  0.00     0.131 C 
BRANCH  12  13
ATOM     13  C   UNL d   1      59.085  -2.475  29.332  0.00  0.00     0.101 A 
ATOM     14  N   UNL d   1      58.845  -3.260  29.323  0.00  0.00    -0.242 NA
ATOM     15  C   UNL d   1      59.330  -3.836  28.989  0.00  0.00     0.099 A 
ATOM     16  C   UNL d   1      60.064  -3.614  28.661  0.00  0.00     0.021 A 
ATOM     17  C   UNL d   1      60.298  -2.824  28.673  0.00  0.00     0.003 A 
ATOM     18  C   UNL d   1      59.811  -2.256  29.007  0.00  0.00     0.021 A 
ENDBRANCH  12  13
ENDBRANCH  11  12
ENDBRANCH   8  11
ENDBRANCH   1   8
BRANCH   4  19
ATOM     19  O   UNL d   1      57.707   0.221  30.184  0.00  0.00    -0.304 OA
BRANCH  19  20
ATOM     20  C   UNL d   1      57.296   0.673  29.630  0.00  0.00     0.123 C 
ATOM     21  C   UNL d   1      57.539   0.682  28.834  0.00  0.00     0.029 C 
ENDBRANCH  19  20
ENDBRANCH   4  19
BRANCH   3  22
ATOM     22  C   UNL d   1      56.188  -0.803  32.931  0.00  0.00     0.000 C 
ATOM     23  C   UNL d   1      55.708  -1.474  32.909  0.00  0.00     0.000 C 
ATOM     24  C   UNL d   1      56.288  -0.388  33.638  0.00  0.00     0.000 C 
ENDBRANCH   3  22
TORSDOF 7
ENDMDL
MODEL 3
REMARK VINA RESULT:       0.3      1.375      4.513
REMARK  7 active torsions:
REMARK  status: ('A' for Active; 'I' for Inactive)
REMARK    1  A    between atoms: C_2  and  S_1 
REMARK    2  A    between atoms: N_6  and  S_1 
REMARK    3  A    between atoms: C_14  and  C_4 
REMARK    4  A    between atoms: O_15  and  C_5 
REMARK    5  A    between atoms: C_12  and  N_6 
REMARK    6  A    between atoms: C_13  and  C_12 
REMARK    7  A    between atoms: C_20  and  O_15 
ROOT
ATOM      1  C   UNL d   1      57.037  -0.075  31.802  0.00  0.00     0.128 A 
ATOM      2  C   UNL d   1      56.699   0.340  32.430  0.00  0.00     0.015 A 
ATOM      3  C   UNL d   1      56.154  -0.029  32.923  0.00  0.00     0.001 A 
ATOM      4  C   UNL d   1      56.827  -0.862  31.670  0.00  0.00     0.112 A 
ATOM      5  C   UNL d   1      55.944  -0.816  32.791  0.00  0.00     0.002 A 
ATOM      6  C   UNL d   1      56.282  -1.231  32.163  0.00  0.00     0.025 A 
ATOM      7  C   UNL d   1      55.396  -1.188  33.285  0.00  0.00     0.000 C 
ENDROOT
BRANCH   1   8
ATOM      8  S   UNL d   1      57.585   0.296  31.307  0.00  0.00     0.287 S 
ATOM      9  O   UNL d   1      57.015   0.341  30.710  0.00  0.00    -0.198 OA
ATOM     10  O   UNL d   1      58.155   0.251  31.905  0.00  0.00    -0.198 OA
BRANCH   8  11
ATOM     11  N   UNL d   1      58.133   0.668  30.812  0.00  0.00    -0.155 NA
BRANCH  11  12
ATOM     12  C   UNL d   1      58.928   0.451  30.840  0.00  0.00     0.131 C 
BRANCH  12  13
ATOM     13  C   UNL d   1      59.395   0.499  30.159  0.00  0.00     0.101 A 
ATOM     14  N   UNL d   1      59.037   0.624  29.431  0.00  0.00    -0.242 NA
ATOM     15  C   UNL d   1      59.495   0.673  28.749  0.00  0.00     0.099 A 
ATOM     16  C   UNL d   1      60.323   0.594  28.804  0.00  0.00     0.021 A 
ATOM     17  C   UNL d   1      60.677   0.469  29.539  0.00  0.00     0.003 A 
ATOM     18  C   UNL d   1      60.214   0.422  30.214  0.00  0.00     0.021 A 
ENDBRANCH  12  13
ENDBRANCH  11  12
ENDBRANCH   8  11
ENDBRANCH   1   8
BRANCH   4  19
ATOM     19  O   UNL d   1      57.165  -1.281  31.040  0.00  0.00    -0.304 OA
BRANCH  19  20
ATOM     20  C   UNL d   1      57.311  -2.090  31.114  0.00  0.00     0.123 C 
ATOM     21  C   UNL d   1      57.424  -2.557  30.434  0.00  0.00     0.029 C 
ENDBRANCH  19  20
ENDBRANCH   4  19
BRANCH   3  22
ATOM     22  C   UNL d   1      55.816   0.386  33.551  0.00  0.00     0.000 C 
ATOM     23  C   UNL d   1      55.023   0.610  33.514  0.00  0.00     0.000 C 
ATOM     24  C   UNL d   1      56.270   0.576  34.214  0.00  0.00     0.000 C 
ENDBRANCH   3  22
TORSDOF 7
ENDMDL
