MODEL 1
REMARK VINA RESULT:      -7.8      0.000      0.000
REMARK  5 active torsions:
REMARK  status: ('A' for Active; 'I' for Inactive)
REMARK    1  A    between atoms: C_5  and  N_1 
REMARK    2  A    between atoms: C_12  and  C_2 
REMARK    3  A    between atoms: S_18  and  C_3 
REMARK    4  A    between atoms: C_9  and  C_12 
REMARK    5  A    between atoms: C_23  and  S_18 
ROOT
ATOM      1  N   UNL d   1     -48.721  13.758  22.753  0.00  0.00    -0.269 N 
ATOM      2  C   UNL d   1     -47.909  13.637  22.781  0.00  0.00     0.172 A 
ATOM      3  C   UNL d   1     -48.872  14.483  23.086  0.00  0.00     0.201 A 
ATOM      4  N   UNL d   1     -47.571  14.294  23.133  0.00  0.00    -0.128 NA
ATOM      5  N   UNL d   1     -48.174  14.822  23.324  0.00  0.00    -0.121 NA
ENDROOT
BRANCH   2   6
ATOM      6  C   UNL d   1     -47.590  12.953  22.484  0.00  0.00     0.059 C 
BRANCH   6   7
ATOM      7  C   UNL d   1     -46.785  12.810  22.570  0.00  0.00     0.094 A 
ATOM      8  C   UNL d   1     -46.241  13.251  22.143  0.00  0.00     0.082 A 
ATOM      9  C   UNL d   1     -45.434  13.105  22.232  0.00  0.00     0.285 A 
ATOM     10  O   UNL d   1     -44.871  13.556  21.796  0.00  0.00    -0.265 OA
ATOM     11  N   UNL d   1     -45.183  12.509  22.758  0.00  0.00    -0.152 NA
ATOM     12  C   UNL d   1     -45.726  12.073  23.180  0.00  0.00     0.371 A 
ATOM     13  N   UNL d   1     -46.538  12.224  23.086  0.00  0.00    -0.191 NA
ATOM     14  O   UNL d   1     -45.466  11.484  23.698  0.00  0.00    -0.242 OA
ENDBRANCH   6   7
ENDBRANCH   2   6
BRANCH   1  15
ATOM     15  C   UNL d   1     -49.300  13.263  22.452  0.00  0.00     0.067 A 
ATOM     16  C   UNL d   1     -49.609  12.661  22.921  0.00  0.00     0.016 A 
ATOM     17  C   UNL d   1     -50.191  12.163  22.619  0.00  0.00     0.001 A 
ATOM     18  C   UNL d   1     -49.333  12.558  23.698  0.00  0.00     0.002 C 
ATOM     19  C   UNL d   1     -50.467  12.264  21.847  0.00  0.00     0.000 A 
ATOM     20  C   UNL d   1     -50.155  12.874  21.370  0.00  0.00     0.001 A 
ATOM     21  C   UNL d   1     -49.572  13.368  21.680  0.00  0.00     0.018 A 
ATOM     22  C   UNL d   1     -50.422  12.986  20.596  0.00  0.00     0.000 C 
ENDBRANCH   1  15
BRANCH   3  23
ATOM     23  S   UNL d   1     -49.638  14.823  23.169  0.00  0.00    -0.048 SA
BRANCH  23  24
ATOM     24  C   UNL d   1     -49.709  15.621  23.403  0.00  0.00     0.038 C 
ATOM     25  C   UNL d   1     -50.435  15.901  23.680  0.00  0.00     0.008 C 
ENDBRANCH  23  24
ENDBRANCH   3  23
TORSDOF 5
ENDMDL
MODEL 2
REMARK VINA RESULT:      -6.3      1.113      2.157
REMARK  5 active torsions:
REMARK  status: ('A' for Active; 'I' for Inactive)
REMARK    1  A    between atoms: C_5  and  N_1 
REMARK    2  A    between atoms: C_12  and  C_2 
REMARK    3  A    between atoms: S_18  and  C_3 
REMARK    4  A    between atoms: C_9  and  C_12 
REMARK    5  A    between atoms: C_23  and  S_18 
ROOT
ATOM      1  N   UNL d   1     -48.499  12.865  23.058  0.00  0.00    -0.269 N 
ATOM      2  C   UNL d   1     -47.719  12.635  23.176  0.00  0.00     0.172 A 
ATOM      3  C   UNL d   1     -48.974  12.266  23.331  0.00  0.00     0.201 A 
ATOM      4  N   UNL d   1     -47.727  11.893  23.521  0.00  0.00    -0.128 NA
ATOM      5  N   UNL d   1     -48.512  11.663  23.617  0.00  0.00    -0.121 NA
ENDROOT
BRANCH   2   6
ATOM      6  C   UNL d   1     -47.113  13.127  22.955  0.00  0.00     0.059 C 
BRANCH   6   7
ATOM      7  C   UNL d   1     -46.351  12.827  22.887  0.00  0.00     0.094 A 
ATOM      8  C   UNL d   1     -45.810  13.186  22.387  0.00  0.00     0.082 A 
ATOM      9  C   UNL d   1     -45.045  12.882  22.321  0.00  0.00     0.285 A 
ATOM     10  O   UNL d   1     -44.486  13.248  21.808  0.00  0.00    -0.265 OA
ATOM     11  N   UNL d   1     -44.835  12.209  22.766  0.00  0.00    -0.152 NA
ATOM     12  C   UNL d   1     -45.375  11.854  23.262  0.00  0.00     0.371 A 
ATOM     13  N   UNL d   1     -46.143  12.166  23.324  0.00  0.00    -0.191 NA
ATOM     14  O   UNL d   1     -45.155  11.188  23.698  0.00  0.00    -0.242 OA
ENDBRANCH   6   7
ENDBRANCH   2   6
BRANCH   1  15
ATOM     15  C   UNL d   1     -48.781  13.560  22.731  0.00  0.00     0.067 A 
ATOM     16  C   UNL d   1     -48.939  13.599  21.923  0.00  0.00     0.016 A 
ATOM     17  C   UNL d   1     -49.222  14.298  21.594  0.00  0.00     0.001 A 
ATOM     18  C   UNL d   1     -48.811  12.933  21.443  0.00  0.00     0.002 C 
ATOM     19  C   UNL d   1     -49.350  14.962  22.069  0.00  0.00     0.000 A 
ATOM     20  C   UNL d   1     -49.191  14.925  22.888  0.00  0.00     0.001 A 
ATOM     21  C   UNL d   1     -48.907  14.220  23.209  0.00  0.00     0.018 A 
ATOM     22  C   UNL d   1     -49.314  15.580  23.375  0.00  0.00     0.000 C 
ENDBRANCH   1  15
BRANCH   3  23
ATOM     23  S   UNL d   1     -49.816  12.275  23.314  0.00  0.00    -0.048 SA
BRANCH  23  24
ATOM     24  C   UNL d   1     -50.240  11.649  23.667  0.00  0.00     0.038 C 
ATOM     25  C   UNL d   1     -51.064  11.683  23.698  0.00  0.00     0.008 C 
ENDBRANCH  23  24
ENDBRANCH   3  23
TORSDOF 5
ENDMDL
MODEL 3
REMARK VINA RESULT:      -6.3      8.984     10.082
REMARK  5 active torsions:
REMARK  status: ('A' for Active; 'I' for Inactive)
REMARK    1  A    between atoms: C_5  and  N_1 
REMARK    2  A    between atoms: C_12  and  C_2 
REMARK    3  A    between atoms: S_18  and  C_3 
REMARK    4  A    between atoms: C_9  and  C_12 
REMARK    5  A    between atoms: C_23  and  S_18 
ROOT
ATOM      1  N   UNL d   1     -39.618  14.975  18.537  0.00  0.00    -0.269 N 
ATOM      2  C   UNL d   1     -39.581  15.030  19.356  0.00  0.00     0.172 A 
ATOM      3  C   UNL d   1     -40.299  15.345  18.298  0.00  0.00     0.201 A 
ATOM      4  N   UNL d   1     -40.245  15.435  19.609  0.00  0.00    -0.128 NA
ATOM      5  N   UNL d   1     -40.693  15.632  18.946  0.00  0.00    -0.121 NA
ENDROOT
BRANCH   2   6
ATOM      6  C   UNL d   1     -38.954  14.705  19.757  0.00  0.00     0.059 C 
BRANCH   6   7
ATOM      7  C   UNL d   1     -38.963  14.690  20.579  0.00  0.00     0.094 A 
ATOM      8  C   UNL d   1     -39.309  14.060  20.974  0.00  0.00     0.082 A 
ATOM      9  C   UNL d   1     -39.317  14.047  21.799  0.00  0.00     0.285 A 
ATOM     10  O   UNL d   1     -39.671  13.402  22.210  0.00  0.00    -0.265 OA
ATOM     11  N   UNL d   1     -38.971  14.678  22.220  0.00  0.00    -0.152 NA
ATOM     12  C   UNL d   1     -38.628  15.302  21.823  0.00  0.00     0.371 A 
ATOM     13  N   UNL d   1     -38.624  15.309  20.993  0.00  0.00    -0.191 NA
ATOM     14  O   UNL d   1     -38.288  15.922  22.251  0.00  0.00    -0.242 OA
ENDBRANCH   6   7
ENDBRANCH   2   6
BRANCH   1  15
ATOM     15  C   UNL d   1     -39.085  14.621  18.026  0.00  0.00     0.067 A 
ATOM     16  C   UNL d   1     -38.477  15.066  17.693  0.00  0.00     0.016 A 
ATOM     17  C   UNL d   1     -37.942  14.709  17.179  0.00  0.00     0.001 A 
ATOM     18  C   UNL d   1     -38.406  15.873  17.878  0.00  0.00     0.002 C 
ATOM     19  C   UNL d   1     -38.011  13.907  16.995  0.00  0.00     0.000 A 
ATOM     20  C   UNL d   1     -38.626  13.454  17.330  0.00  0.00     0.001 A 
ATOM     21  C   UNL d   1     -39.158  13.819  17.844  0.00  0.00     0.018 A 
ATOM     22  C   UNL d   1     -38.707  12.651  17.155  0.00  0.00     0.000 C 
ENDBRANCH   1  15
BRANCH   3  23
ATOM     23  S   UNL d   1     -40.551  15.416  17.497  0.00  0.00    -0.048 SA
BRANCH  23  24
ATOM     24  C   UNL d   1     -41.299  15.748  17.331  0.00  0.00     0.038 C 
ATOM     25  C   UNL d   1     -41.505  15.914  16.549  0.00  0.00     0.008 C 
ENDBRANCH  23  24
ENDBRANCH   3  23
TORSDOF 5
ENDMDL
MODEL 4
REMARK VINA RESULT:      -5.9      7.818      9.788
REMARK  5 active torsions:
REMARK  status: ('A' for Active; 'I' for Inactive)
REMARK    1  A    between atoms: C_5  and  N_1 
REMARK    2  A    between atoms: C_12  and  C_2 
REMARK    3  A    between atoms: S_18  and  C_3 
REMARK    4  A    between atoms: C_9  and  C_12 
REMARK    5  A    between atoms: C_23  and  S_18 
ROOT
ATOM      1  N   UNL d   1     -39.159  14.288  20.563  0.00  0.00    -0.269 N 
ATOM      2  C   UNL d   1     -38.826  14.131  19.829  0.00  0.00     0.172 A 
ATOM      3  C   UNL d   1     -38.654  13.998  21.128  0.00  0.00     0.201 A 
ATOM      4  N   UNL d   1     -38.116  13.744  19.955  0.00  0.00    -0.128 NA
ATOM      5  N   UNL d   1     -38.009  13.662  20.768  0.00  0.00    -0.121 NA
ENDROOT
BRANCH   2   6
ATOM      6  C   UNL d   1     -39.210  14.358  19.151  0.00  0.00     0.059 C 
BRANCH   6   7
ATOM      7  C   UNL d   1     -38.957  14.067  18.425  0.00  0.00     0.094 A 
ATOM      8  C   UNL d   1     -38.580  14.563  17.891  0.00  0.00     0.082 A 
ATOM      9  C   UNL d   1     -38.328  14.267  17.163  0.00  0.00     0.285 A 
ATOM     10  O   UNL d   1     -37.939  14.772  16.612  0.00  0.00    -0.265 OA
ATOM     11  N   UNL d   1     -38.462  13.465  16.981  0.00  0.00    -0.152 NA
ATOM     12  C   UNL d   1     -38.837  12.975  17.514  0.00  0.00     0.371 A 
ATOM     13  N   UNL d   1     -39.088  13.279  18.245  0.00  0.00    -0.191 NA
ATOM     14  O   UNL d   1     -38.964  12.182  17.322  0.00  0.00    -0.242 OA
ENDBRANCH   6   7
ENDBRANCH   2   6
BRANCH   1  15
ATOM     15  C   UNL d   1     -39.867  14.664  20.730  0.00  0.00     0.067 A 
ATOM     16  C   UNL d   1     -39.884  15.481  20.833  0.00  0.00     0.016 A 
ATOM     17  C   UNL d   1     -40.595  15.859  21.001  0.00  0.00     0.001 A 
ATOM     18  C   UNL d   1     -39.182  15.921  20.765  0.00  0.00     0.002 C 
ATOM     19  C   UNL d   1     -41.294  15.423  21.069  0.00  0.00     0.000 A 
ATOM     20  C   UNL d   1     -41.279  14.595  20.966  0.00  0.00     0.001 A 
ATOM     21  C   UNL d   1     -40.562  14.225  20.797  0.00  0.00     0.018 A 
ATOM     22  C   UNL d   1     -41.970  14.147  21.031  0.00  0.00     0.000 C 
ENDBRANCH   1  15
BRANCH   3  23
ATOM     23  S   UNL d   1     -38.786  14.044  21.958  0.00  0.00    -0.048 SA
BRANCH  23  24
ATOM     24  C   UNL d   1     -38.277  13.634  22.477  0.00  0.00     0.038 C 
ATOM     25  C   UNL d   1     -38.459  13.598  23.282  0.00  0.00     0.008 C 
ENDBRANCH  23  24
ENDBRANCH   3  23
TORSDOF 5
ENDMDL
MODEL 5
REMARK VINA RESULT:      -5.4      6.976      9.395
REMARK  5 active torsions:
REMARK  status: ('A' for Active; 'I' for Inactive)
REMARK    1  A    between atoms: C_5  and  N_1 
REMARK    2  A    between atoms: C_12  and  C_2 
REMARK    3  A    between atoms: S_18  and  C_3 
REMARK    4  A    between atoms: C_9  and  C_12 
REMARK    5  A    between atoms: C_23  and  S_18 
ROOT
ATOM      1  N   UNL d   1     -40.485  14.418  19.913  0.00  0.00    -0.269 N 
ATOM      2  C   UNL d   1     -40.291  14.456  19.116  0.00  0.00     0.172 A 
ATOM      3  C   UNL d   1     -41.168  13.985  19.978  0.00  0.00     0.201 A 
ATOM      4  N   UNL d   1     -40.863  14.044  18.700  0.00  0.00    -0.128 NA
ATOM      5  N   UNL d   1     -41.411  13.750  19.240  0.00  0.00    -0.121 NA
ENDROOT
BRANCH   2   6
ATOM      6  C   UNL d   1     -39.627  14.857  18.877  0.00  0.00     0.059 C 
BRANCH   6   7
ATOM      7  C   UNL d   1     -39.371  14.791  18.100  0.00  0.00     0.094 A 
ATOM      8  C   UNL d   1     -39.538  15.384  17.559  0.00  0.00     0.082 A 
ATOM      9  C   UNL d   1     -39.280  15.315  16.779  0.00  0.00     0.285 A 
ATOM     10  O   UNL d   1     -39.449  15.922  16.220  0.00  0.00    -0.265 OA
ATOM     11  N   UNL d   1     -38.849  14.638  16.551  0.00  0.00    -0.152 NA
ATOM     12  C   UNL d   1     -38.685  14.050  17.091  0.00  0.00     0.371 A 
ATOM     13  N   UNL d   1     -38.948  14.127  17.875  0.00  0.00    -0.191 NA
ATOM     14  O   UNL d   1     -38.258  13.384  16.853  0.00  0.00    -0.242 OA
ENDBRANCH   6   7
ENDBRANCH   2   6
BRANCH   1  15
ATOM     15  C   UNL d   1     -40.086  14.742  20.550  0.00  0.00     0.067 A 
ATOM     16  C   UNL d   1     -40.286  15.495  20.819  0.00  0.00     0.016 A 
ATOM     17  C   UNL d   1     -39.885  15.821  21.460  0.00  0.00     0.001 A 
ATOM     18  C   UNL d   1     -40.891  15.922  20.443  0.00  0.00     0.002 C 
ATOM     19  C   UNL d   1     -39.282  15.398  21.835  0.00  0.00     0.000 A 
ATOM     20  C   UNL d   1     -39.078  14.636  21.564  0.00  0.00     0.001 A 
ATOM     21  C   UNL d   1     -39.485  14.316  20.922  0.00  0.00     0.018 A 
ATOM     22  C   UNL d   1     -38.478  14.202  21.929  0.00  0.00     0.000 C 
ENDBRANCH   1  15
BRANCH   3  23
ATOM     23  S   UNL d   1     -41.560  13.812  20.704  0.00  0.00    -0.048 SA
BRANCH  23  24
ATOM     24  C   UNL d   1     -42.245  13.335  20.696  0.00  0.00     0.038 C 
ATOM     25  C   UNL d   1     -42.641  13.181  21.404  0.00  0.00     0.008 C 
ENDBRANCH  23  24
ENDBRANCH   3  23
TORSDOF 5
ENDMDL
