MODEL 1
REMARK VINA RESULT:      58.5      0.000      0.000
REMARK  6 active torsions:
REMARK  status: ('A' for Active; 'I' for Inactive)
REMARK    1  A    between atoms: C_4  and  S_1 
REMARK    2  A    between atoms: C_5  and  S_1 
REMARK    3  A    between atoms: C_2  and  N_7 
REMARK    4  A    between atoms: N_3  and  C_2 
REMARK    5  A    between atoms: C_8  and  N_6 
REMARK    6  A    between atoms: N_7  and  C_14 
ROOT
ATOM      1  C   UNL d   1     -50.410  26.785  34.086  0.00  0.00     0.206 C 
ATOM      2  S   UNL d   1     -51.111  26.656  34.505  0.00  0.00    -0.038 SA
ENDROOT
BRANCH   1   3
ATOM      3  N   UNL d   1     -50.241  26.334  33.416  0.00  0.00    -0.218 NA
BRANCH   3   4
ATOM      4  C   UNL d   1     -50.419  25.529  33.407  0.00  0.00     0.085 A 
ATOM      5  C   UNL d   1     -51.204  25.281  33.460  0.00  0.00     0.031 A 
ATOM      6  C   UNL d   1     -51.385  24.479  33.451  0.00  0.00     0.094 A 
ATOM      7  C   UNL d   1     -50.775  23.918  33.388  0.00  0.00     0.012 A 
ATOM      8  C   UNL d   1     -49.990  24.166  33.335  0.00  0.00     0.002 A 
ATOM      9  C   UNL d   1     -49.815  24.974  33.345  0.00  0.00     0.019 A 
BRANCH   6  10
ATOM     10  S   UNL d   1     -52.176  24.225  33.504  0.00  0.00     0.262 S 
ATOM     11  O   UNL d   1     -52.404  24.993  33.696  0.00  0.00    -0.213 OA
ATOM     12  O   UNL d   1     -51.931  23.456  33.309  0.00  0.00    -0.213 OA
BRANCH  10  13
ATOM     13  C   UNL d   1     -52.958  23.968  33.555  0.00  0.00     0.364 C 
ATOM     14  F   UNL d   1     -53.129  23.214  33.849  0.00  0.00    -0.159 F 
ATOM     15  F   UNL d   1     -53.575  24.467  33.312  0.00  0.00    -0.159 F 
ENDBRANCH  10  13
ENDBRANCH   6  10
ENDBRANCH   3   4
ENDBRANCH   1   3
BRANCH   1  16
ATOM     16  N   UNL d   1     -49.879  27.368  34.339  0.00  0.00    -0.278 N 
ATOM     17  C   UNL d   1     -49.460  27.266  35.045  0.00  0.00     0.101 A 
ATOM     18  C   UNL d   1     -48.934  27.846  35.291  0.00  0.00     0.100 A 
ATOM     19  N   UNL d   1     -48.818  28.526  34.847  0.00  0.00    -0.301 N 
ATOM     20  C   UNL d   1     -49.233  28.635  34.140  0.00  0.00     0.100 A 
ATOM     21  C   UNL d   1     -49.767  28.049  33.887  0.00  0.00     0.101 A 
BRANCH  19  22
ATOM     22  C   UNL d   1     -48.283  29.112  35.103  0.00  0.00     0.065 A 
ATOM     23  C   UNL d   1     -48.305  29.868  34.771  0.00  0.00     0.029 A 
ATOM     24  C   UNL d   1     -47.775  30.447  35.025  0.00  0.00     0.059 A 
ATOM     25 CL   UNL d   1     -47.798  31.203  34.693  0.00  0.00    -0.082 Cl
ATOM     26  C   UNL d   1     -47.223  30.269  35.611  0.00  0.00     0.011 A 
ATOM     27  C   UNL d   1     -47.200  29.513  35.943  0.00  0.00     0.002 A 
ATOM     28  C   UNL d   1     -47.730  28.934  35.690  0.00  0.00     0.018 A 
ENDBRANCH  19  22
ENDBRANCH   1  16
TORSDOF 6
ENDMDL
