MODEL 1
REMARK VINA RESULT:     -10.8      0.000      0.000
REMARK  2 active torsions:
REMARK  status: ('A' for Active; 'I' for Inactive)
REMARK    1  A    between atoms: C_7  and  C_1 
REMARK    2  A    between atoms: O_14  and  C_11 
ROOT
ATOM      1  C   UNL d   1      53.818  32.704  54.069  0.00  0.00     0.066 A 
ATOM      2  C   UNL d   1      53.753  31.933  54.431  0.00  0.00     0.200 A 
ATOM      3  C   UNL d   1      53.448  31.306  53.991  0.00  0.00     0.062 A 
ATOM      4  C   UNL d   1      53.577  32.811  53.286  0.00  0.00     0.126 A 
ATOM      5  C   UNL d   1      53.207  31.413  53.209  0.00  0.00     0.106 A 
ATOM      6  O   UNL d   1      53.264  32.151  52.845  0.00  0.00    -0.305 OA
ATOM      7  C   UNL d   1      53.386  30.547  54.354  0.00  0.00     0.009 A 
ATOM      8  C   UNL d   1      52.897  30.765  52.768  0.00  0.00     0.067 A 
ATOM      9  O   UNL d   1      53.999  31.824  55.228  0.00  0.00    -0.286 OA
ATOM     10  C   UNL d   1      52.834  30.002  53.130  0.00  0.00     0.198 A 
ATOM     11  C   UNL d   1      53.075  29.894  53.912  0.00  0.00     0.042 A 
ATOM     12  O   UNL d   1      52.523  29.351  52.689  0.00  0.00    -0.286 OA
ENDROOT
BRANCH   1  13
ATOM     13  C   UNL d   1      54.032  33.151  54.373  0.00  0.00     0.027 A 
ATOM     14  C   UNL d   1      53.707  33.616  54.470  0.00  0.00     0.094 A 
ATOM     15  C   UNL d   1      53.913  34.065  54.772  0.00  0.00     0.024 A 
ATOM     16  C   UNL d   1      54.460  34.037  54.976  0.00  0.00     0.002 A 
ATOM     17  C   UNL d   1      54.785  33.572  54.878  0.00  0.00     0.000 A 
ATOM     18  C   UNL d   1      54.571  33.125  54.575  0.00  0.00     0.002 A 
BRANCH  14  19
ATOM     19  O   UNL d   1      53.155  33.642  54.263  0.00  0.00    -0.328 OA
ATOM     20  C   UNL d   1      52.838  34.118  54.339  0.00  0.00     0.181 C 
ENDBRANCH  14  19
ENDBRANCH   1  13
TORSDOF 2
ENDMDL
MODEL 2
REMARK VINA RESULT:     -10.8      1.584      2.755
REMARK  2 active torsions:
REMARK  status: ('A' for Active; 'I' for Inactive)
REMARK    1  A    between atoms: C_7  and  C_1 
REMARK    2  A    between atoms: O_14  and  C_11 
ROOT
ATOM      1  C   UNL d   1      53.456  33.357  54.189  0.00  0.00     0.066 A 
ATOM      2  C   UNL d   1      53.036  34.083  54.029  0.00  0.00     0.200 A 
ATOM      3  C   UNL d   1      52.325  34.054  53.613  0.00  0.00     0.062 A 
ATOM      4  C   UNL d   1      53.147  32.637  53.925  0.00  0.00     0.126 A 
ATOM      5  C   UNL d   1      52.016  33.334  53.349  0.00  0.00     0.106 A 
ATOM      6  O   UNL d   1      52.410  32.625  53.495  0.00  0.00    -0.305 OA
ATOM      7  C   UNL d   1      51.914  34.774  53.458  0.00  0.00     0.009 A 
ATOM      8  C   UNL d   1      51.288  33.316  52.924  0.00  0.00     0.067 A 
ATOM      9  O   UNL d   1      53.351  34.815  54.297  0.00  0.00    -0.286 OA
ATOM     10  C   UNL d   1      50.874  34.038  52.767  0.00  0.00     0.198 A 
ATOM     11  C   UNL d   1      51.183  34.757  53.031  0.00  0.00     0.042 A 
ATOM     12  O   UNL d   1      50.144  34.021  52.341  0.00  0.00    -0.286 OA
ENDROOT
BRANCH   1  13
ATOM     13  C   UNL d   1      53.958  33.369  54.482  0.00  0.00     0.027 A 
ATOM     14  C   UNL d   1      54.444  33.188  54.231  0.00  0.00     0.094 A 
ATOM     15  C   UNL d   1      54.948  33.197  54.517  0.00  0.00     0.024 A 
ATOM     16  C   UNL d   1      54.953  33.395  55.067  0.00  0.00     0.002 A 
ATOM     17  C   UNL d   1      54.467  33.576  55.317  0.00  0.00     0.000 A 
ATOM     18  C   UNL d   1      53.965  33.564  55.024  0.00  0.00     0.002 A 
BRANCH  14  19
ATOM     19  O   UNL d   1      54.436  32.989  53.676  0.00  0.00    -0.328 OA
ATOM     20  C   UNL d   1      54.919  32.788  53.432  0.00  0.00     0.181 C 
ENDBRANCH  14  19
ENDBRANCH   1  13
TORSDOF 2
ENDMDL
MODEL 3
REMARK VINA RESULT:     -10.6      0.980      3.291
REMARK  2 active torsions:
REMARK  status: ('A' for Active; 'I' for Inactive)
REMARK    1  A    between atoms: C_7  and  C_1 
REMARK    2  A    between atoms: O_14  and  C_11 
ROOT
ATOM      1  C   UNL d   1      53.253  32.307  53.458  0.00  0.00     0.066 A 
ATOM      2  C   UNL d   1      53.482  32.707  54.177  0.00  0.00     0.200 A 
ATOM      3  C   UNL d   1      53.346  33.517  54.248  0.00  0.00     0.062 A 
ATOM      4  C   UNL d   1      52.900  32.734  52.846  0.00  0.00     0.126 A 
ATOM      5  C   UNL d   1      52.993  33.944  53.636  0.00  0.00     0.106 A 
ATOM      6  O   UNL d   1      52.766  33.572  52.936  0.00  0.00    -0.305 OA
ATOM      7  C   UNL d   1      53.573  33.906  54.961  0.00  0.00     0.009 A 
ATOM      8  C   UNL d   1      52.858  34.772  53.719  0.00  0.00     0.067 A 
ATOM      9  O   UNL d   1      53.841  32.272  54.801  0.00  0.00    -0.286 OA
ATOM     10  C   UNL d   1      53.086  35.165  54.434  0.00  0.00     0.198 A 
ATOM     11  C   UNL d   1      53.439  34.738  55.046  0.00  0.00     0.042 A 
ATOM     12  O   UNL d   1      52.951  35.996  54.519  0.00  0.00    -0.286 OA
ENDROOT
BRANCH   1  13
ATOM     13  C   UNL d   1      53.346  31.736  53.400  0.00  0.00     0.027 A 
ATOM     14  C   UNL d   1      52.911  31.385  53.262  0.00  0.00     0.094 A 
ATOM     15  C   UNL d   1      52.996  30.815  53.202  0.00  0.00     0.024 A 
ATOM     16  C   UNL d   1      53.534  30.603  53.286  0.00  0.00     0.002 A 
ATOM     17  C   UNL d   1      53.969  30.954  53.424  0.00  0.00     0.000 A 
ATOM     18  C   UNL d   1      53.876  31.525  53.482  0.00  0.00     0.002 A 
BRANCH  14  19
ATOM     19  O   UNL d   1      52.369  31.601  53.178  0.00  0.00    -0.328 OA
ATOM     20  C   UNL d   1      51.932  31.249  53.049  0.00  0.00     0.181 C 
ENDBRANCH  14  19
ENDBRANCH   1  13
TORSDOF 2
ENDMDL
MODEL 4
REMARK VINA RESULT:     -10.5      1.785      3.385
REMARK  2 active torsions:
REMARK  status: ('A' for Active; 'I' for Inactive)
REMARK    1  A    between atoms: C_7  and  C_1 
REMARK    2  A    between atoms: O_14  and  C_11 
ROOT
ATOM      1  C   UNL d   1      52.151  34.116  53.119  0.00  0.00     0.066 A 
ATOM      2  C   UNL d   1      52.681  33.448  53.166  0.00  0.00     0.200 A 
ATOM      3  C   UNL d   1      53.256  33.431  53.756  0.00  0.00     0.062 A 
ATOM      4  C   UNL d   1      52.221  34.734  53.662  0.00  0.00     0.126 A 
ATOM      5  C   UNL d   1      53.326  34.049  54.299  0.00  0.00     0.106 A 
ATOM      6  O   UNL d   1      52.822  34.701  54.267  0.00  0.00    -0.305 OA
ATOM      7  C   UNL d   1      53.777  32.769  53.798  0.00  0.00     0.009 A 
ATOM      8  C   UNL d   1      53.918  34.022  54.899  0.00  0.00     0.067 A 
ATOM      9  O   UNL d   1      52.609  32.819  52.613  0.00  0.00    -0.286 OA
ATOM     10  C   UNL d   1      54.442  33.358  54.943  0.00  0.00     0.198 A 
ATOM     11  C   UNL d   1      54.372  32.740  54.399  0.00  0.00     0.042 A 
ATOM     12  O   UNL d   1      55.036  33.329  55.544  0.00  0.00    -0.286 OA
ENDROOT
BRANCH   1  13
ATOM     13  C   UNL d   1      51.742  34.136  52.705  0.00  0.00     0.027 A 
ATOM     14  C   UNL d   1      51.185  34.105  52.848  0.00  0.00     0.094 A 
ATOM     15  C   UNL d   1      50.773  34.123  52.442  0.00  0.00     0.024 A 
ATOM     16  C   UNL d   1      50.934  34.174  51.882  0.00  0.00     0.002 A 
ATOM     17  C   UNL d   1      51.491  34.205  51.740  0.00  0.00     0.000 A 
ATOM     18  C   UNL d   1      51.900  34.186  52.153  0.00  0.00     0.002 A 
BRANCH  14  19
ATOM     19  O   UNL d   1      51.025  34.053  53.413  0.00  0.00    -0.328 OA
ATOM     20  C   UNL d   1      50.467  34.035  53.557  0.00  0.00     0.181 C 
ENDBRANCH  14  19
ENDBRANCH   1  13
TORSDOF 2
ENDMDL
