MODEL 1
REMARK VINA RESULT:      59.3      0.000      0.000
REMARK  7 active torsions:
REMARK  status: ('A' for Active; 'I' for Inactive)
REMARK    1  A    between atoms: N_4  and  C_2 
REMARK    2  A    between atoms: C_8  and  C_3 
REMARK       I    between atoms: C_7  and  N_4 
REMARK    3  A    between atoms: C_13  and  C_7 
REMARK    4  A    between atoms: S_11  and  C_16 
REMARK    5  A    between atoms: C_12  and  S_11 
REMARK    6  A    between atoms: C_19  and  C_13 
REMARK    7  A    between atoms: C_16  and  C_19 
ROOT
ATOM      1  N   UNL d   1      60.048  48.552  51.365  0.00  0.00    -0.183 NA
ATOM      2  C   UNL d   1      60.728  48.929  51.073  0.00  0.00     0.281 C 
ATOM      3  O   UNL d   1      60.685  49.671  50.735  0.00  0.00    -0.265 OA
ENDROOT
BRANCH   1   4
ATOM      4  C   UNL d   1      59.320  48.941  51.310  0.00  0.00     0.197 A 
ATOM      5  N   UNL d   1      58.791  48.890  50.676  0.00  0.00    -0.219 NA
ATOM      6  C   UNL d   1      58.140  49.367  50.857  0.00  0.00     0.108 A 
ATOM      7  C   UNL d   1      58.270  49.708  51.598  0.00  0.00     0.059 A 
ATOM      8  S   UNL d   1      58.998  49.447  51.881  0.00  0.00    -0.046 SA
BRANCH   6   9
ATOM      9  C   UNL d   1      57.486  49.479  50.386  0.00  0.00     0.100 A 
ATOM     10  N   UNL d   1      56.727  49.515  50.729  0.00  0.00    -0.242 NA
ATOM     11  C   UNL d   1      56.069  49.630  50.243  0.00  0.00     0.099 A 
ATOM     12  C   UNL d   1      56.162  49.708  49.427  0.00  0.00     0.021 A 
ATOM     13  C   UNL d   1      56.917  49.671  49.093  0.00  0.00     0.003 A 
ATOM     14  C   UNL d   1      57.580  49.557  49.574  0.00  0.00     0.021 A 
ENDBRANCH   6   9
ENDBRANCH   1   4
BRANCH   2  15
ATOM     15  C   UNL d   1      61.456  48.536  51.129  0.00  0.00     0.063 C 
BRANCH  15  16
ATOM     16  C   UNL d   1      61.485  47.776  51.462  0.00  0.00     0.012 C 
BRANCH  16  17
ATOM     17  C   UNL d   1      61.693  47.129  50.999  0.00  0.00     0.036 C 
BRANCH  17  18
ATOM     18  S   UNL d   1      61.340  47.012  50.269  0.00  0.00    -0.086 SA
BRANCH  18  19
ATOM     19  C   UNL d   1      61.580  46.386  49.789  0.00  0.00     0.029 A 
ATOM     20  C   UNL d   1      61.142  45.686  49.777  0.00  0.00     0.005 A 
ATOM     21  C   UNL d   1      61.378  45.059  49.299  0.00  0.00    -0.012 A 
ATOM     22  C   UNL d   1      62.054  45.128  48.831  0.00  0.00     0.026 A 
ATOM     23  C   UNL d   1      62.493  45.825  48.842  0.00  0.00    -0.012 A 
ATOM     24  C   UNL d   1      62.256  46.455  49.321  0.00  0.00     0.005 A 
ENDBRANCH  18  19
ENDBRANCH  17  18
ENDBRANCH  16  17
ENDBRANCH  15  16
ENDBRANCH   2  15
TORSDOF 7
ENDMDL
MODEL 2
REMARK VINA RESULT:      60.9      1.156      4.959
REMARK  7 active torsions:
REMARK  status: ('A' for Active; 'I' for Inactive)
REMARK    1  A    between atoms: N_4  and  C_2 
REMARK    2  A    between atoms: C_8  and  C_3 
REMARK       I    between atoms: C_7  and  N_4 
REMARK    3  A    between atoms: C_13  and  C_7 
REMARK    4  A    between atoms: S_11  and  C_16 
REMARK    5  A    between atoms: C_12  and  S_11 
REMARK    6  A    between atoms: C_19  and  C_13 
REMARK    7  A    between atoms: C_16  and  C_19 
ROOT
ATOM      1  N   UNL d   1      60.491  48.426  50.991  0.00  0.00    -0.183 NA
ATOM      2  C   UNL d   1      60.590  49.250  51.034  0.00  0.00     0.281 C 
ATOM      3  O   UNL d   1      61.147  49.630  50.574  0.00  0.00    -0.265 OA
ENDROOT
BRANCH   1   4
ATOM      4  C   UNL d   1      60.967  47.992  50.473  0.00  0.00     0.197 A 
ATOM      5  N   UNL d   1      60.897  47.183  50.315  0.00  0.00    -0.219 NA
ATOM      6  C   UNL d   1      61.484  46.986  49.767  0.00  0.00     0.108 A 
ATOM      7  C   UNL d   1      61.911  47.670  49.591  0.00  0.00     0.059 A 
ATOM      8  S   UNL d   1      61.595  48.294  50.025  0.00  0.00    -0.046 SA
BRANCH   6   9
ATOM      9  C   UNL d   1      61.616  46.245  49.457  0.00  0.00     0.100 A 
ATOM     10  N   UNL d   1      62.373  46.043  49.171  0.00  0.00    -0.242 NA
ATOM     11  C   UNL d   1      62.499  45.289  48.858  0.00  0.00     0.099 A 
ATOM     12  C   UNL d   1      61.881  44.742  48.828  0.00  0.00     0.021 A 
ATOM     13  C   UNL d   1      61.134  44.948  49.113  0.00  0.00     0.003 A 
ATOM     14  C   UNL d   1      61.002  45.702  49.428  0.00  0.00     0.021 A 
ENDBRANCH   6   9
ENDBRANCH   1   4
BRANCH   2  15
ATOM     15  C   UNL d   1      60.111  49.683  51.554  0.00  0.00     0.063 C 
BRANCH  15  16
ATOM     16  C   UNL d   1      59.289  49.696  51.436  0.00  0.00     0.012 C 
BRANCH  16  17
ATOM     17  C   UNL d   1      58.958  49.315  50.787  0.00  0.00     0.036 C 
BRANCH  17  18
ATOM     18  S   UNL d   1      58.185  49.047  50.814  0.00  0.00    -0.086 SA
BRANCH  18  19
ATOM     19  C   UNL d   1      57.653  49.257  50.220  0.00  0.00     0.029 A 
ATOM     20  C   UNL d   1      57.936  49.494  49.481  0.00  0.00     0.005 A 
ATOM     21  C   UNL d   1      57.408  49.704  48.885  0.00  0.00    -0.012 A 
ATOM     22  C   UNL d   1      56.596  49.678  49.025  0.00  0.00     0.026 A 
ATOM     23  C   UNL d   1      56.312  49.442  49.761  0.00  0.00    -0.012 A 
ATOM     24  C   UNL d   1      56.841  49.231  50.360  0.00  0.00     0.005 A 
ENDBRANCH  18  19
ENDBRANCH  17  18
ENDBRANCH  16  17
ENDBRANCH  15  16
ENDBRANCH   2  15
TORSDOF 7
ENDMDL
