MODEL 1
REMARK VINA RESULT:      27.0      0.000      0.000
REMARK  2 active torsions:
REMARK  status: ('A' for Active; 'I' for Inactive)
REMARK    1  A    between atoms: C_10  and  N_1 
REMARK    2  A    between atoms: N_11  and  C_10 
ROOT
ATOM      1  N   UNL d   1      46.268 -17.524  43.866  0.00  0.00    -0.175 N 
ATOM      2  N   UNL d   1      46.330 -17.349  42.751  0.00  0.00    -0.161 NA
ATOM      3  C   UNL d   1      46.416 -18.069  42.364  0.00  0.00     0.102 A 
ATOM      4  C   UNL d   1      46.445 -18.770  42.792  0.00  0.00     0.024 A 
ATOM      5  C   UNL d   1      46.314 -18.300  44.131  0.00  0.00     0.282 A 
ATOM      6  C   UNL d   1      46.402 -18.920  43.596  0.00  0.00     0.059 A 
ATOM      7  C   UNL d   1      46.534 -19.397  42.252  0.00  0.00     0.002 A 
ATOM      8  C   UNL d   1      46.487 -18.260  41.566  0.00  0.00     0.019 A 
ATOM      9  C   UNL d   1      46.560 -19.077  41.496  0.00  0.00     0.002 A 
ATOM     10  O   UNL d   1      46.270 -18.450  44.952  0.00  0.00    -0.265 OA
ATOM     11  C   UNL d   1      46.448 -19.701  43.874  0.00  0.00     0.005 A 
ATOM     12  C   UNL d   1      46.580 -20.166  42.523  0.00  0.00     0.000 A 
ATOM     13  C   UNL d   1      46.495 -17.791  40.886  0.00  0.00     0.002 A 
ATOM     14  C   UNL d   1      46.639 -19.418  40.751  0.00  0.00     0.000 A 
ATOM     15  C   UNL d   1      46.537 -20.329  43.333  0.00  0.00     0.000 A 
ATOM     16  C   UNL d   1      46.575 -18.139  40.137  0.00  0.00     0.000 A 
ATOM     17  C   UNL d   1      46.647 -18.950  40.071  0.00  0.00     0.000 A 
ENDROOT
BRANCH   1  18
ATOM     18  C   UNL d   1      46.181 -17.040  44.534  0.00  0.00     0.188 C 
BRANCH  18  19
ATOM     19  N   UNL d   1      45.934 -16.254  44.443  0.00  0.00    -0.283 N 
ATOM     20  C   UNL d   1      46.439 -15.705  44.100  0.00  0.00     0.108 A 
ATOM     21  C   UNL d   1      46.194 -14.919  44.007  0.00  0.00     0.142 A 
ATOM     22  O   UNL d   1      45.438 -14.694  44.263  0.00  0.00    -0.300 OA
ATOM     23  C   UNL d   1      44.933 -15.248  44.607  0.00  0.00     0.142 A 
ATOM     24  C   UNL d   1      45.185 -16.042  44.699  0.00  0.00     0.108 A 
ENDBRANCH  18  19
ENDBRANCH   1  18
TORSDOF 2
ENDMDL
