MODEL 1
REMARK VINA RESULT:      -6.6      0.000      0.000
REMARK  3 active torsions:
REMARK  status: ('A' for Active; 'I' for Inactive)
REMARK    1  A    between atoms: C_2  and  C_4 
REMARK    2  A    between atoms: N_3  and  C_2 
REMARK    3  A    between atoms: C_5  and  N_3 
ROOT
ATOM      1  C   UNL d   1     -41.635-122.417 -51.524  0.00  0.00     0.153 C 
ATOM      2  S   UNL d   1     -41.123-121.869 -51.186  0.00  0.00    -0.056 SA
ENDROOT
BRANCH   1   3
ATOM      3  C   UNL d   1     -41.586-122.581 -52.331  0.00  0.00     0.109 A 
ATOM      4  N   UNL d   1     -41.949-122.070 -52.884  0.00  0.00    -0.243 NA
ATOM      5  C   UNL d   1     -41.897-122.238 -53.693  0.00  0.00     0.081 A 
ATOM      6  C   UNL d   1     -41.487-122.911 -53.950  0.00  0.00     0.018 A 
ATOM      7  C   UNL d   1     -42.253-121.737 -54.241  0.00  0.00     0.019 A 
ATOM      8  C   UNL d   1     -41.128-123.416 -53.403  0.00  0.00     0.003 A 
ATOM      9  C   UNL d   1     -41.438-123.073 -54.754  0.00  0.00     0.002 A 
ATOM     10  C   UNL d   1     -41.177-123.251 -52.597  0.00  0.00     0.021 A 
ATOM     11  C   UNL d   1     -41.792-122.577 -55.302  0.00  0.00     0.000 A 
ATOM     12  C   UNL d   1     -42.198-121.909 -55.046  0.00  0.00     0.002 A 
ENDBRANCH   1   3
BRANCH   1  13
ATOM     13  N   UNL d   1     -42.198-122.800 -51.061  0.00  0.00    -0.233 NA
BRANCH  13  14
ATOM     14  C   UNL d   1     -42.044-122.940 -50.259  0.00  0.00     0.082 A 
ATOM     15  C   UNL d   1     -42.673-122.917 -49.716  0.00  0.00     0.018 A 
ATOM     16  C   UNL d   1     -42.511-123.058 -48.916  0.00  0.00     0.002 A 
ATOM     17  C   UNL d   1     -43.439-122.759 -49.967  0.00  0.00     0.002 C 
ATOM     18  C   UNL d   1     -41.745-123.216 -48.664  0.00  0.00     0.000 A 
ATOM     19  C   UNL d   1     -41.125-123.237 -49.210  0.00  0.00     0.002 A 
ATOM     20  C   UNL d   1     -41.592-123.356 -47.861  0.00  0.00     0.000 C 
ATOM     21  C   UNL d   1     -41.275-123.099 -50.010  0.00  0.00     0.019 A 
ENDBRANCH  13  14
ENDBRANCH   1  13
TORSDOF 3
ENDMDL
MODEL 2
REMARK VINA RESULT:      -6.4      0.656      4.608
REMARK  3 active torsions:
REMARK  status: ('A' for Active; 'I' for Inactive)
REMARK    1  A    between atoms: C_2  and  C_4 
REMARK    2  A    between atoms: N_3  and  C_2 
REMARK    3  A    between atoms: C_5  and  N_3 
ROOT
ATOM      1  C   UNL d   1     -41.601-122.531 -52.283  0.00  0.00     0.153 C 
ATOM      2  S   UNL d   1     -41.416-121.737 -52.397  0.00  0.00    -0.056 SA
ENDROOT
BRANCH   1   3
ATOM      3  C   UNL d   1     -41.631-122.840 -51.519  0.00  0.00     0.109 A 
ATOM      4  N   UNL d   1     -42.176-122.531 -50.966  0.00  0.00    -0.243 NA
ATOM      5  C   UNL d   1     -42.204-122.843 -50.199  0.00  0.00     0.081 A 
ATOM      6  C   UNL d   1     -41.692-123.458 -49.985  0.00  0.00     0.018 A 
ATOM      7  C   UNL d   1     -42.740-122.542 -49.651  0.00  0.00     0.019 A 
ATOM      8  C   UNL d   1     -41.152-123.764 -50.532  0.00  0.00     0.003 A 
ATOM      9  C   UNL d   1     -41.723-123.764 -49.223  0.00  0.00     0.002 A 
ATOM     10  C   UNL d   1     -41.123-123.455 -51.296  0.00  0.00     0.021 A 
ATOM     11  C   UNL d   1     -42.255-123.467 -48.675  0.00  0.00     0.000 A 
ATOM     12  C   UNL d   1     -42.762-122.857 -48.889  0.00  0.00     0.002 A 
ENDBRANCH   1   3
BRANCH   1  13
ATOM     13  N   UNL d   1     -41.758-123.018 -52.929  0.00  0.00    -0.233 NA
BRANCH  13  14
ATOM     14  C   UNL d   1     -41.824-122.688 -53.686  0.00  0.00     0.082 A 
ATOM     15  C   UNL d   1     -41.503-123.096 -54.335  0.00  0.00     0.018 A 
ATOM     16  C   UNL d   1     -41.573-122.760 -55.089  0.00  0.00     0.002 A 
ATOM     17  C   UNL d   1     -41.124-123.817 -54.231  0.00  0.00     0.002 C 
ATOM     18  C   UNL d   1     -41.952-122.038 -55.193  0.00  0.00     0.000 A 
ATOM     19  C   UNL d   1     -42.269-121.638 -54.542  0.00  0.00     0.002 A 
ATOM     20  C   UNL d   1     -42.018-121.709 -55.951  0.00  0.00     0.000 C 
ATOM     21  C   UNL d   1     -42.205-121.965 -53.787  0.00  0.00     0.019 A 
ENDBRANCH  13  14
ENDBRANCH   1  13
TORSDOF 3
ENDMDL
MODEL 3
REMARK VINA RESULT:      -4.4      0.812      4.530
REMARK  3 active torsions:
REMARK  status: ('A' for Active; 'I' for Inactive)
REMARK    1  A    between atoms: C_2  and  C_4 
REMARK    2  A    between atoms: N_3  and  C_2 
REMARK    3  A    between atoms: C_5  and  N_3 
ROOT
ATOM      1  C   UNL d   1     -41.588-123.149 -52.330  0.00  0.00     0.153 C 
ATOM      2  S   UNL d   1     -41.340-123.781 -52.795  0.00  0.00    -0.056 SA
ENDROOT
BRANCH   1   3
ATOM      3  C   UNL d   1     -41.656-123.242 -51.513  0.00  0.00     0.109 A 
ATOM      4  N   UNL d   1     -42.266-122.850 -51.098  0.00  0.00    -0.243 NA
ATOM      5  C   UNL d   1     -42.333-122.945 -50.278  0.00  0.00     0.081 A 
ATOM      6  C   UNL d   1     -41.794-123.429 -49.874  0.00  0.00     0.018 A 
ATOM      7  C   UNL d   1     -42.932-122.560 -49.866  0.00  0.00     0.019 A 
ATOM      8  C   UNL d   1     -41.190-123.818 -50.285  0.00  0.00     0.003 A 
ATOM      9  C   UNL d   1     -41.864-123.521 -49.061  0.00  0.00     0.002 A 
ATOM     10  C   UNL d   1     -41.123-123.724 -51.101  0.00  0.00     0.021 A 
ATOM     11  C   UNL d   1     -42.459-123.139 -48.647  0.00  0.00     0.000 A 
ATOM     12  C   UNL d   1     -42.992-122.660 -49.049  0.00  0.00     0.002 A 
ENDBRANCH   1   3
BRANCH   1  13
ATOM     13  N   UNL d   1     -41.768-122.423 -52.676  0.00  0.00    -0.233 NA
BRANCH  13  14
ATOM     14  C   UNL d   1     -41.844-122.368 -53.499  0.00  0.00     0.082 A 
ATOM     15  C   UNL d   1     -42.086-121.648 -53.837  0.00  0.00     0.018 A 
ATOM     16  C   UNL d   1     -42.159-121.601 -54.660  0.00  0.00     0.002 A 
ATOM     17  C   UNL d   1     -42.248-120.997 -53.363  0.00  0.00     0.002 C 
ATOM     18  C   UNL d   1     -41.997-122.252 -55.134  0.00  0.00     0.000 A 
ATOM     19  C   UNL d   1     -41.757-122.965 -54.791  0.00  0.00     0.002 A 
ATOM     20  C   UNL d   1     -42.073-122.196 -55.958  0.00  0.00     0.000 C 
ATOM     21  C   UNL d   1     -41.681-123.023 -53.971  0.00  0.00     0.019 A 
ENDBRANCH  13  14
ENDBRANCH   1  13
TORSDOF 3
ENDMDL
