MODEL 1
REMARK VINA RESULT:      -8.5      0.000      0.000
REMARK  3 active torsions:
REMARK  status: ('A' for Active; 'I' for Inactive)
REMARK    1  A    between atoms: C_10  and  C_4 
REMARK    2  A    between atoms: C_13  and  C_10 
REMARK    3  A    between atoms: C_11  and  C_13 
ROOT
ATOM      1  C   UNL d   1      52.724  31.682  52.926  0.00  0.00     0.752 A 
ATOM      2  N   UNL d   1      53.359  31.787  53.440  0.00  0.00    -0.056 N 
ATOM      3  N   UNL d   1      52.289  32.338  52.684  0.00  0.00    -0.059 NA
ATOM      4  C   UNL d   1      53.122  33.194  53.466  0.00  0.00     0.037 A 
ATOM      5  C   UNL d   1      53.563  32.542  53.713  0.00  0.00     0.102 A 
ATOM      6  N   UNL d   1      52.662  30.887  52.757  0.00  0.00    -0.035 NA
ATOM      7  C   UNL d   1      52.485  33.092  52.951  0.00  0.00     0.101 A 
ATOM      8  N   UNL d   1      53.688  31.047  53.585  0.00  0.00    -0.127 NA
ATOM      9  C   UNL d   1      53.257  30.481  53.162  0.00  0.00     0.239 A 
ATOM     10  C   UNL d   1      54.195  32.640  54.223  0.00  0.00     0.021 C 
ATOM     11  C   UNL d   1      52.044  33.744  52.704  0.00  0.00     0.021 C 
ENDROOT
BRANCH   4  12
ATOM     12  C   UNL d   1      53.313  33.945  53.728  0.00  0.00     0.009 C 
BRANCH  12  13
ATOM     13  C   UNL d   1      52.900  34.282  54.358  0.00  0.00     0.070 C 
BRANCH  13  14
ATOM     14  C   UNL d   1      53.150  35.001  54.674  0.00  0.00     0.211 C 
ATOM     15  O   UNL d   1      53.290  35.646  54.180  0.00  0.00    -0.644 OA
ATOM     16  O   UNL d   1      53.259  35.078  55.487  0.00  0.00    -0.644 OA
ENDBRANCH  13  14
ENDBRANCH  12  13
ENDBRANCH   4  12
TORSDOF 3
ENDMDL
MODEL 2
REMARK VINA RESULT:      -8.2      1.829      2.686
REMARK  3 active torsions:
REMARK  status: ('A' for Active; 'I' for Inactive)
REMARK    1  A    between atoms: C_10  and  C_4 
REMARK    2  A    between atoms: C_13  and  C_10 
REMARK    3  A    between atoms: C_11  and  C_13 
ROOT
ATOM      1  C   UNL d   1      53.907  33.052  54.473  0.00  0.00     0.752 A 
ATOM      2  N   UNL d   1      53.725  33.855  54.463  0.00  0.00    -0.056 N 
ATOM      3  N   UNL d   1      53.512  32.543  53.960  0.00  0.00    -0.059 NA
ATOM      4  C   UNL d   1      52.762  33.638  53.434  0.00  0.00     0.037 A 
ATOM      5  C   UNL d   1      53.153  34.154  53.945  0.00  0.00     0.102 A 
ATOM      6  N   UNL d   1      54.485  32.928  55.035  0.00  0.00    -0.035 NA
ATOM      7  C   UNL d   1      52.941  32.832  53.441  0.00  0.00     0.101 A 
ATOM      8  N   UNL d   1      54.198  34.225  55.026  0.00  0.00    -0.127 NA
ATOM      9  C   UNL d   1      54.674  33.652  55.386  0.00  0.00     0.239 A 
ATOM     10  C   UNL d   1      52.976  34.952  53.939  0.00  0.00     0.021 C 
ATOM     11  C   UNL d   1      52.550  32.316  52.931  0.00  0.00     0.021 C 
ENDROOT
BRANCH   4  12
ATOM     12  C   UNL d   1      52.194  33.920  52.917  0.00  0.00     0.009 C 
BRANCH  12  13
ATOM     13  C   UNL d   1      51.393  33.845  53.098  0.00  0.00     0.070 C 
BRANCH  13  14
ATOM     14  C   UNL d   1      50.827  34.189  52.607  0.00  0.00     0.211 C 
ATOM     15  O   UNL d   1      50.969  34.263  51.798  0.00  0.00    -0.644 OA
ATOM     16  O   UNL d   1      50.116  34.459  52.924  0.00  0.00    -0.644 OA
ENDBRANCH  13  14
ENDBRANCH  12  13
ENDBRANCH   4  12
TORSDOF 3
ENDMDL
MODEL 3
REMARK VINA RESULT:      -8.0      1.386      2.460
REMARK  3 active torsions:
REMARK  status: ('A' for Active; 'I' for Inactive)
REMARK    1  A    between atoms: C_10  and  C_4 
REMARK    2  A    between atoms: C_13  and  C_10 
REMARK    3  A    between atoms: C_11  and  C_13 
ROOT
ATOM      1  C   UNL d   1      52.130  33.293  52.673  0.00  0.00     0.752 A 
ATOM      2  N   UNL d   1      52.177  33.934  53.188  0.00  0.00    -0.056 N 
ATOM      3  N   UNL d   1      52.605  32.634  52.805  0.00  0.00    -0.059 NA
ATOM      4  C   UNL d   1      53.166  33.257  53.961  0.00  0.00     0.037 A 
ATOM      5  C   UNL d   1      52.694  33.921  53.835  0.00  0.00     0.102 A 
ATOM      6  N   UNL d   1      51.579  33.468  52.098  0.00  0.00    -0.035 NA
ATOM      7  C   UNL d   1      53.122  32.613  53.447  0.00  0.00     0.101 A 
ATOM      8  N   UNL d   1      51.648  34.506  52.924  0.00  0.00    -0.127 NA
ATOM      9  C   UNL d   1      51.272  34.221  52.244  0.00  0.00     0.239 A 
ATOM     10  C   UNL d   1      52.737  34.560  54.343  0.00  0.00     0.021 C 
ATOM     11  C   UNL d   1      53.594  31.948  53.572  0.00  0.00     0.021 C 
ENDROOT
BRANCH   4  12
ATOM     12  C   UNL d   1      53.682  33.231  54.596  0.00  0.00     0.009 C 
BRANCH  12  13
ATOM     13  C   UNL d   1      54.452  33.514  54.518  0.00  0.00     0.070 C 
BRANCH  13  14
ATOM     14  C   UNL d   1      54.941  33.563  55.179  0.00  0.00     0.211 C 
ATOM     15  O   UNL d   1      54.760  33.137  55.862  0.00  0.00    -0.644 OA
ATOM     16  O   UNL d   1      55.613  34.040  55.160  0.00  0.00    -0.644 OA
ENDBRANCH  13  14
ENDBRANCH  12  13
ENDBRANCH   4  12
TORSDOF 3
ENDMDL
MODEL 4
REMARK VINA RESULT:      -8.0      2.376      3.524
REMARK  3 active torsions:
REMARK  status: ('A' for Active; 'I' for Inactive)
REMARK    1  A    between atoms: C_10  and  C_4 
REMARK    2  A    between atoms: C_13  and  C_10 
REMARK    3  A    between atoms: C_11  and  C_13 
ROOT
ATOM      1  C   UNL d   1      53.371  34.338  54.650  0.00  0.00     0.752 A 
ATOM      2  N   UNL d   1      52.956  34.325  53.939  0.00  0.00    -0.056 N 
ATOM      3  N   UNL d   1      53.762  33.659  54.901  0.00  0.00    -0.059 NA
ATOM      4  C   UNL d   1      53.321  32.961  53.736  0.00  0.00     0.037 A 
ATOM      5  C   UNL d   1      52.927  33.638  53.477  0.00  0.00     0.102 A 
ATOM      6  N   UNL d   1      53.298  35.083  54.974  0.00  0.00    -0.035 NA
ATOM      7  C   UNL d   1      53.738  32.971  54.447  0.00  0.00     0.101 A 
ATOM      8  N   UNL d   1      52.625  35.071  53.829  0.00  0.00    -0.127 NA
ATOM      9  C   UNL d   1      52.835  35.548  54.472  0.00  0.00     0.239 A 
ATOM     10  C   UNL d   1      52.513  33.631  52.772  0.00  0.00     0.021 C 
ATOM     11  C   UNL d   1      54.132  32.294  54.706  0.00  0.00     0.021 C 
ENDROOT
BRANCH   4  12
ATOM     12  C   UNL d   1      53.301  32.276  53.289  0.00  0.00     0.009 C 
BRANCH  12  13
ATOM     13  C   UNL d   1      52.646  31.776  53.325  0.00  0.00     0.070 C 
BRANCH  13  14
ATOM     14  C   UNL d   1      52.664  31.048  52.939  0.00  0.00     0.211 C 
ATOM     15  O   UNL d   1      52.988  30.986  52.183  0.00  0.00    -0.644 OA
ATOM     16  O   UNL d   1      52.358  30.378  53.309  0.00  0.00    -0.644 OA
ENDBRANCH  13  14
ENDBRANCH  12  13
ENDBRANCH   4  12
TORSDOF 3
ENDMDL
