MODEL 1
REMARK VINA RESULT:      -4.7      0.000      0.000
REMARK  4 active torsions:
REMARK  status: ('A' for Active; 'I' for Inactive)
REMARK    1  A    between atoms: C_8  and  N_1 
REMARK    2  A    between atoms: C_6  and  C_5 
REMARK    3  A    between atoms: C_7  and  C_6 
REMARK       I    between atoms: N_10  and  C_7 
REMARK    4  A    between atoms: C_13  and  N_10 
ROOT
ATOM      1  N   UNL d   1      57.146   0.286  32.126  0.00  0.00    -0.236 N 
ATOM      2  C   UNL d   1      57.876   0.510  32.438  0.00  0.00     0.298 A 
ATOM      3  C   UNL d   1      57.193   0.316  31.310  0.00  0.00     0.274 A 
ATOM      4  S   UNL d   1      58.377   0.680  31.803  0.00  0.00    -0.022 SA
ATOM      5  C   UNL d   1      57.954   0.560  31.104  0.00  0.00     0.095 A 
ATOM      6  O   UNL d   1      58.077   0.558  33.238  0.00  0.00    -0.259 OA
ATOM      7  O   UNL d   1      56.589   0.136  30.780  0.00  0.00    -0.266 OA
ENDROOT
BRANCH   5   8
ATOM      8  C   UNL d   1      58.244   0.665  30.337  0.00  0.00     0.074 C 
BRANCH   8   9
ATOM      9  C   UNL d   1      58.938   0.295  30.111  0.00  0.00     0.280 C 
ATOM     10  N   UNL d   1      58.986  -0.081  29.378  0.00  0.00    -0.208 NA
ATOM     11  O   UNL d   1      59.591   0.298  30.616  0.00  0.00    -0.265 OA
BRANCH  10  12
ATOM     12  C   UNL d   1      59.684  -0.455  29.148  0.00  0.00     0.085 A 
ATOM     13  C   UNL d   1      59.743  -1.277  29.180  0.00  0.00     0.019 A 
ATOM     14  C   UNL d   1      60.443  -1.652  28.949  0.00  0.00     0.002 A 
ATOM     15  C   UNL d   1      61.086  -1.209  28.685  0.00  0.00     0.000 A 
ATOM     16  C   UNL d   1      61.015  -0.376  28.656  0.00  0.00     0.002 A 
ATOM     17  C   UNL d   1      60.324  -0.012  28.885  0.00  0.00     0.019 A 
ENDBRANCH  10  12
ENDBRANCH   8   9
ENDBRANCH   5   8
BRANCH   1  18
ATOM     18  C   UNL d   1      56.480   0.069  32.562  0.00  0.00     0.070 A 
ATOM     19  C   UNL d   1      55.990   0.649  32.889  0.00  0.00     0.018 A 
ATOM     20  C   UNL d   1      55.326   0.426  33.323  0.00  0.00     0.002 A 
ATOM     21  C   UNL d   1      55.149  -0.366  33.433  0.00  0.00     0.000 A 
ATOM     22  C   UNL d   1      55.640  -0.950  33.105  0.00  0.00     0.002 A 
ATOM     23  C   UNL d   1      56.304  -0.730  32.671  0.00  0.00     0.018 A 
ENDBRANCH   1  18
TORSDOF 4
ENDMDL
MODEL 2
REMARK VINA RESULT:      -4.3      0.813      4.947
REMARK  4 active torsions:
REMARK  status: ('A' for Active; 'I' for Inactive)
REMARK    1  A    between atoms: C_8  and  N_1 
REMARK    2  A    between atoms: C_6  and  C_5 
REMARK    3  A    between atoms: C_7  and  C_6 
REMARK       I    between atoms: N_10  and  C_7 
REMARK    4  A    between atoms: C_13  and  N_10 
ROOT
ATOM      1  N   UNL d   1      59.065  -0.364  29.617  0.00  0.00    -0.236 N 
ATOM      2  C   UNL d   1      58.369  -0.134  29.242  0.00  0.00     0.298 A 
ATOM      3  C   UNL d   1      59.045  -0.093  30.389  0.00  0.00     0.274 A 
ATOM      4  S   UNL d   1      57.915   0.284  29.792  0.00  0.00    -0.022 SA
ATOM      5  C   UNL d   1      58.335   0.309  30.503  0.00  0.00     0.095 A 
ATOM      6  O   UNL d   1      58.155  -0.289  28.459  0.00  0.00    -0.259 OA
ATOM      7  O   UNL d   1      59.630  -0.201  30.959  0.00  0.00    -0.266 OA
ENDROOT
BRANCH   5   8
ATOM      8  C   UNL d   1      58.084   0.674  31.201  0.00  0.00     0.074 C 
BRANCH   8   9
ATOM      9  C   UNL d   1      57.373   0.454  31.542  0.00  0.00     0.280 C 
ATOM     10  N   UNL d   1      57.334   0.293  32.350  0.00  0.00    -0.208 NA
ATOM     11  O   UNL d   1      56.694   0.394  31.076  0.00  0.00    -0.265 OA
BRANCH  10  12
ATOM     12  C   UNL d   1      56.618   0.071  32.695  0.00  0.00     0.085 A 
ATOM     13  C   UNL d   1      56.453  -0.726  32.830  0.00  0.00     0.019 A 
ATOM     14  C   UNL d   1      55.737  -0.948  33.176  0.00  0.00     0.002 A 
ATOM     15  C   UNL d   1      55.182  -0.377  33.390  0.00  0.00     0.000 A 
ATOM     16  C   UNL d   1      55.359   0.428  33.249  0.00  0.00     0.002 A 
ATOM     17  C   UNL d   1      56.067   0.641  32.907  0.00  0.00     0.019 A 
ENDBRANCH  10  12
ENDBRANCH   8   9
ENDBRANCH   5   8
BRANCH   1  18
ATOM     18  C   UNL d   1      59.680  -0.795  29.275  0.00  0.00     0.070 A 
ATOM     19  C   UNL d   1      59.605  -1.611  29.165  0.00  0.00     0.018 A 
ATOM     20  C   UNL d   1      60.222  -2.037  28.822  0.00  0.00     0.002 A 
ATOM     21  C   UNL d   1      60.908  -1.656  28.590  0.00  0.00     0.000 A 
ATOM     22  C   UNL d   1      60.986  -0.836  28.699  0.00  0.00     0.002 A 
ATOM     23  C   UNL d   1      60.371  -0.409  29.041  0.00  0.00     0.018 A 
ENDBRANCH   1  18
TORSDOF 4
ENDMDL
MODEL 3
REMARK VINA RESULT:      -2.5      0.940      1.320
REMARK  4 active torsions:
REMARK  status: ('A' for Active; 'I' for Inactive)
REMARK    1  A    between atoms: C_8  and  N_1 
REMARK    2  A    between atoms: C_6  and  C_5 
REMARK    3  A    between atoms: C_7  and  C_6 
REMARK       I    between atoms: N_10  and  C_7 
REMARK    4  A    between atoms: C_13  and  N_10 
ROOT
ATOM      1  N   UNL d   1      56.777   0.644  32.782  0.00  0.00    -0.236 N 
ATOM      2  C   UNL d   1      57.592   0.668  32.905  0.00  0.00     0.298 A 
ATOM      3  C   UNL d   1      56.637   0.643  31.977  0.00  0.00     0.274 A 
ATOM      4  S   UNL d   1      57.956   0.682  32.163  0.00  0.00    -0.022 SA
ATOM      5  C   UNL d   1      57.364   0.666  31.587  0.00  0.00     0.095 A 
ATOM      6  O   UNL d   1      57.981   0.677  33.634  0.00  0.00    -0.259 OA
ATOM      7  O   UNL d   1      55.900   0.622  31.609  0.00  0.00    -0.266 OA
ENDROOT
BRANCH   5   8
ATOM      8  C   UNL d   1      57.482   0.673  30.770  0.00  0.00     0.074 C 
BRANCH   8   9
ATOM      9  C   UNL d   1      58.080   0.220  30.442  0.00  0.00     0.280 C 
ATOM     10  N   UNL d   1      57.908  -0.320  29.842  0.00  0.00    -0.208 NA
ATOM     11  O   UNL d   1      58.856   0.303  30.712  0.00  0.00    -0.265 OA
BRANCH  10  12
ATOM     12  C   UNL d   1      58.508  -0.777  29.510  0.00  0.00     0.085 A 
ATOM     13  C   UNL d   1      59.095  -0.421  29.052  0.00  0.00     0.019 A 
ATOM     14  C   UNL d   1      59.697  -0.880  28.720  0.00  0.00     0.002 A 
ATOM     15  C   UNL d   1      59.716  -1.695  28.841  0.00  0.00     0.000 A 
ATOM     16  C   UNL d   1      59.116  -2.046  29.307  0.00  0.00     0.002 A 
ATOM     17  C   UNL d   1      58.526  -1.589  29.632  0.00  0.00     0.019 A 
ENDBRANCH  10  12
ENDBRANCH   8   9
ENDBRANCH   5   8
BRANCH   1  18
ATOM     18  C   UNL d   1      56.200   0.624  33.371  0.00  0.00     0.070 A 
ATOM     19  C   UNL d   1      55.399   0.682  33.170  0.00  0.00     0.018 A 
ATOM     20  C   UNL d   1      54.827   0.662  33.762  0.00  0.00     0.002 A 
ATOM     21  C   UNL d   1      55.045   0.584  34.548  0.00  0.00     0.000 A 
ATOM     22  C   UNL d   1      55.848   0.526  34.751  0.00  0.00     0.002 A 
ATOM     23  C   UNL d   1      56.422   0.546  34.162  0.00  0.00     0.018 A 
ENDBRANCH   1  18
TORSDOF 4
ENDMDL
