MODEL 1
REMARK VINA RESULT:      53.2      0.000      0.000
REMARK  2 active torsions:
REMARK  status: ('A' for Active; 'I' for Inactive)
REMARK       I    between atoms: C_2  and  N_1 
REMARK    1  A    between atoms: C_4  and  C_2 
REMARK    2  A    between atoms: C_6  and  C_7 
ROOT
ATOM      1  C   UNL d   1     -54.772-101.601 -41.717  0.00  0.00     0.057 A 
ATOM      2  C   UNL d   1     -54.820-101.890 -40.082  0.00  0.00    -0.023 A 
ATOM      3  C   UNL d   1     -54.856-102.382 -41.439  0.00  0.00     0.004 A 
ATOM      4  C   UNL d   1     -54.712-100.971 -41.205  0.00  0.00     0.004 A 
ATOM      5  C   UNL d   1     -54.880-102.521 -40.594  0.00  0.00    -0.004 A 
ATOM      6  C   UNL d   1     -54.736-101.110 -40.360  0.00  0.00    -0.004 A 
ENDROOT
BRANCH   1   7
ATOM      7  C   UNL d   1     -54.749-101.459 -42.525  0.00  0.00     0.267 C 
ATOM      8  N   UNL d   1     -54.746-100.668 -42.801  0.00  0.00    -0.240 N 
ATOM      9  C   UNL d   1     -54.766-100.025 -42.266  0.00  0.00     0.267 A 
ATOM     10  C   UNL d   1     -54.721-100.612 -43.627  0.00  0.00     0.086 A 
ATOM     11  O   UNL d   1     -54.791-100.247 -41.409  0.00  0.00    -0.267 OA
ATOM     12  C   UNL d   1     -54.767 -99.213 -42.397  0.00  0.00     0.061 A 
ATOM     13  C   UNL d   1     -54.747 -98.824 -43.160  0.00  0.00     0.005 A 
ATOM     14  C   UNL d   1     -54.724 -99.140 -43.860  0.00  0.00     0.002 A 
ATOM     15  C   UNL d   1     -54.711 -99.934 -44.097  0.00  0.00     0.019 A 
ATOM     16  O   UNL d   1     -54.729-102.069 -43.054  0.00  0.00    -0.267 OA
ENDBRANCH   1   7
BRANCH   2  17
ATOM     17  C   UNL d   1     -54.844-102.036 -39.271  0.00  0.00     0.019 C 
ATOM     18  C   UNL d   1     -54.959-102.837 -39.409  0.00  0.00     0.004 C 
ATOM     19  C   UNL d   1     -54.867-102.176 -38.460  0.00  0.00     0.004 C 
ATOM     20  C   UNL d   1     -54.727-101.229 -39.132  0.00  0.00     0.004 C 
ENDBRANCH   2  17
TORSDOF 2
ENDMDL
