MODEL 1
REMARK VINA RESULT:      -1.1      0.000      0.000
REMARK  4 active torsions:
REMARK  status: ('A' for Active; 'I' for Inactive)
REMARK    1  A    between atoms: S_2  and  N_1 
REMARK    2  A    between atoms: C_7  and  S_2 
REMARK    3  A    between atoms: C_10  and  C_3 
REMARK    4  A    between atoms: C_14  and  C_10 
ROOT
ATOM      1  N   UNL d   1      59.259  -1.120  29.361  0.00  0.00    -0.214 N 
ATOM      2  C   UNL d   1      58.771  -0.649  29.845  0.00  0.00     0.157 A 
ATOM      3  N   UNL d   1      59.126   0.098  29.894  0.00  0.00    -0.226 NA
ATOM      4  C   UNL d   1      59.903  -0.661  29.120  0.00  0.00     0.094 A 
ATOM      5  C   UNL d   1      59.828   0.093  29.446  0.00  0.00     0.100 A 
ATOM      6  C   UNL d   1      60.556  -0.839  28.639  0.00  0.00     0.020 A 
ATOM      7  C   UNL d   1      60.402   0.680  29.298  0.00  0.00     0.021 A 
ATOM      8  C   UNL d   1      61.133  -0.256  28.487  0.00  0.00     0.002 A 
ATOM      9  C   UNL d   1      61.039   0.497  28.825  0.00  0.00     0.002 A 
ENDROOT
BRANCH   1  10
ATOM     10  S   UNL d   1      59.103  -1.907  29.170  0.00  0.00     0.272 S 
ATOM     11  O   UNL d   1      59.517  -2.129  29.852  0.00  0.00    -0.200 OA
ATOM     12  O   UNL d   1      58.692  -1.682  28.493  0.00  0.00    -0.200 OA
BRANCH  10  13
ATOM     13  C   UNL d   1      58.954  -2.696  28.989  0.00  0.00     0.104 A 
ATOM     14  C   UNL d   1      59.544  -3.256  29.129  0.00  0.00     0.013 A 
ATOM     15  C   UNL d   1      59.398  -4.049  28.949  0.00  0.00     0.007 A 
ATOM     16  C   UNL d   1      58.679  -4.260  28.640  0.00  0.00     0.035 A 
ATOM     17  C   UNL d   1      58.095  -3.710  28.501  0.00  0.00     0.007 A 
ATOM     18 BR   UNL d   1      58.529  -5.071  28.455  0.00  0.00    -0.049 Br
ATOM     19  C   UNL d   1      58.240  -2.922  28.680  0.00  0.00     0.013 A 
ENDBRANCH  10  13
ENDBRANCH   1  10
BRANCH   2  20
ATOM     20  C   UNL d   1      58.053  -0.892  30.212  0.00  0.00     0.038 C 
BRANCH  20  21
ATOM     21  C   UNL d   1      57.686  -0.411  30.773  0.00  0.00     0.003 A 
ATOM     22  C   UNL d   1      57.177   0.203  30.528  0.00  0.00     0.000 A 
ATOM     23  C   UNL d   1      56.812   0.682  31.085  0.00  0.00     0.000 A 
ATOM     24  C   UNL d   1      56.942   0.563  31.889  0.00  0.00     0.000 A 
ATOM     25  C   UNL d   1      57.447  -0.047  32.132  0.00  0.00     0.000 A 
ATOM     26  C   UNL d   1      57.817  -0.531  31.577  0.00  0.00     0.000 A 
ENDBRANCH  20  21
ENDBRANCH   2  20
TORSDOF 4
ENDMDL
MODEL 2
REMARK VINA RESULT:      -0.4      1.590      3.687
REMARK  4 active torsions:
REMARK  status: ('A' for Active; 'I' for Inactive)
REMARK    1  A    between atoms: S_2  and  N_1 
REMARK    2  A    between atoms: C_7  and  S_2 
REMARK    3  A    between atoms: C_10  and  C_3 
REMARK    4  A    between atoms: C_14  and  C_10 
ROOT
ATOM      1  N   UNL d   1      59.113  -0.823  29.622  0.00  0.00    -0.214 N 
ATOM      2  C   UNL d   1      59.118  -1.550  29.218  0.00  0.00     0.157 A 
ATOM      3  N   UNL d   1      59.778  -1.548  28.719  0.00  0.00    -0.226 NA
ATOM      4  C   UNL d   1      59.767  -0.384  29.370  0.00  0.00     0.094 A 
ATOM      5  C   UNL d   1      60.183  -0.825  28.811  0.00  0.00     0.100 A 
ATOM      6  C   UNL d   1      60.038   0.372  29.581  0.00  0.00     0.020 A 
ATOM      7  C   UNL d   1      60.874  -0.521  28.456  0.00  0.00     0.021 A 
ATOM      8  C   UNL d   1      60.728   0.682  29.229  0.00  0.00     0.002 A 
ATOM      9  C   UNL d   1      61.132   0.220  28.669  0.00  0.00     0.002 A 
ENDROOT
BRANCH   1  10
ATOM     10  S   UNL d   1      58.543  -0.601  30.176  0.00  0.00     0.272 S 
ATOM     11  O   UNL d   1      58.073  -0.335  29.549  0.00  0.00    -0.200 OA
ATOM     12  O   UNL d   1      59.013  -0.867  30.796  0.00  0.00    -0.200 OA
BRANCH  10  13
ATOM     13  C   UNL d   1      57.967  -0.376  30.719  0.00  0.00     0.104 A 
ATOM     14  C   UNL d   1      57.399  -0.929  30.951  0.00  0.00     0.013 A 
ATOM     15  C   UNL d   1      56.819  -0.707  31.496  0.00  0.00     0.007 A 
ATOM     16  C   UNL d   1      56.820   0.048  31.790  0.00  0.00     0.035 A 
ATOM     17  C   UNL d   1      57.379   0.595  31.563  0.00  0.00     0.007 A 
ATOM     18 BR   UNL d   1      56.227   0.277  32.348  0.00  0.00    -0.049 Br
ATOM     19  C   UNL d   1      57.955   0.375  31.022  0.00  0.00     0.013 A 
ENDBRANCH  10  13
ENDBRANCH   1  10
BRANCH   2  20
ATOM     20  C   UNL d   1      58.552  -2.169  29.305  0.00  0.00     0.038 C 
BRANCH  20  21
ATOM     21  C   UNL d   1      58.723  -2.932  29.041  0.00  0.00     0.003 A 
ATOM     22  C   UNL d   1      58.120  -3.408  28.718  0.00  0.00     0.000 A 
ATOM     23  C   UNL d   1      58.289  -4.167  28.455  0.00  0.00     0.000 A 
ATOM     24  C   UNL d   1      59.053  -4.467  28.507  0.00  0.00     0.000 A 
ATOM     25  C   UNL d   1      59.653  -3.993  28.828  0.00  0.00     0.000 A 
ATOM     26  C   UNL d   1      59.489  -3.231  29.093  0.00  0.00     0.000 A 
ENDBRANCH  20  21
ENDBRANCH   2  20
TORSDOF 4
ENDMDL
