MODEL 1
REMARK VINA RESULT:      57.6      0.000      0.000
REMARK  4 active torsions:
REMARK  status: ('A' for Active; 'I' for Inactive)
REMARK    1  A    between atoms: C_11  and  C_1 
REMARK    2  A    between atoms: C_6  and  C_17 
REMARK       I    between atoms: N_10  and  C_6 
REMARK    3  A    between atoms: C_17  and  N_8 
REMARK    4  A    between atoms: C_15  and  N_10 
ROOT
ATOM      1  N   UNL d   1     -55.475-102.806 -40.746  0.00  0.00    -0.299 N 
ATOM      2  C   UNL d   1     -55.490-102.677 -39.110  0.00  0.00     0.039 A 
ATOM      3  C   UNL d   1     -56.200-102.723 -39.527  0.00  0.00     0.022 A 
ATOM      4  C   UNL d   1     -54.772-102.694 -39.504  0.00  0.00     0.022 A 
ATOM      5  C   UNL d   1     -54.765-102.759 -40.328  0.00  0.00     0.081 A 
ATOM      6  C   UNL d   1     -56.193-102.787 -40.338  0.00  0.00     0.081 A 
ENDROOT
BRANCH   1   7
ATOM      7  C   UNL d   1     -55.468-102.870 -41.570  0.00  0.00     0.144 C 
BRANCH   7   8
ATOM      8  C   UNL d   1     -55.600-102.200 -42.038  0.00  0.00     0.297 C 
ATOM      9  N   UNL d   1     -54.975-101.861 -42.424  0.00  0.00    -0.207 NA
ATOM     10  O   UNL d   1     -56.348-101.887 -42.110  0.00  0.00    -0.264 OA
BRANCH   9  11
ATOM     11  C   UNL d   1     -55.094-101.192 -42.894  0.00  0.00     0.087 A 
ATOM     12  C   UNL d   1     -55.575-101.244 -43.549  0.00  0.00     0.045 A 
ATOM     13  C   UNL d   1     -55.694-100.575 -44.018  0.00  0.00     0.121 A 
ATOM     14  O   UNL d   1     -56.138-100.448 -44.701  0.00  0.00    -0.299 OA
ATOM     15  C   UNL d   1     -55.332 -99.867 -43.826  0.00  0.00     0.119 A 
ATOM     16  C   UNL d   1     -56.049 -99.663 -44.929  0.00  0.00     0.304 A 
ATOM     17  O   UNL d   1     -55.547 -99.302 -44.384  0.00  0.00    -0.300 OA
ATOM     18  C   UNL d   1     -54.845 -99.828 -43.156  0.00  0.00     0.028 A 
ATOM     19  C   UNL d   1     -54.729-100.493 -42.693  0.00  0.00     0.021 A 
ENDBRANCH   9  11
ENDBRANCH   7   8
ENDBRANCH   1   7
BRANCH   2  20
ATOM     20  C   UNL d   1     -55.497-102.612 -38.285  0.00  0.00     0.163 A 
ATOM     21  N   UNL d   1     -56.086-102.870 -37.781  0.00  0.00    -0.225 NA
ATOM     22  C   UNL d   1     -55.866-102.693 -37.009  0.00  0.00     0.101 A 
ATOM     23  C   UNL d   1     -56.240-102.824 -36.286  0.00  0.00     0.021 A 
ATOM     24  C   UNL d   1     -55.128-102.320 -37.036  0.00  0.00     0.101 A 
ATOM     25  C   UNL d   1     -55.878-102.581 -35.590  0.00  0.00     0.002 A 
ATOM     26  C   UNL d   1     -55.141-102.208 -35.613  0.00  0.00     0.002 A 
ATOM     27  C   UNL d   1     -54.766-102.077 -36.332  0.00  0.00     0.021 A 
ATOM     28  N   UNL d   1     -54.898-102.269 -37.826  0.00  0.00    -0.225 NA
ENDBRANCH   2  20
TORSDOF 4
ENDMDL
