MODEL 1
REMARK VINA RESULT:      23.3      0.000      0.000
REMARK  2 active torsions:
REMARK  status: ('A' for Active; 'I' for Inactive)
REMARK    1  A    between atoms: N_2  and  C_1 
REMARK    2  A    between atoms: C_4  and  C_1 
ROOT
ATOM      1  C   UNL d   1      13.900  13.446  -2.711  0.00  0.00     0.120 C 
ATOM      2  S   UNL d   1      13.924  14.272  -2.722  0.00  0.00    -0.059 SA
ENDROOT
BRANCH   1   3
ATOM      3  N   UNL d   1      14.160  13.034  -2.038  0.00  0.00    -0.293 N 
ATOM      4  C   UNL d   1      14.681  13.397  -1.510  0.00  0.00     0.100 A 
ATOM      5  C   UNL d   1      14.941  12.991  -0.841  0.00  0.00     0.100 A 
ATOM      6  N   UNL d   1      14.680  12.222  -0.701  0.00  0.00    -0.299 N 
ATOM      7  C   UNL d   1      14.160  11.858  -1.229  0.00  0.00     0.100 A 
ATOM      8  C   UNL d   1      14.940  11.813  -0.031  0.00  0.00     0.100 C 
ATOM      9  C   UNL d   1      13.899  12.271  -1.903  0.00  0.00     0.100 A 
ENDBRANCH   1   3
BRANCH   1  10
ATOM     10  C   UNL d   1      13.618  13.025  -3.366  0.00  0.00     0.027 A 
ATOM     11  C   UNL d   1      13.546  12.198  -3.337  0.00  0.00     0.003 A 
ATOM     12  C   UNL d   1      13.265  11.785  -3.993  0.00  0.00     0.007 A 
ATOM     13  C   UNL d   1      13.054  12.193  -4.677  0.00  0.00     0.035 A 
ATOM     14  C   UNL d   1      13.126  13.021  -4.705  0.00  0.00     0.007 A 
ATOM     15 BR   UNL d   1      12.772  11.781  -5.335  0.00  0.00    -0.049 Br
ATOM     16  C   UNL d   1      13.407  13.433  -4.050  0.00  0.00     0.003 A 
ENDBRANCH   1  10
TORSDOF 2
ENDMDL
MODEL 2
REMARK VINA RESULT:      24.8      1.933      3.388
REMARK  2 active torsions:
REMARK  status: ('A' for Active; 'I' for Inactive)
REMARK    1  A    between atoms: N_2  and  C_1 
REMARK    2  A    between atoms: C_4  and  C_1 
ROOT
ATOM      1  C   UNL d   1      13.482  12.421  -3.401  0.00  0.00     0.120 C 
ATOM      2  S   UNL d   1      13.314  11.780  -3.893  0.00  0.00    -0.059 SA
ENDROOT
BRANCH   1   3
ATOM      3  N   UNL d   1      13.387  13.196  -3.685  0.00  0.00    -0.293 N 
ATOM      4  C   UNL d   1      13.776  13.821  -3.310  0.00  0.00     0.100 A 
ATOM      5  C   UNL d   1      13.683  14.592  -3.590  0.00  0.00     0.100 A 
ATOM      6  N   UNL d   1      13.202  14.736  -4.242  0.00  0.00    -0.299 N 
ATOM      7  C   UNL d   1      12.813  14.111  -4.617  0.00  0.00     0.100 A 
ATOM      8  C   UNL d   1      13.108  15.509  -4.524  0.00  0.00     0.100 C 
ATOM      9  C   UNL d   1      12.909  13.336  -4.332  0.00  0.00     0.100 A 
ENDBRANCH   1   3
BRANCH   1  10
ATOM     10  C   UNL d   1      13.745  12.298  -2.625  0.00  0.00     0.027 A 
ATOM     11  C   UNL d   1      13.268  11.897  -2.076  0.00  0.00     0.003 A 
ATOM     12  C   UNL d   1      13.537  11.779  -1.305  0.00  0.00     0.007 A 
ATOM     13  C   UNL d   1      14.278  12.059  -1.081  0.00  0.00     0.035 A 
ATOM     14  C   UNL d   1      14.755  12.460  -1.630  0.00  0.00     0.007 A 
ATOM     15 BR   UNL d   1      14.549  11.941  -0.308  0.00  0.00    -0.049 Br
ATOM     16  C   UNL d   1      14.487  12.578  -2.400  0.00  0.00     0.003 A 
ENDBRANCH   1  10
TORSDOF 2
ENDMDL
