MODEL 1
REMARK VINA RESULT:     108.2      0.000      0.000
REMARK  5 active torsions:
REMARK  status: ('A' for Active; 'I' for Inactive)
REMARK    1  A    between atoms: C_11  and  C_3 
REMARK    2  A    between atoms: C_13  and  N_5 
REMARK    3  A    between atoms: C_12  and  C_7 
REMARK    4  A    between atoms: O_21  and  C_11 
REMARK    5  A    between atoms: C_20  and  C_13 
ROOT
ATOM      1  C   UNL d   1      59.771  48.763  50.955  0.00  0.00     0.080 A 
ATOM      2  C   UNL d   1      59.308  48.452  50.342  0.00  0.00     0.267 A 
ATOM      3  C   UNL d   1      60.977  48.770  51.709  0.00  0.00     0.106 A 
ATOM      4  C   UNL d   1      59.475  49.380  51.417  0.00  0.00     0.108 A 
ATOM      5  N   UNL d   1      58.548  48.764  50.199  0.00  0.00    -0.271 N 
ATOM      6  C   UNL d   1      60.681  49.391  52.175  0.00  0.00     0.208 A 
ATOM      7  C   UNL d   1      60.518  48.461  51.102  0.00  0.00     0.015 A 
ATOM      8  O   UNL d   1      59.930  49.695  52.029  0.00  0.00    -0.288 OA
ATOM      9  C   UNL d   1      58.725  49.695  51.283  0.00  0.00     0.043 A 
ATOM     10  C   UNL d   1      58.265  49.384  50.673  0.00  0.00     0.069 A 
ATOM     11  O   UNL d   1      59.593  47.834  49.872  0.00  0.00    -0.267 OA
ATOM     12  N   UNL d   1      61.142  49.701  52.785  0.00  0.00    -0.121 N 
ATOM     13  C   UNL d   1      57.498  49.697  50.525  0.00  0.00     0.019 C 
ENDROOT
BRANCH   7  14
ATOM     14  C   UNL d   1      60.808  47.847  50.638  0.00  0.00     0.001 A 
ATOM     15  C   UNL d   1      61.185  48.021  49.922  0.00  0.00     0.001 A 
ATOM     16  C   UNL d   1      61.475  47.406  49.458  0.00  0.00     0.011 A 
ATOM     17  C   UNL d   1      61.392  46.622  49.704  0.00  0.00     0.058 A 
ATOM     18  C   UNL d   1      61.013  46.450  50.423  0.00  0.00     0.011 A 
ATOM     19 CL   UNL d   1      61.681  46.008  49.240  0.00  0.00    -0.082 Cl
ATOM     20  C   UNL d   1      60.723  47.065  50.887  0.00  0.00     0.001 A 
ENDBRANCH   7  14
BRANCH   3  21
ATOM     21  C   UNL d   1      61.728  48.466  51.855  0.00  0.00     0.299 C 
ATOM     22  O   UNL d   1      62.385  48.779  51.467  0.00  0.00    -0.259 OA
BRANCH  21  23
ATOM     23  O   UNL d   1      61.826  47.846  52.390  0.00  0.00    -0.296 OA
ATOM     24  C   UNL d   1      62.084  47.998  53.160  0.00  0.00     0.185 C 
ENDBRANCH  21  23
ENDBRANCH   3  21
BRANCH   5  25
ATOM     25  C   UNL d   1      58.087  48.454  49.589  0.00  0.00     0.108 C 
BRANCH  25  26
ATOM     26  C   UNL d   1      57.364  48.799  49.402  0.00  0.00     0.118 A 
ATOM     27  O   UNL d   1      57.237  49.598  49.216  0.00  0.00    -0.304 OA
ATOM     28  C   UNL d   1      56.430  49.704  49.066  0.00  0.00     0.123 A 
ATOM     29  C   UNL d   1      56.054  48.975  49.158  0.00  0.00     0.029 A 
ATOM     30  C   UNL d   1      56.627  48.417  49.365  0.00  0.00     0.028 A 
ENDBRANCH  25  26
ENDBRANCH   5  25
TORSDOF 5
ENDMDL
