MODEL 1
REMARK VINA RESULT:      -4.4      0.000      0.000
REMARK  5 active torsions:
REMARK  status: ('A' for Active; 'I' for Inactive)
REMARK    1  A    between atoms: O_5  and  C_1 
REMARK    2  A    between atoms: C_10  and  C_2 
REMARK    3  A    between atoms: C_3  and  O_5 
REMARK    4  A    between atoms: C_6  and  C_3 
REMARK    5  A    between atoms: N_11  and  C_10 
ROOT
ATOM      1  C   UNL d   1     -48.373  13.054  23.269  0.00  0.00     0.122 A 
ATOM      2  C   UNL d   1     -47.550  13.011  23.228  0.00  0.00     0.043 A 
ATOM      3  C   UNL d   1     -48.814  12.373  23.413  0.00  0.00     0.105 A 
ATOM      4  C   UNL d   1     -48.434  11.649  23.515  0.00  0.00     0.030 A 
ATOM      5  C   UNL d   1     -47.616  11.614  23.473  0.00  0.00     0.059 A 
ATOM      6  C   UNL d   1     -47.170  12.287  23.331  0.00  0.00     0.015 A 
ATOM      7  N   UNL d   1     -49.630  12.420  23.452  0.00  0.00    -0.242 NA
ATOM      8 CL   UNL d   1     -47.253  10.869  23.580  0.00  0.00    -0.082 Cl
ATOM      9  C   UNL d   1     -48.873  10.979  23.656  0.00  0.00     0.004 A 
ATOM     10  C   UNL d   1     -50.071  11.738  23.596  0.00  0.00     0.099 A 
ATOM     11  C   UNL d   1     -49.691  11.014  23.698  0.00  0.00     0.021 A 
ENDROOT
BRANCH   1  12
ATOM     12  O   UNL d   1     -48.727  13.706  23.178  0.00  0.00    -0.271 OA
BRANCH  12  13
ATOM     13  C   UNL d   1     -49.277  14.175  22.540  0.00  0.00     0.301 C 
ATOM     14  O   UNL d   1     -49.130  13.895  21.587  0.00  0.00    -0.259 OA
BRANCH  13  15
ATOM     15  C   UNL d   1     -49.813  14.752  22.780  0.00  0.00     0.074 A 
ATOM     16  C   UNL d   1     -50.516  14.869  22.350  0.00  0.00     0.063 A 
ATOM     17 CL   UNL d   1     -50.738  14.411  21.638  0.00  0.00    -0.082 Cl
ATOM     18  C   UNL d   1     -51.057  15.453  22.595  0.00  0.00     0.012 A 
ATOM     19  C   UNL d   1     -50.898  15.922  23.269  0.00  0.00     0.001 A 
ATOM     20  C   UNL d   1     -50.196  15.803  23.695  0.00  0.00     0.000 A 
ATOM     21  C   UNL d   1     -49.656  15.218  23.449  0.00  0.00     0.006 A 
ENDBRANCH  13  15
ENDBRANCH  12  13
ENDBRANCH   1  12
BRANCH   2  22
ATOM     22  C   UNL d   1     -46.908  13.639  23.082  0.00  0.00     0.082 C 
BRANCH  22  23
ATOM     23  N   UNL d   1     -46.251  13.447  22.629  0.00  0.00    -0.299 N 
ATOM     24  C   UNL d   1     -46.341  13.285  21.834  0.00  0.00     0.107 A 
ATOM     25  C   UNL d   1     -45.688  13.090  21.365  0.00  0.00     0.142 A 
ATOM     26  O   UNL d   1     -44.948  13.062  21.709  0.00  0.00    -0.300 OA
ATOM     27  C   UNL d   1     -44.854  13.226  22.516  0.00  0.00     0.142 A 
ATOM     28  C   UNL d   1     -45.511  13.417  22.966  0.00  0.00     0.107 A 
ENDBRANCH  22  23
ENDBRANCH   2  22
TORSDOF 5
ENDMDL
MODEL 2
REMARK VINA RESULT:      -2.2      1.274      3.107
REMARK  5 active torsions:
REMARK  status: ('A' for Active; 'I' for Inactive)
REMARK    1  A    between atoms: O_5  and  C_1 
REMARK    2  A    between atoms: C_10  and  C_2 
REMARK    3  A    between atoms: C_3  and  O_5 
REMARK    4  A    between atoms: C_6  and  C_3 
REMARK    5  A    between atoms: N_11  and  C_10 
ROOT
ATOM      1  C   UNL d   1     -47.086  13.037  22.878  0.00  0.00     0.122 A 
ATOM      2  C   UNL d   1     -47.454  12.468  23.349  0.00  0.00     0.043 A 
ATOM      3  C   UNL d   1     -46.299  12.935  22.650  0.00  0.00     0.105 A 
ATOM      4  C   UNL d   1     -45.882  12.267  22.892  0.00  0.00     0.030 A 
ATOM      5  C   UNL d   1     -46.255  11.707  23.360  0.00  0.00     0.059 A 
ATOM      6  C   UNL d   1     -47.037  11.800  23.591  0.00  0.00     0.015 A 
ATOM      7  N   UNL d   1     -45.938  13.501  22.183  0.00  0.00    -0.242 NA
ATOM      8 CL   UNL d   1     -45.812  11.038  23.593  0.00  0.00    -0.082 Cl
ATOM      9  C   UNL d   1     -45.107  12.172  22.665  0.00  0.00     0.004 A 
ATOM     10  C   UNL d   1     -45.151  13.400  21.955  0.00  0.00     0.099 A 
ATOM     11  C   UNL d   1     -44.734  12.732  22.198  0.00  0.00     0.021 A 
ENDROOT
BRANCH   1  12
ATOM     12  O   UNL d   1     -47.455  13.646  22.653  0.00  0.00    -0.271 OA
BRANCH  12  13
ATOM     13  C   UNL d   1     -47.595  14.568  22.897  0.00  0.00     0.301 C 
ATOM     14  O   UNL d   1     -46.776  15.028  23.250  0.00  0.00    -0.259 OA
BRANCH  13  15
ATOM     15  C   UNL d   1     -48.333  14.925  22.814  0.00  0.00     0.074 A 
ATOM     16  C   UNL d   1     -48.584  15.187  22.066  0.00  0.00     0.063 A 
ATOM     17 CL   UNL d   1     -48.111  15.110  21.333  0.00  0.00    -0.082 Cl
ATOM     18  C   UNL d   1     -49.331  15.548  21.985  0.00  0.00     0.012 A 
ATOM     19  C   UNL d   1     -49.827  15.649  22.650  0.00  0.00     0.001 A 
ATOM     20  C   UNL d   1     -49.573  15.387  23.395  0.00  0.00     0.000 A 
ATOM     21  C   UNL d   1     -48.826  15.025  23.474  0.00  0.00     0.006 A 
ENDBRANCH  13  15
ENDBRANCH  12  13
ENDBRANCH   1  12
BRANCH   2  22
ATOM     22  C   UNL d   1     -48.294  12.406  23.693  0.00  0.00     0.082 C 
BRANCH  22  23
ATOM     23  N   UNL d   1     -48.873  12.004  23.273  0.00  0.00    -0.299 N 
ATOM     24  C   UNL d   1     -49.583  11.822  23.635  0.00  0.00     0.107 A 
ATOM     25  C   UNL d   1     -50.176  11.417  23.224  0.00  0.00     0.142 A 
ATOM     26  O   UNL d   1     -50.043  11.201  22.449  0.00  0.00    -0.300 OA
ATOM     27  C   UNL d   1     -49.324  11.385  22.079  0.00  0.00     0.142 A 
ATOM     28  C   UNL d   1     -48.747  11.786  22.500  0.00  0.00     0.107 A 
ENDBRANCH  22  23
ENDBRANCH   2  22
TORSDOF 5
ENDMDL
MODEL 3
REMARK VINA RESULT:      -2.1      1.802      2.909
REMARK  5 active torsions:
REMARK  status: ('A' for Active; 'I' for Inactive)
REMARK    1  A    between atoms: O_5  and  C_1 
REMARK    2  A    between atoms: C_10  and  C_2 
REMARK    3  A    between atoms: C_3  and  O_5 
REMARK    4  A    between atoms: C_6  and  C_3 
REMARK    5  A    between atoms: N_11  and  C_10 
ROOT
ATOM      1  C   UNL d   1     -47.423  13.098  22.900  0.00  0.00     0.122 A 
ATOM      2  C   UNL d   1     -46.697  12.709  22.938  0.00  0.00     0.043 A 
ATOM      3  C   UNL d   1     -47.447  13.915  22.790  0.00  0.00     0.105 A 
ATOM      4  C   UNL d   1     -46.746  14.342  22.717  0.00  0.00     0.030 A 
ATOM      5  C   UNL d   1     -46.028  13.948  22.756  0.00  0.00     0.059 A 
ATOM      6  C   UNL d   1     -45.996  13.136  22.865  0.00  0.00     0.015 A 
ATOM      7  N   UNL d   1     -48.169  14.297  22.753  0.00  0.00    -0.242 NA
ATOM      8 CL   UNL d   1     -45.331  14.402  22.679  0.00  0.00    -0.082 Cl
ATOM      9  C   UNL d   1     -46.774  15.147  22.609  0.00  0.00     0.004 A 
ATOM     10  C   UNL d   1     -48.193  15.114  22.643  0.00  0.00     0.099 A 
ATOM     11  C   UNL d   1     -47.492  15.542  22.570  0.00  0.00     0.021 A 
ENDROOT
BRANCH   1  12
ATOM     12  O   UNL d   1     -48.064  12.720  22.965  0.00  0.00    -0.271 OA
BRANCH  12  13
ATOM     13  C   UNL d   1     -48.708  12.242  22.430  0.00  0.00     0.301 C 
ATOM     14  O   UNL d   1     -48.340  11.886  21.566  0.00  0.00    -0.259 OA
BRANCH  13  15
ATOM     15  C   UNL d   1     -49.487  12.146  22.680  0.00  0.00     0.074 A 
ATOM     16  C   UNL d   1     -50.113  12.344  22.170  0.00  0.00     0.063 A 
ATOM     17 CL   UNL d   1     -50.008  12.657  21.359  0.00  0.00    -0.082 Cl
ATOM     18  C   UNL d   1     -50.900  12.246  22.427  0.00  0.00     0.012 A 
ATOM     19  C   UNL d   1     -51.063  11.951  23.192  0.00  0.00     0.001 A 
ATOM     20  C   UNL d   1     -50.435  11.755  23.697  0.00  0.00     0.000 A 
ATOM     21  C   UNL d   1     -49.649  11.853  23.440  0.00  0.00     0.006 A 
ENDBRANCH  13  15
ENDBRANCH  12  13
ENDBRANCH   1  12
BRANCH   2  22
ATOM     22  C   UNL d   1     -46.474  11.834  23.052  0.00  0.00     0.082 C 
BRANCH  22  23
ATOM     23  N   UNL d   1     -45.682  11.619  23.077  0.00  0.00    -0.299 N 
ATOM     24  C   UNL d   1     -45.418  11.112  23.660  0.00  0.00     0.107 A 
ATOM     25  C   UNL d   1     -44.623  10.887  23.698  0.00  0.00     0.142 A 
ATOM     26  O   UNL d   1     -44.103  11.180  23.142  0.00  0.00    -0.300 OA
ATOM     27  C   UNL d   1     -44.367  11.695  22.549  0.00  0.00     0.142 A 
ATOM     28  C   UNL d   1     -45.158  11.908  22.526  0.00  0.00     0.107 A 
ENDBRANCH  22  23
ENDBRANCH   2  22
TORSDOF 5
ENDMDL
