MODEL 1
REMARK VINA RESULT:      -3.5      0.000      0.000
REMARK  3 active torsions:
REMARK  status: ('A' for Active; 'I' for Inactive)
REMARK    1  A    between atoms: C_15  and  N_1 
REMARK       I    between atoms: C_6  and  N_7 
REMARK    2  A    between atoms: C_11  and  C_6 
REMARK    3  A    between atoms: N_7  and  C_8 
ROOT
ATOM      1  N   UNL d   1      59.375  -1.939  29.041  0.00  0.00    -0.273 N 
ATOM      2  C   UNL d   1      60.110  -1.170  28.924  0.00  0.00     0.265 A 
ATOM      3  C   UNL d   1      58.831  -1.596  29.553  0.00  0.00     0.067 A 
ATOM      4  C   UNL d   1      59.109  -0.839  29.726  0.00  0.00     0.022 A 
ATOM      5  C   UNL d   1      59.800  -0.582  29.398  0.00  0.00     0.058 A 
ATOM      6  C   UNL d   1      57.977  -0.626  30.558  0.00  0.00     0.084 A 
ATOM      7  C   UNL d   1      58.682  -0.354  30.228  0.00  0.00     0.019 A 
ATOM      8  C   UNL d   1      58.125  -1.869  29.883  0.00  0.00     0.019 A 
ATOM      9  O   UNL d   1      60.819  -1.055  28.519  0.00  0.00    -0.267 OA
ATOM     10  C   UNL d   1      57.698  -1.383  30.386  0.00  0.00     0.021 A 
ATOM     11  C   UNL d   1      60.078   0.175  29.571  0.00  0.00     0.005 A 
ATOM     12  C   UNL d   1      58.946   0.388  30.403  0.00  0.00     0.002 A 
ATOM     13  C   UNL d   1      59.651   0.660  30.074  0.00  0.00     0.000 A 
ENDROOT
BRANCH   6  14
ATOM     14  N   UNL d   1      57.550  -0.141  31.060  0.00  0.00    -0.212 NA
ATOM     15  C   UNL d   1      56.985  -0.469  31.564  0.00  0.00     0.255 C 
ATOM     16  O   UNL d   1      56.858  -1.266  31.557  0.00  0.00    -0.270 OA
BRANCH  15  17
ATOM     17  C   UNL d   1      56.558   0.016  32.066  0.00  0.00     0.073 C 
ATOM     18  C   UNL d   1      56.514  -0.164  32.870  0.00  0.00     0.009 C 
ATOM     19  C   UNL d   1      56.174   0.681  31.765  0.00  0.00     0.009 C 
ATOM     20  C   UNL d   1      56.066   0.577  32.635  0.00  0.00     0.009 C 
ENDBRANCH  15  17
ENDBRANCH   6  14
BRANCH   1  21
ATOM     21  C   UNL d   1      59.229  -2.718  28.773  0.00  0.00     0.083 C 
ATOM     22  C   UNL d   1      59.837  -3.239  28.727  0.00  0.00     0.021 C 
ENDBRANCH   1  21
TORSDOF 3
ENDMDL
MODEL 2
REMARK VINA RESULT:      -3.0      2.001      4.977
REMARK  3 active torsions:
REMARK  status: ('A' for Active; 'I' for Inactive)
REMARK    1  A    between atoms: C_15  and  N_1 
REMARK       I    between atoms: C_6  and  N_7 
REMARK    2  A    between atoms: C_11  and  C_6 
REMARK    3  A    between atoms: N_7  and  C_8 
ROOT
ATOM      1  N   UNL d   1      55.365   0.655  33.820  0.00  0.00    -0.273 N 
ATOM      2  C   UNL d   1      56.028   0.670  34.660  0.00  0.00     0.265 A 
ATOM      3  C   UNL d   1      55.881   0.653  33.180  0.00  0.00     0.067 A 
ATOM      4  C   UNL d   1      56.645   0.663  33.488  0.00  0.00     0.022 A 
ATOM      5  C   UNL d   1      56.755   0.672  34.287  0.00  0.00     0.058 A 
ATOM      6  C   UNL d   1      57.165   0.653  32.165  0.00  0.00     0.084 A 
ATOM      7  C   UNL d   1      57.288   0.663  32.980  0.00  0.00     0.019 A 
ATOM      8  C   UNL d   1      55.757   0.643  32.364  0.00  0.00     0.019 A 
ATOM      9  O   UNL d   1      55.977   0.678  35.483  0.00  0.00    -0.267 OA
ATOM     10  C   UNL d   1      56.400   0.643  31.856  0.00  0.00     0.021 A 
ATOM     11  C   UNL d   1      57.520   0.682  34.595  0.00  0.00     0.005 A 
ATOM     12  C   UNL d   1      58.040   0.672  33.272  0.00  0.00     0.002 A 
ATOM     13  C   UNL d   1      58.162   0.682  34.088  0.00  0.00     0.000 A 
ENDROOT
BRANCH   6  14
ATOM     14  N   UNL d   1      57.807   0.653  31.658  0.00  0.00    -0.212 NA
ATOM     15  C   UNL d   1      57.743   0.300  30.915  0.00  0.00     0.255 C 
ATOM     16  O   UNL d   1      57.046  -0.043  30.695  0.00  0.00    -0.270 OA
BRANCH  15  17
ATOM     17  C   UNL d   1      58.385   0.300  30.408  0.00  0.00     0.073 C 
ATOM     18  C   UNL d   1      59.147   0.389  30.712  0.00  0.00     0.009 C 
ATOM     19  C   UNL d   1      58.266   0.211  29.596  0.00  0.00     0.009 C 
ATOM     20  C   UNL d   1      59.116   0.299  29.819  0.00  0.00     0.009 C 
ENDBRANCH  15  17
ENDBRANCH   6  14
BRANCH   1  21
ATOM     21  C   UNL d   1      54.542   0.647  33.666  0.00  0.00     0.083 C 
ATOM     22  C   UNL d   1      54.028   0.617  34.280  0.00  0.00     0.021 C 
ENDBRANCH   1  21
TORSDOF 3
ENDMDL
MODEL 3
REMARK VINA RESULT:      -2.6      9.186      9.477
REMARK  3 active torsions:
REMARK  status: ('A' for Active; 'I' for Inactive)
REMARK    1  A    between atoms: C_15  and  N_1 
REMARK       I    between atoms: C_6  and  N_7 
REMARK    2  A    between atoms: C_11  and  C_6 
REMARK    3  A    between atoms: N_7  and  C_8 
ROOT
ATOM      1  N   UNL d   1      58.370  -9.818  30.579  0.00  0.00    -0.273 N 
ATOM      2  C   UNL d   1      59.258  -9.818  29.981  0.00  0.00     0.265 A 
ATOM      3  C   UNL d   1      58.667  -9.818  31.347  0.00  0.00     0.067 A 
ATOM      4  C   UNL d   1      59.489  -9.818  31.285  0.00  0.00     0.022 A 
ATOM      5  C   UNL d   1      59.837  -9.818  30.558  0.00  0.00     0.058 A 
ATOM      6  C   UNL d   1      59.582  -9.818  32.704  0.00  0.00     0.084 A 
ATOM      7  C   UNL d   1      59.947  -9.818  31.964  0.00  0.00     0.019 A 
ATOM      8  C   UNL d   1      58.301  -9.818  32.087  0.00  0.00     0.019 A 
ATOM      9  O   UNL d   1      59.459  -9.818  29.182  0.00  0.00    -0.267 OA
ATOM     10  C   UNL d   1      58.759  -9.818  32.766  0.00  0.00     0.021 A 
ATOM     11  C   UNL d   1      60.659  -9.818  30.497  0.00  0.00     0.005 A 
ATOM     12  C   UNL d   1      60.752  -9.818  31.915  0.00  0.00     0.002 A 
ATOM     13  C   UNL d   1      61.117  -9.818  31.176  0.00  0.00     0.000 A 
ENDROOT
BRANCH   6  14
ATOM     14  N   UNL d   1      60.040  -9.818  33.382  0.00  0.00    -0.212 NA
ATOM     15  C   UNL d   1      59.770  -9.430  34.059  0.00  0.00     0.255 C 
ATOM     16  O   UNL d   1      59.056  -9.054  34.045  0.00  0.00    -0.270 OA
BRANCH  15  17
ATOM     17  C   UNL d   1      60.227  -9.430  34.737  0.00  0.00     0.073 C 
ATOM     18  C   UNL d   1      61.023  -9.218  34.694  0.00  0.00     0.009 C 
ATOM     19  C   UNL d   1      59.889  -9.641  35.459  0.00  0.00     0.009 C 
ATOM     20  C   UNL d   1      60.745  -9.432  35.520  0.00  0.00     0.009 C 
ENDBRANCH  15  17
ENDBRANCH   6  14
BRANCH   1  21
ATOM     21  C   UNL d   1      57.540  -9.818  30.476  0.00  0.00     0.083 C 
ATOM     22  C   UNL d   1      57.237  -9.813  29.734  0.00  0.00     0.021 C 
ENDBRANCH   1  21
TORSDOF 3
ENDMDL
MODEL 4
REMARK VINA RESULT:      -2.5      8.992      9.713
REMARK  3 active torsions:
REMARK  status: ('A' for Active; 'I' for Inactive)
REMARK    1  A    between atoms: C_15  and  N_1 
REMARK       I    between atoms: C_6  and  N_7 
REMARK    2  A    between atoms: C_11  and  C_6 
REMARK    3  A    between atoms: N_7  and  C_8 
ROOT
ATOM      1  N   UNL d   1      59.395  -9.556  34.774  0.00  0.00    -0.273 N 
ATOM      2  C   UNL d   1      60.431  -9.387  34.564  0.00  0.00     0.265 A 
ATOM      3  C   UNL d   1      59.067  -9.632  34.023  0.00  0.00     0.067 A 
ATOM      4  C   UNL d   1      59.682  -9.543  33.482  0.00  0.00     0.022 A 
ATOM      5  C   UNL d   1      60.432  -9.409  33.747  0.00  0.00     0.058 A 
ATOM      6  C   UNL d   1      58.758  -9.729  32.419  0.00  0.00     0.084 A 
ATOM      7  C   UNL d   1      59.528  -9.591  32.679  0.00  0.00     0.019 A 
ATOM      8  C   UNL d   1      58.296  -9.770  33.763  0.00  0.00     0.019 A 
ATOM      9  O   UNL d   1      61.128  -9.257  34.983  0.00  0.00    -0.267 OA
ATOM     10  C   UNL d   1      58.141  -9.818  32.960  0.00  0.00     0.021 A 
ATOM     11  C   UNL d   1      61.048  -9.320  33.206  0.00  0.00     0.005 A 
ATOM     12  C   UNL d   1      60.123  -9.505  32.142  0.00  0.00     0.002 A 
ATOM     13  C   UNL d   1      60.894  -9.368  32.403  0.00  0.00     0.000 A 
ENDROOT
BRANCH   6  14
ATOM     14  N   UNL d   1      58.604  -9.777  31.617  0.00  0.00    -0.212 NA
ATOM     15  C   UNL d   1      57.857  -9.575  31.330  0.00  0.00     0.255 C 
ATOM     16  O   UNL d   1      57.284  -9.331  31.844  0.00  0.00    -0.270 OA
BRANCH  15  17
ATOM     17  C   UNL d   1      57.702  -9.623  30.528  0.00  0.00     0.073 C 
ATOM     18  C   UNL d   1      56.941  -9.805  30.267  0.00  0.00     0.009 C 
ATOM     19  C   UNL d   1      58.309  -9.490  29.985  0.00  0.00     0.009 C 
ATOM     20  C   UNL d   1      57.534  -9.677  29.606  0.00  0.00     0.009 C 
ENDBRANCH  15  17
ENDBRANCH   6  14
BRANCH   1  21
ATOM     21  C   UNL d   1      58.888  -9.623  35.436  0.00  0.00     0.083 C 
ATOM     22  C   UNL d   1      59.195  -9.556  36.174  0.00  0.00     0.021 C 
ENDBRANCH   1  21
TORSDOF 3
ENDMDL
MODEL 5
REMARK VINA RESULT:      -2.0      1.430      4.179
REMARK  3 active torsions:
REMARK  status: ('A' for Active; 'I' for Inactive)
REMARK    1  A    between atoms: C_15  and  N_1 
REMARK       I    between atoms: C_6  and  N_7 
REMARK    2  A    between atoms: C_11  and  C_6 
REMARK    3  A    between atoms: N_7  and  C_8 
ROOT
ATOM      1  N   UNL d   1      56.176  -0.260  32.981  0.00  0.00    -0.273 N 
ATOM      2  C   UNL d   1      56.879   0.259  33.599  0.00  0.00     0.265 A 
ATOM      3  C   UNL d   1      56.586  -0.348  32.273  0.00  0.00     0.067 A 
ATOM      4  C   UNL d   1      57.326  -0.002  32.379  0.00  0.00     0.022 A 
ATOM      5  C   UNL d   1      57.513   0.335  33.088  0.00  0.00     0.058 A 
ATOM      6  C   UNL d   1      57.666  -0.349  31.044  0.00  0.00     0.084 A 
ATOM      7  C   UNL d   1      57.867  -0.002  31.764  0.00  0.00     0.019 A 
ATOM      8  C   UNL d   1      56.385  -0.696  31.552  0.00  0.00     0.019 A 
ATOM      9  O   UNL d   1      56.920   0.556  34.367  0.00  0.00    -0.267 OA
ATOM     10  C   UNL d   1      56.925  -0.696  30.937  0.00  0.00     0.021 A 
ATOM     11  C   UNL d   1      58.253   0.682  33.194  0.00  0.00     0.005 A 
ATOM     12  C   UNL d   1      58.594   0.335  31.859  0.00  0.00     0.002 A 
ATOM     13  C   UNL d   1      58.794   0.682  32.579  0.00  0.00     0.000 A 
ENDROOT
BRANCH   6  14
ATOM     14  N   UNL d   1      58.207  -0.349  30.429  0.00  0.00    -0.212 NA
ATOM     15  C   UNL d   1      58.252  -0.999  29.923  0.00  0.00     0.255 C 
ATOM     16  O   UNL d   1      57.762  -1.630  30.039  0.00  0.00    -0.270 OA
BRANCH  15  17
ATOM     17  C   UNL d   1      58.792  -0.999  29.309  0.00  0.00     0.073 C 
ATOM     18  C   UNL d   1      59.389  -1.569  29.288  0.00  0.00     0.009 C 
ATOM     19  C   UNL d   1      58.736  -0.430  28.714  0.00  0.00     0.009 C 
ATOM     20  C   UNL d   1      59.408  -0.992  28.600  0.00  0.00     0.009 C 
ENDBRANCH  15  17
ENDBRANCH   6  14
BRANCH   1  21
ATOM     21  C   UNL d   1      55.399  -0.565  33.030  0.00  0.00     0.083 C 
ATOM     22  C   UNL d   1      54.920  -0.326  33.626  0.00  0.00     0.021 C 
ENDBRANCH   1  21
TORSDOF 3
ENDMDL
