MODEL 1
REMARK VINA RESULT:      -7.2      0.000      0.000
REMARK  1 active torsions:
REMARK  status: ('A' for Active; 'I' for Inactive)
REMARK       I    between atoms: N_2  and  C_1 
REMARK    1  A    between atoms: C_4  and  N_2 
ROOT
ATOM      1  C   UNL d   1      53.962  32.422  53.667  0.00  0.00     0.101 A 
ATOM      2  C   UNL d   1      53.981  31.598  53.703  0.00  0.00     0.031 A 
ATOM      3  C   UNL d   1      53.359  31.155  53.376  0.00  0.00     0.059 A 
ATOM      4 CL   UNL d   1      53.379  30.331  53.412  0.00  0.00    -0.082 Cl
ATOM      5  C   UNL d   1      52.705  32.362  52.979  0.00  0.00     0.002 A 
ATOM      6  C   UNL d   1      53.320  32.803  53.303  0.00  0.00     0.020 A 
ATOM      7  C   UNL d   1      52.724  31.538  53.016  0.00  0.00     0.011 A 
ENDROOT
BRANCH   1   8
ATOM      8  N   UNL d   1      54.576  32.867  53.990  0.00  0.00    -0.056 NA
ATOM      9  C   UNL d   1      54.510  33.177  54.749  0.00  0.00     0.787 C 
ATOM     10  N   UNL d   1      55.122  33.622  55.074  0.00  0.00     0.064 N 
ATOM     11  N   UNL d   1      53.823  33.038  55.185  0.00  0.00     0.064 N 
ENDBRANCH   1   8
TORSDOF 1
ENDMDL
MODEL 2
REMARK VINA RESULT:      -7.1      1.789      2.665
REMARK  1 active torsions:
REMARK  status: ('A' for Active; 'I' for Inactive)
REMARK       I    between atoms: N_2  and  C_1 
REMARK    1  A    between atoms: C_4  and  N_2 
ROOT
ATOM      1  C   UNL d   1      54.012  32.160  53.904  0.00  0.00     0.101 A 
ATOM      2  C   UNL d   1      53.940  32.401  54.689  0.00  0.00     0.031 A 
ATOM      3  C   UNL d   1      54.390  33.042  54.968  0.00  0.00     0.059 A 
ATOM      4 CL   UNL d   1      54.317  33.283  55.754  0.00  0.00    -0.082 Cl
ATOM      5  C   UNL d   1      54.978  33.195  53.675  0.00  0.00     0.002 A 
ATOM      6  C   UNL d   1      54.534  32.561  53.396  0.00  0.00     0.020 A 
ATOM      7  C   UNL d   1      54.906  33.436  54.461  0.00  0.00     0.011 A 
ENDROOT
BRANCH   1   8
ATOM      8  N   UNL d   1      53.569  31.525  53.621  0.00  0.00    -0.056 NA
ATOM      9  C   UNL d   1      52.919  31.657  53.134  0.00  0.00     0.787 C 
ATOM     10  N   UNL d   1      52.475  31.024  52.850  0.00  0.00     0.064 N 
ATOM     11  N   UNL d   1      52.714  32.430  52.931  0.00  0.00     0.064 N 
ENDBRANCH   1   8
TORSDOF 1
ENDMDL
MODEL 3
REMARK VINA RESULT:      -6.9      2.035      2.714
REMARK  1 active torsions:
REMARK  status: ('A' for Active; 'I' for Inactive)
REMARK       I    between atoms: N_2  and  C_1 
REMARK    1  A    between atoms: C_4  and  N_2 
ROOT
ATOM      1  C   UNL d   1      53.182  33.390  53.978  0.00  0.00     0.101 A 
ATOM      2  C   UNL d   1      53.607  33.613  54.649  0.00  0.00     0.031 A 
ATOM      3  C   UNL d   1      54.396  33.370  54.738  0.00  0.00     0.059 A 
ATOM      4 CL   UNL d   1      54.821  33.593  55.409  0.00  0.00    -0.082 Cl
ATOM      5  C   UNL d   1      54.330  32.684  53.487  0.00  0.00     0.002 A 
ATOM      6  C   UNL d   1      53.547  32.924  53.396  0.00  0.00     0.020 A 
ATOM      7  C   UNL d   1      54.754  32.907  54.158  0.00  0.00     0.011 A 
ENDROOT
BRANCH   1   8
ATOM      8  N   UNL d   1      52.398  33.628  53.883  0.00  0.00    -0.056 NA
ATOM      9  C   UNL d   1      52.217  34.284  53.420  0.00  0.00     0.787 C 
ATOM     10  N   UNL d   1      51.435  34.523  53.324  0.00  0.00     0.064 N 
ATOM     11  N   UNL d   1      52.826  34.701  53.052  0.00  0.00     0.064 N 
ENDBRANCH   1   8
TORSDOF 1
ENDMDL
MODEL 4
REMARK VINA RESULT:      -6.8      1.626      2.165
REMARK  1 active torsions:
REMARK  status: ('A' for Active; 'I' for Inactive)
REMARK       I    between atoms: N_2  and  C_1 
REMARK    1  A    between atoms: C_4  and  N_2 
ROOT
ATOM      1  C   UNL d   1      52.869  32.385  52.914  0.00  0.00     0.101 A 
ATOM      2  C   UNL d   1      52.646  31.592  52.857  0.00  0.00     0.031 A 
ATOM      3  C   UNL d   1      53.071  31.013  53.275  0.00  0.00     0.059 A 
ATOM      4 CL   UNL d   1      52.849  30.220  53.217  0.00  0.00    -0.082 Cl
ATOM      5  C   UNL d   1      53.935  32.021  53.802  0.00  0.00     0.002 A 
ATOM      6  C   UNL d   1      53.516  32.598  53.389  0.00  0.00     0.020 A 
ATOM      7  C   UNL d   1      53.712  31.229  53.745  0.00  0.00     0.011 A 
ENDROOT
BRANCH   1   8
ATOM      8  N   UNL d   1      52.452  32.964  52.502  0.00  0.00    -0.056 NA
ATOM      9  C   UNL d   1      51.938  33.469  52.901  0.00  0.00     0.787 C 
ATOM     10  N   UNL d   1      51.521  34.049  52.492  0.00  0.00     0.064 N 
ATOM     11  N   UNL d   1      51.845  33.389  53.717  0.00  0.00     0.064 N 
ENDBRANCH   1   8
TORSDOF 1
ENDMDL
MODEL 5
REMARK VINA RESULT:      -6.5      1.829      2.263
REMARK  1 active torsions:
REMARK  status: ('A' for Active; 'I' for Inactive)
REMARK       I    between atoms: N_2  and  C_1 
REMARK    1  A    between atoms: C_4  and  N_2 
ROOT
ATOM      1  C   UNL d   1      52.909  33.949  54.099  0.00  0.00     0.101 A 
ATOM      2  C   UNL d   1      52.240  33.484  53.966  0.00  0.00     0.031 A 
ATOM      3  C   UNL d   1      51.723  33.674  53.344  0.00  0.00     0.059 A 
ATOM      4 CL   UNL d   1      51.054  33.209  53.211  0.00  0.00    -0.082 Cl
ATOM      5  C   UNL d   1      52.546  34.788  52.994  0.00  0.00     0.002 A 
ATOM      6  C   UNL d   1      53.061  34.602  53.610  0.00  0.00     0.020 A 
ATOM      7  C   UNL d   1      51.877  34.323  52.861  0.00  0.00     0.011 A 
ENDROOT
BRANCH   1   8
ATOM      8  N   UNL d   1      53.426  33.766  54.715  0.00  0.00    -0.056 NA
ATOM      9  C   UNL d   1      54.104  33.323  54.570  0.00  0.00     0.787 C 
ATOM     10  N   UNL d   1      54.622  33.139  55.183  0.00  0.00     0.064 N 
ATOM     11  N   UNL d   1      54.261  33.062  53.804  0.00  0.00     0.064 N 
ENDBRANCH   1   8
TORSDOF 1
ENDMDL
