MODEL 1
REMARK VINA RESULT:      11.2      0.000      0.000
REMARK  2 active torsions:
REMARK  status: ('A' for Active; 'I' for Inactive)
REMARK    1  A    between atoms: N_2  and  C_1 
REMARK    2  A    between atoms: C_5  and  N_2 
ROOT
ATOM      1  C   UNL d   1      57.792  49.692  50.282  0.00  0.00     0.084 A 
ATOM      2  C   UNL d   1      57.400  49.707  51.007  0.00  0.00     0.019 A 
ATOM      3  C   UNL d   1      57.373  49.661  49.581  0.00  0.00     0.019 A 
ATOM      4  C   UNL d   1      56.547  49.645  49.594  0.00  0.00     0.001 A 
ATOM      5  C   UNL d   1      56.574  49.691  51.025  0.00  0.00     0.001 A 
ATOM      6  C   UNL d   1      56.142  49.660  50.322  0.00  0.00     0.000 A 
ENDROOT
BRANCH   1   7
ATOM      7  N   UNL d   1      58.617  49.708  50.261  0.00  0.00    -0.216 NA
BRANCH   7   8
ATOM      8  C   UNL d   1      59.052  49.619  50.950  0.00  0.00     0.241 C 
ATOM      9  S   UNL d   1      59.853  49.445  50.924  0.00  0.00    -0.036 SA
ATOM     10  N   UNL d   1      58.677  49.707  51.682  0.00  0.00    -0.114 N 
ENDBRANCH   7   8
ENDBRANCH   1   7
TORSDOF 2
ENDMDL
MODEL 2
REMARK VINA RESULT:      11.5      1.418      2.844
REMARK  2 active torsions:
REMARK  status: ('A' for Active; 'I' for Inactive)
REMARK    1  A    between atoms: N_2  and  C_1 
REMARK    2  A    between atoms: C_5  and  N_2 
ROOT
ATOM      1  C   UNL d   1      59.473  49.677  50.376  0.00  0.00     0.084 A 
ATOM      2  C   UNL d   1      59.456  49.647  51.200  0.00  0.00     0.019 A 
ATOM      3  C   UNL d   1      60.184  49.706  49.974  0.00  0.00     0.019 A 
ATOM      4  C   UNL d   1      60.896  49.705  50.392  0.00  0.00     0.001 A 
ATOM      5  C   UNL d   1      60.166  49.646  51.623  0.00  0.00     0.001 A 
ATOM      6  C   UNL d   1      60.889  49.675  51.224  0.00  0.00     0.000 A 
ENDROOT
BRANCH   1   7
ATOM      7  N   UNL d   1      58.766  49.678  49.951  0.00  0.00    -0.216 NA
BRANCH   7   8
ATOM      8  C   UNL d   1      58.046  49.687  50.342  0.00  0.00     0.241 C 
ATOM      9  S   UNL d   1      57.340  49.706  49.926  0.00  0.00    -0.036 SA
ATOM     10  N   UNL d   1      58.031  49.676  51.169  0.00  0.00    -0.114 N 
ENDBRANCH   7   8
ENDBRANCH   1   7
TORSDOF 2
ENDMDL
MODEL 3
REMARK VINA RESULT:      11.8      1.268      1.911
REMARK  2 active torsions:
REMARK  status: ('A' for Active; 'I' for Inactive)
REMARK    1  A    between atoms: N_2  and  C_1 
REMARK    2  A    between atoms: C_5  and  N_2 
ROOT
ATOM      1  C   UNL d   1      59.382  49.705  50.434  0.00  0.00     0.084 A 
ATOM      2  C   UNL d   1      58.968  49.702  49.721  0.00  0.00     0.019 A 
ATOM      3  C   UNL d   1      58.984  49.706  51.148  0.00  0.00     0.019 A 
ATOM      4  C   UNL d   1      58.158  49.703  51.162  0.00  0.00     0.001 A 
ATOM      5  C   UNL d   1      58.141  49.699  49.729  0.00  0.00     0.001 A 
ATOM      6  C   UNL d   1      57.731  49.699  50.446  0.00  0.00     0.000 A 
ENDROOT
BRANCH   1   7
ATOM      7  N   UNL d   1      60.206  49.708  50.429  0.00  0.00    -0.216 NA
BRANCH   7   8
ATOM      8  C   UNL d   1      60.626  49.293  50.999  0.00  0.00     0.241 C 
ATOM      9  S   UNL d   1      60.996  49.684  51.618  0.00  0.00    -0.036 SA
ATOM     10  N   UNL d   1      60.677  48.469  50.948  0.00  0.00    -0.114 N 
ENDBRANCH   7   8
ENDBRANCH   1   7
TORSDOF 2
ENDMDL
