MODEL 1
REMARK VINA RESULT:      -2.2      0.000      0.000
REMARK  1 active torsions:
REMARK  status: ('A' for Active; 'I' for Inactive)
REMARK    1  A    between atoms: C_10  and  C_4 
ROOT
ATOM      1  C   UNL d   1      59.239  -1.675  29.356  0.00  0.00     0.111 A 
ATOM      2  C   UNL d   1      58.641  -0.559  30.046  0.00  0.00     0.062 A 
ATOM      3  C   UNL d   1      58.620  -2.147  29.564  0.00  0.00     0.213 A 
ATOM      4  C   UNL d   1      59.262  -0.856  29.597  0.00  0.00     0.018 A 
ATOM      5  C   UNL d   1      57.990  -1.064  30.262  0.00  0.00     0.105 A 
ATOM      6  O   UNL d   1      57.974  -1.820  30.036  0.00  0.00    -0.287 OA
ATOM      7  C   UNL d   1      59.857  -1.970  28.910  0.00  0.00     0.105 C 
ATOM      8  C   UNL d   1      58.631   0.226  30.295  0.00  0.00     0.198 A 
ATOM      9  N   UNL d   1      60.486  -2.272  28.455  0.00  0.00    -0.191 NA
ATOM     10  N   UNL d   1      58.583  -2.963  29.332  0.00  0.00    -0.120 N 
ATOM     11  O   UNL d   1      59.277   0.680  30.066  0.00  0.00    -0.286 OA
ATOM     12  C   UNL d   1      57.360  -0.763  30.717  0.00  0.00     0.025 A 
ATOM     13  C   UNL d   1      58.014   0.522  30.741  0.00  0.00     0.042 A 
ATOM     14  C   UNL d   1      57.374   0.048  30.961  0.00  0.00     0.005 A 
ENDROOT
BRANCH   4  15
ATOM     15  C   UNL d   1      59.876  -0.364  29.398  0.00  0.00     0.001 A 
ATOM     16  C   UNL d   1      60.510  -0.234  29.918  0.00  0.00     0.000 A 
ATOM     17  C   UNL d   1      61.128   0.268  29.705  0.00  0.00     0.000 A 
ATOM     18  C   UNL d   1      61.133   0.650  28.977  0.00  0.00     0.000 A 
ATOM     19  C   UNL d   1      60.500   0.520  28.456  0.00  0.00     0.000 A 
ATOM     20  C   UNL d   1      59.881   0.018  28.669  0.00  0.00     0.000 A 
ENDBRANCH   4  15
TORSDOF 1
ENDMDL
MODEL 2
REMARK VINA RESULT:      -2.1      1.322      2.425
REMARK  1 active torsions:
REMARK  status: ('A' for Active; 'I' for Inactive)
REMARK    1  A    between atoms: C_10  and  C_4 
ROOT
ATOM      1  C   UNL d   1      58.601  -0.856  30.021  0.00  0.00     0.111 A 
ATOM      2  C   UNL d   1      59.333  -1.814  29.230  0.00  0.00     0.062 A 
ATOM      3  C   UNL d   1      58.053  -1.418  30.209  0.00  0.00     0.213 A 
ATOM      4  C   UNL d   1      59.264  -1.047  29.519  0.00  0.00     0.018 A 
ATOM      5  C   UNL d   1      58.751  -2.401  29.432  0.00  0.00     0.105 A 
ATOM      6  O   UNL d   1      58.140  -2.219  29.897  0.00  0.00    -0.287 OA
ATOM      7  C   UNL d   1      58.532  -0.095  30.309  0.00  0.00     0.105 C 
ATOM      8  C   UNL d   1      59.961  -2.031  28.742  0.00  0.00     0.198 A 
ATOM      9  N   UNL d   1      58.461   0.682  30.602  0.00  0.00    -0.191 NA
ATOM     10  N   UNL d   1      57.388  -1.243  30.708  0.00  0.00    -0.120 N 
ATOM     11  O   UNL d   1      60.501  -1.435  28.570  0.00  0.00    -0.286 OA
ATOM     12  C   UNL d   1      58.821  -3.178  29.139  0.00  0.00     0.025 A 
ATOM     13  C   UNL d   1      60.030  -2.792  28.455  0.00  0.00     0.042 A 
ATOM     14  C   UNL d   1      59.475  -3.376  28.640  0.00  0.00     0.005 A 
ENDROOT
BRANCH   4  15
ATOM     15  C   UNL d   1      59.826  -0.497  29.318  0.00  0.00     0.001 A 
ATOM     16  C   UNL d   1      59.735  -0.012  28.650  0.00  0.00     0.000 A 
ATOM     17  C   UNL d   1      60.312   0.543  28.455  0.00  0.00     0.000 A 
ATOM     18  C   UNL d   1      60.988   0.631  28.915  0.00  0.00     0.000 A 
ATOM     19  C   UNL d   1      61.081   0.147  29.583  0.00  0.00     0.000 A 
ATOM     20  C   UNL d   1      60.502  -0.409  29.777  0.00  0.00     0.000 A 
ENDBRANCH   4  15
TORSDOF 1
ENDMDL
MODEL 3
REMARK VINA RESULT:      -2.0      1.370      3.126
REMARK  1 active torsions:
REMARK  status: ('A' for Active; 'I' for Inactive)
REMARK    1  A    between atoms: C_10  and  C_4 
ROOT
ATOM      1  C   UNL d   1      58.660  -0.668  30.064  0.00  0.00     0.111 A 
ATOM      2  C   UNL d   1      59.848  -0.583  29.250  0.00  0.00     0.062 A 
ATOM      3  C   UNL d   1      58.751   0.101  30.291  0.00  0.00     0.213 A 
ATOM      4  C   UNL d   1      59.218  -1.031  29.530  0.00  0.00     0.018 A 
ATOM      5  C   UNL d   1      59.936   0.228  29.494  0.00  0.00     0.105 A 
ATOM      6  O   UNL d   1      59.418   0.559  29.989  0.00  0.00    -0.287 OA
ATOM      7  C   UNL d   1      58.034  -1.114  30.342  0.00  0.00     0.105 C 
ATOM      8  C   UNL d   1      60.403  -0.903  28.733  0.00  0.00     0.198 A 
ATOM      9  N   UNL d   1      57.396  -1.568  30.625  0.00  0.00    -0.191 NA
ATOM     10  N   UNL d   1      58.204   0.476  30.823  0.00  0.00    -0.120 N 
ATOM     11  O   UNL d   1      60.282  -1.689  28.522  0.00  0.00    -0.286 OA
ATOM     12  C   UNL d   1      60.575   0.682  29.211  0.00  0.00     0.025 A 
ATOM     13  C   UNL d   1      61.029  -0.458  28.456  0.00  0.00     0.042 A 
ATOM     14  C   UNL d   1      61.132   0.330  28.680  0.00  0.00     0.005 A 
ENDROOT
BRANCH   4  15
ATOM     15  C   UNL d   1      59.145  -1.804  29.289  0.00  0.00     0.001 A 
ATOM     16  C   UNL d   1      58.611  -2.020  28.692  0.00  0.00     0.000 A 
ATOM     17  C   UNL d   1      58.545  -2.808  28.455  0.00  0.00     0.000 A 
ATOM     18  C   UNL d   1      59.004  -3.394  28.803  0.00  0.00     0.000 A 
ATOM     19  C   UNL d   1      59.539  -3.178  29.401  0.00  0.00     0.000 A 
ATOM     20  C   UNL d   1      59.604  -2.390  29.637  0.00  0.00     0.000 A 
ENDBRANCH   4  15
TORSDOF 1
ENDMDL
MODEL 4
REMARK VINA RESULT:      -1.6      0.987      2.488
REMARK  1 active torsions:
REMARK  status: ('A' for Active; 'I' for Inactive)
REMARK    1  A    between atoms: C_10  and  C_4 
ROOT
ATOM      1  C   UNL d   1      60.006  -0.478  29.410  0.00  0.00     0.111 A 
ATOM      2  C   UNL d   1      58.719  -0.514  30.059  0.00  0.00     0.062 A 
ATOM      3  C   UNL d   1      60.142   0.262  29.701  0.00  0.00     0.213 A 
ATOM      4  C   UNL d   1      59.278  -0.887  29.587  0.00  0.00     0.018 A 
ATOM      5  C   UNL d   1      58.870   0.268  30.363  0.00  0.00     0.105 A 
ATOM      6  O   UNL d   1      59.544   0.642  30.197  0.00  0.00    -0.287 OA
ATOM      7  C   UNL d   1      60.562  -0.849  28.940  0.00  0.00     0.105 C 
ATOM      8  C   UNL d   1      58.007  -0.881  30.249  0.00  0.00     0.198 A 
ATOM      9  N   UNL d   1      61.129  -1.227  28.462  0.00  0.00    -0.191 NA
ATOM     10  N   UNL d   1      60.861   0.682  29.534  0.00  0.00    -0.120 N 
ATOM     11  O   UNL d   1      57.900  -1.634  29.936  0.00  0.00    -0.286 OA
ATOM     12  C   UNL d   1      58.303   0.646  30.842  0.00  0.00     0.025 A 
ATOM     13  C   UNL d   1      57.450  -0.509  30.718  0.00  0.00     0.042 A 
ATOM     14  C   UNL d   1      57.578   0.248  31.022  0.00  0.00     0.005 A 
ENDROOT
BRANCH   4  15
ATOM     15  C   UNL d   1      59.122  -1.632  29.303  0.00  0.00     0.001 A 
ATOM     16  C   UNL d   1      58.530  -1.761  28.736  0.00  0.00     0.000 A 
ATOM     17  C   UNL d   1      58.380  -2.522  28.455  0.00  0.00     0.000 A 
ATOM     18  C   UNL d   1      58.810  -3.167  28.728  0.00  0.00     0.000 A 
ATOM     19  C   UNL d   1      59.402  -3.039  29.296  0.00  0.00     0.000 A 
ATOM     20  C   UNL d   1      59.552  -2.277  29.577  0.00  0.00     0.000 A 
ENDBRANCH   4  15
TORSDOF 1
ENDMDL
MODEL 5
REMARK VINA RESULT:      -1.1      1.833      2.684
REMARK  1 active torsions:
REMARK  status: ('A' for Active; 'I' for Inactive)
REMARK    1  A    between atoms: C_10  and  C_4 
ROOT
ATOM      1  C   UNL d   1      59.492   0.364  31.283  0.00  0.00     0.111 A 
ATOM      2  C   UNL d   1      58.054   0.358  31.389  0.00  0.00     0.062 A 
ATOM      3  C   UNL d   1      59.557   0.568  32.061  0.00  0.00     0.213 A 
ATOM      4  C   UNL d   1      58.725   0.253  30.926  0.00  0.00     0.018 A 
ATOM      5  C   UNL d   1      58.131   0.573  32.210  0.00  0.00     0.105 A 
ATOM      6  O   UNL d   1      58.843   0.674  32.535  0.00  0.00    -0.287 OA
ATOM      7  C   UNL d   1      60.159   0.261  30.822  0.00  0.00     0.105 C 
ATOM      8  C   UNL d   1      57.299   0.258  31.076  0.00  0.00     0.198 A 
ATOM      9  N   UNL d   1      60.839   0.155  30.353  0.00  0.00    -0.191 NA
ATOM     10  N   UNL d   1      60.314   0.682  32.430  0.00  0.00    -0.120 N 
ATOM     11  O   UNL d   1      57.268   0.051  30.281  0.00  0.00    -0.286 OA
ATOM     12  C   UNL d   1      57.451   0.678  32.679  0.00  0.00     0.025 A 
ATOM     13  C   UNL d   1      56.632   0.362  31.537  0.00  0.00     0.042 A 
ATOM     14  C   UNL d   1      56.686   0.570  32.334  0.00  0.00     0.005 A 
ENDROOT
BRANCH   4  15
ATOM     15  C   UNL d   1      58.637   0.048  30.145  0.00  0.00     0.001 A 
ATOM     16  C   UNL d   1      58.635   0.624  29.547  0.00  0.00     0.000 A 
ATOM     17  C   UNL d   1      58.546   0.405  28.757  0.00  0.00     0.000 A 
ATOM     18  C   UNL d   1      58.457  -0.385  28.543  0.00  0.00     0.000 A 
ATOM     19  C   UNL d   1      58.459  -0.961  29.141  0.00  0.00     0.000 A 
ATOM     20  C   UNL d   1      58.549  -0.741  29.932  0.00  0.00     0.000 A 
ENDBRANCH   4  15
TORSDOF 1
ENDMDL
MODEL 6
REMARK VINA RESULT:      -0.7      0.927      2.674
REMARK  1 active torsions:
REMARK  status: ('A' for Active; 'I' for Inactive)
REMARK    1  A    between atoms: C_10  and  C_4 
ROOT
ATOM      1  C   UNL d   1      58.972  -1.708  29.248  0.00  0.00     0.111 A 
ATOM      2  C   UNL d   1      59.751  -0.497  29.166  0.00  0.00     0.062 A 
ATOM      3  C   UNL d   1      59.533  -2.107  28.826  0.00  0.00     0.213 A 
ATOM      4  C   UNL d   1      59.073  -0.880  29.429  0.00  0.00     0.018 A 
ATOM      5  C   UNL d   1      60.338  -0.925  28.722  0.00  0.00     0.105 A 
ATOM      6  O   UNL d   1      60.240  -1.690  28.557  0.00  0.00    -0.287 OA
ATOM      7  C   UNL d   1      58.299  -2.089  29.509  0.00  0.00     0.105 C 
ATOM      8  C   UNL d   1      59.879   0.301  29.324  0.00  0.00     0.198 A 
ATOM      9  N   UNL d   1      57.612  -2.477  29.776  0.00  0.00    -0.191 NA
ATOM     10  N   UNL d   1      59.446  -2.931  28.638  0.00  0.00    -0.120 N 
ATOM     11  O   UNL d   1      59.289   0.678  29.756  0.00  0.00    -0.286 OA
ATOM     12  C   UNL d   1      61.025  -0.536  28.455  0.00  0.00     0.025 A 
ATOM     13  C   UNL d   1      60.553   0.682  29.063  0.00  0.00     0.042 A 
ATOM     14  C   UNL d   1      61.133   0.285  28.630  0.00  0.00     0.005 A 
ENDROOT
BRANCH   4  15
ATOM     15  C   UNL d   1      58.521  -0.460  29.853  0.00  0.00     0.001 A 
ATOM     16  C   UNL d   1      57.952   0.008  29.471  0.00  0.00     0.000 A 
ATOM     17  C   UNL d   1      57.396   0.430  29.911  0.00  0.00     0.000 A 
ATOM     18  C   UNL d   1      57.392   0.398  30.732  0.00  0.00     0.000 A 
ATOM     19  C   UNL d   1      57.962  -0.071  31.115  0.00  0.00     0.000 A 
ATOM     20  C   UNL d   1      58.518  -0.493  30.674  0.00  0.00     0.000 A 
ENDBRANCH   4  15
TORSDOF 1
ENDMDL
MODEL 7
REMARK VINA RESULT:      -0.3      3.043      4.969
REMARK  1 active torsions:
REMARK  status: ('A' for Active; 'I' for Inactive)
REMARK    1  A    between atoms: C_10  and  C_4 
ROOT
ATOM      1  C   UNL d   1      57.784   0.386  33.465  0.00  0.00     0.111 A 
ATOM      2  C   UNL d   1      57.392   0.384  32.077  0.00  0.00     0.062 A 
ATOM      3  C   UNL d   1      58.542   0.572  33.260  0.00  0.00     0.213 A 
ATOM      4  C   UNL d   1      57.184   0.287  32.866  0.00  0.00     0.018 A 
ATOM      5  C   UNL d   1      58.194   0.580  31.868  0.00  0.00     0.105 A 
ATOM      6  O   UNL d   1      58.745   0.671  32.426  0.00  0.00    -0.287 OA
ATOM      7  C   UNL d   1      57.577   0.289  34.249  0.00  0.00     0.105 C 
ATOM      8  C   UNL d   1      56.837   0.295  31.475  0.00  0.00     0.198 A 
ATOM      9  N   UNL d   1      57.366   0.191  35.049  0.00  0.00    -0.191 NA
ATOM     10  N   UNL d   1      59.150   0.674  33.844  0.00  0.00    -0.120 N 
ATOM     11  O   UNL d   1      56.075   0.106  31.718  0.00  0.00    -0.286 OA
ATOM     12  C   UNL d   1      58.405   0.679  31.068  0.00  0.00     0.025 A 
ATOM     13  C   UNL d   1      57.044   0.392  30.691  0.00  0.00     0.042 A 
ATOM     14  C   UNL d   1      57.817   0.582  30.468  0.00  0.00     0.005 A 
ENDROOT
BRANCH   4  15
ATOM     15  C   UNL d   1      56.415   0.100  33.052  0.00  0.00     0.001 A 
ATOM     16  C   UNL d   1      55.884   0.679  33.320  0.00  0.00     0.000 A 
ATOM     17  C   UNL d   1      55.106   0.478  33.506  0.00  0.00     0.000 A 
ATOM     18  C   UNL d   1      54.839  -0.296  33.430  0.00  0.00     0.000 A 
ATOM     19  C   UNL d   1      55.370  -0.876  33.162  0.00  0.00     0.000 A 
ATOM     20  C   UNL d   1      56.148  -0.674  32.977  0.00  0.00     0.000 A 
ENDBRANCH   4  15
TORSDOF 1
ENDMDL
MODEL 8
REMARK VINA RESULT:      -0.2      3.218      4.569
REMARK  1 active torsions:
REMARK  status: ('A' for Active; 'I' for Inactive)
REMARK    1  A    between atoms: C_10  and  C_4 
ROOT
ATOM      1  C   UNL d   1      57.747   0.367  33.491  0.00  0.00     0.111 A 
ATOM      2  C   UNL d   1      56.331   0.143  33.339  0.00  0.00     0.062 A 
ATOM      3  C   UNL d   1      57.650   0.497  34.281  0.00  0.00     0.213 A 
ATOM      4  C   UNL d   1      57.076   0.184  32.995  0.00  0.00     0.018 A 
ATOM      5  C   UNL d   1      56.236   0.281  34.174  0.00  0.00     0.105 A 
ATOM      6  O   UNL d   1      56.860   0.450  34.627  0.00  0.00    -0.287 OA
ATOM      7  C   UNL d   1      58.488   0.409  33.150  0.00  0.00     0.105 C 
ATOM      8  C   UNL d   1      55.663  -0.032  32.889  0.00  0.00     0.198 A 
ATOM      9  N   UNL d   1      59.244   0.451  32.802  0.00  0.00    -0.191 NA
ATOM     10  N   UNL d   1      58.308   0.680  34.786  0.00  0.00    -0.120 N 
ATOM     11  O   UNL d   1      55.796  -0.158  32.088  0.00  0.00    -0.286 OA
ATOM     12  C   UNL d   1      55.481   0.238  34.521  0.00  0.00     0.025 A 
ATOM     13  C   UNL d   1      54.922  -0.073  33.230  0.00  0.00     0.042 A 
ATOM     14  C   UNL d   1      54.810   0.057  34.038  0.00  0.00     0.005 A 
ENDROOT
BRANCH   4  15
ATOM     15  C   UNL d   1      57.152   0.051  32.198  0.00  0.00     0.001 A 
ATOM     16  C   UNL d   1      57.254   0.678  31.664  0.00  0.00     0.000 A 
ATOM     17  C   UNL d   1      57.330   0.531  30.856  0.00  0.00     0.000 A 
ATOM     18  C   UNL d   1      57.307  -0.236  30.561  0.00  0.00     0.000 A 
ATOM     19  C   UNL d   1      57.205  -0.865  31.095  0.00  0.00     0.000 A 
ATOM     20  C   UNL d   1      57.129  -0.716  31.903  0.00  0.00     0.000 A 
ENDBRANCH   4  15
TORSDOF 1
ENDMDL
