MODEL 1
REMARK VINA RESULT:      17.1      0.000      0.000
REMARK  5 active torsions:
REMARK  status: ('A' for Active; 'I' for Inactive)
REMARK    1  A    between atoms: C_10  and  N_4 
REMARK    2  A    between atoms: C_12  and  C_10 
REMARK    3  A    between atoms: N_13  and  C_12 
REMARK    4  A    between atoms: C_19  and  N_13 
REMARK    5  A    between atoms: C_20  and  N_13 
ROOT
ATOM      1  C   UNL d   1      46.321 -18.329  42.350  0.00  0.00     0.102 A 
ATOM      2  N   UNL d   1      46.180 -17.551  42.561  0.00  0.00    -0.163 NA
ATOM      3  C   UNL d   1      46.406 -18.915  42.924  0.00  0.00     0.024 A 
ATOM      4  N   UNL d   1      46.133 -17.467  43.689  0.00  0.00    -0.192 N 
ATOM      5  C   UNL d   1      46.238 -18.150  44.126  0.00  0.00     0.280 A 
ATOM      6  C   UNL d   1      46.375 -18.875  43.742  0.00  0.00     0.059 A 
ATOM      7  C   UNL d   1      46.540 -19.630  42.546  0.00  0.00     0.002 A 
ATOM      8  C   UNL d   1      46.405 -18.691  41.613  0.00  0.00     0.019 A 
ATOM      9  C   UNL d   1      46.541 -19.495  41.734  0.00  0.00     0.002 A 
ATOM     10  O   UNL d   1      46.208 -18.116  44.955  0.00  0.00    -0.265 OA
ATOM     11  C   UNL d   1      46.482 -19.569  44.188  0.00  0.00     0.005 A 
ATOM     12  C   UNL d   1      46.647 -20.317  42.981  0.00  0.00     0.000 A 
ATOM     13  C   UNL d   1      46.375 -18.391  40.845  0.00  0.00     0.002 A 
ATOM     14  C   UNL d   1      46.646 -19.996  41.085  0.00  0.00     0.000 A 
ATOM     15  C   UNL d   1      46.617 -20.283  43.811  0.00  0.00     0.000 A 
ATOM     16  C   UNL d   1      46.481 -18.891  40.197  0.00  0.00     0.000 A 
ATOM     17  C   UNL d   1      46.617 -19.696  40.317  0.00  0.00     0.000 A 
ENDROOT
BRANCH   4  18
ATOM     18  C   UNL d   1      46.010 -16.849  44.229  0.00  0.00     0.123 C 
BRANCH  18  19
ATOM     19  C   UNL d   1      45.609 -16.163  43.989  0.00  0.00     0.101 C 
BRANCH  19  20
ATOM     20  N   UNL d   1      45.569 -15.508  44.496  0.00  0.00    -0.301 N 
BRANCH  20  21
ATOM     21  C   UNL d   1      44.863 -15.304  44.857  0.00  0.00     0.080 C 
ATOM     22  C   UNL d   1      44.416 -14.669  44.577  0.00  0.00     0.021 C 
ENDBRANCH  20  21
BRANCH  20  23
ATOM     23  C   UNL d   1      46.251 -15.062  44.635  0.00  0.00     0.080 C 
ATOM     24  C   UNL d   1      46.251 -14.254  44.477  0.00  0.00     0.021 C 
ENDBRANCH  20  23
ENDBRANCH  19  20
ENDBRANCH  18  19
ENDBRANCH   4  18
TORSDOF 5
ENDMDL
