MODEL 1
REMARK VINA RESULT:      -7.7      0.000      0.000
REMARK  2 active torsions:
REMARK  status: ('A' for Active; 'I' for Inactive)
REMARK    1  A    between atoms: S_4  and  C_1 
REMARK    2  A    between atoms: C_9  and  S_4 
ROOT
ATOM      1  C   UNL d   1     -48.986  12.879  22.980  0.00  0.00     0.107 A 
ATOM      2  C   UNL d   1     -49.198  12.212  22.529  0.00  0.00     0.201 A 
ATOM      3  C   UNL d   1     -49.378  13.573  22.939  0.00  0.00     0.201 A 
ATOM      4  C   UNL d   1     -50.263  13.011  21.971  0.00  0.00     0.043 A 
ATOM      5  C   UNL d   1     -49.847  12.280  22.017  0.00  0.00     0.020 A 
ATOM      6  C   UNL d   1     -50.022  13.652  22.435  0.00  0.00     0.020 A 
ATOM      7  O   UNL d   1     -49.122  14.189  23.404  0.00  0.00    -0.286 OA
ATOM      8  O   UNL d   1     -48.803  11.494  22.563  0.00  0.00    -0.286 OA
ATOM      9  C   UNL d   1     -50.808  13.557  21.742  0.00  0.00     0.009 C 
ATOM     10  C   UNL d   1     -50.693  12.567  21.432  0.00  0.00     0.009 C 
ENDROOT
BRANCH   1  11
ATOM     11  S   UNL d   1     -48.320  12.823  23.511  0.00  0.00    -0.081 SA
BRANCH  11  12
ATOM     12  C   UNL d   1     -47.546  12.953  23.201  0.00  0.00     0.030 A 
ATOM     13  C   UNL d   1     -47.334  13.676  22.860  0.00  0.00     0.007 A 
ATOM     14  C   UNL d   1     -46.570  13.772  22.566  0.00  0.00     0.007 A 
ATOM     15  C   UNL d   1     -46.022  13.162  22.610  0.00  0.00     0.035 A 
ATOM     16  C   UNL d   1     -46.245  12.446  22.952  0.00  0.00     0.007 A 
ATOM     17 BR   UNL d   1     -45.252  13.274  22.308  0.00  0.00    -0.049 Br
ATOM     18  C   UNL d   1     -47.005  12.333  23.251  0.00  0.00     0.007 A 
ENDBRANCH  11  12
ENDBRANCH   1  11
TORSDOF 2
ENDMDL
MODEL 2
REMARK VINA RESULT:      -7.4      1.551      3.626
REMARK  2 active torsions:
REMARK  status: ('A' for Active; 'I' for Inactive)
REMARK    1  A    between atoms: S_4  and  C_1 
REMARK    2  A    between atoms: C_9  and  S_4 
ROOT
ATOM      1  C   UNL d   1     -47.866  13.376  23.186  0.00  0.00     0.107 A 
ATOM      2  C   UNL d   1     -47.473  14.060  22.919  0.00  0.00     0.201 A 
ATOM      3  C   UNL d   1     -47.514  12.661  23.224  0.00  0.00     0.201 A 
ATOM      4  C   UNL d   1     -46.306  13.232  22.722  0.00  0.00     0.043 A 
ATOM      5  C   UNL d   1     -46.681  13.987  22.683  0.00  0.00     0.020 A 
ATOM      6  C   UNL d   1     -46.730  12.576  22.993  0.00  0.00     0.020 A 
ATOM      7  O   UNL d   1     -47.950  12.030  23.494  0.00  0.00    -0.286 OA
ATOM      8  O   UNL d   1     -47.824  14.800  22.875  0.00  0.00    -0.286 OA
ATOM      9  C   UNL d   1     -45.736  12.668  22.659  0.00  0.00     0.009 C 
ATOM     10  C   UNL d   1     -45.688  13.685  22.431  0.00  0.00     0.009 C 
ENDROOT
BRANCH   1  11
ATOM     11  S   UNL d   1     -48.681  13.439  23.431  0.00  0.00    -0.081 SA
BRANCH  11  12
ATOM     12  C   UNL d   1     -49.281  13.430  22.839  0.00  0.00     0.030 A 
ATOM     13  C   UNL d   1     -49.419  12.760  22.374  0.00  0.00     0.007 A 
ATOM     14  C   UNL d   1     -50.014  12.783  21.803  0.00  0.00     0.007 A 
ATOM     15  C   UNL d   1     -50.465  13.460  21.693  0.00  0.00     0.035 A 
ATOM     16  C   UNL d   1     -50.318  14.122  22.162  0.00  0.00     0.007 A 
ATOM     17 BR   UNL d   1     -51.064  13.468  21.111  0.00  0.00    -0.049 Br
ATOM     18  C   UNL d   1     -49.729  14.116  22.737  0.00  0.00     0.007 A 
ENDBRANCH  11  12
ENDBRANCH   1  11
TORSDOF 2
ENDMDL
MODEL 3
REMARK VINA RESULT:      -6.4      8.907     10.327
REMARK  2 active torsions:
REMARK  status: ('A' for Active; 'I' for Inactive)
REMARK    1  A    between atoms: S_4  and  C_1 
REMARK    2  A    between atoms: C_9  and  S_4 
ROOT
ATOM      1  C   UNL d   1     -39.895  14.400  17.537  0.00  0.00     0.107 A 
ATOM      2  C   UNL d   1     -39.360  13.769  17.628  0.00  0.00     0.201 A 
ATOM      3  C   UNL d   1     -39.802  14.971  16.988  0.00  0.00     0.201 A 
ATOM      4  C   UNL d   1     -38.601  14.341  16.542  0.00  0.00     0.043 A 
ATOM      5  C   UNL d   1     -38.704  13.739  17.123  0.00  0.00     0.020 A 
ATOM      6  C   UNL d   1     -39.155  14.953  16.481  0.00  0.00     0.020 A 
ATOM      7  O   UNL d   1     -40.358  15.563  16.947  0.00  0.00    -0.286 OA
ATOM      8  O   UNL d   1     -39.446  13.176  18.189  0.00  0.00    -0.286 OA
ATOM      9  C   UNL d   1     -38.277  14.757  15.934  0.00  0.00     0.009 C 
ATOM     10  C   UNL d   1     -37.940  13.880  16.389  0.00  0.00     0.009 C 
ENDROOT
BRANCH   1  11
ATOM     11  S   UNL d   1     -40.575  14.443  18.051  0.00  0.00    -0.081 SA
BRANCH  11  12
ATOM     12  C   UNL d   1     -40.484  14.799  18.810  0.00  0.00     0.030 A 
ATOM     13  C   UNL d   1     -40.313  15.604  18.891  0.00  0.00     0.007 A 
ATOM     14  C   UNL d   1     -40.230  15.922  19.647  0.00  0.00     0.007 A 
ATOM     15  C   UNL d   1     -40.315  15.451  20.314  0.00  0.00     0.035 A 
ATOM     16  C   UNL d   1     -40.486  14.649  20.221  0.00  0.00     0.007 A 
ATOM     17 BR   UNL d   1     -40.228  15.787  21.073  0.00  0.00    -0.049 Br
ATOM     18  C   UNL d   1     -40.572  14.316  19.473  0.00  0.00     0.007 A 
ENDBRANCH  11  12
ENDBRANCH   1  11
TORSDOF 2
ENDMDL
MODEL 4
REMARK VINA RESULT:      -5.5      9.177      9.874
REMARK  2 active torsions:
REMARK  status: ('A' for Active; 'I' for Inactive)
REMARK    1  A    between atoms: S_4  and  C_1 
REMARK    2  A    between atoms: C_9  and  S_4 
ROOT
ATOM      1  C   UNL d   1     -39.587  15.690  19.033  0.00  0.00     0.107 A 
ATOM      2  C   UNL d   1     -40.415  15.701  18.942  0.00  0.00     0.201 A 
ATOM      3  C   UNL d   1     -39.089  15.474  18.448  0.00  0.00     0.201 A 
ATOM      4  C   UNL d   1     -40.205  15.248  17.587  0.00  0.00     0.043 A 
ATOM      5  C   UNL d   1     -40.728  15.477  18.208  0.00  0.00     0.020 A 
ATOM      6  C   UNL d   1     -39.387  15.249  17.717  0.00  0.00     0.020 A 
ATOM      7  O   UNL d   1     -38.290  15.483  18.598  0.00  0.00    -0.286 OA
ATOM      8  O   UNL d   1     -40.936  15.922  19.536  0.00  0.00    -0.286 OA
ATOM      9  C   UNL d   1     -39.953  14.999  16.865  0.00  0.00     0.009 C 
ATOM     10  C   UNL d   1     -40.926  15.159  17.207  0.00  0.00     0.009 C 
ENDROOT
BRANCH   1  11
ATOM     11  S   UNL d   1     -39.252  15.920  19.784  0.00  0.00    -0.081 SA
BRANCH  11  12
ATOM     12  C   UNL d   1     -39.199  15.340  20.395  0.00  0.00     0.030 A 
ATOM     13  C   UNL d   1     -38.706  14.680  20.322  0.00  0.00     0.007 A 
ATOM     14  C   UNL d   1     -38.677  14.132  20.937  0.00  0.00     0.007 A 
ATOM     15  C   UNL d   1     -39.129  14.234  21.614  0.00  0.00     0.035 A 
ATOM     16  C   UNL d   1     -39.618  14.896  21.675  0.00  0.00     0.007 A 
ATOM     17 BR   UNL d   1     -39.089  13.670  22.228  0.00  0.00    -0.049 Br
ATOM     18  C   UNL d   1     -39.659  15.453  21.071  0.00  0.00     0.007 A 
ENDBRANCH  11  12
ENDBRANCH   1  11
TORSDOF 2
ENDMDL
