MODEL 1
REMARK VINA RESULT:      -1.4      0.000      0.000
REMARK  4 active torsions:
REMARK  status: ('A' for Active; 'I' for Inactive)
REMARK    1  A    between atoms: S_11  and  C_7 
REMARK    2  A    between atoms: C_17  and  C_10 
REMARK    3  A    between atoms: C_16  and  S_11 
REMARK    4  A    between atoms: C_20  and  C_17 
ROOT
ATOM      1  N   UNL d   1      28.783  16.550 -23.914  0.00  0.00    -0.224 N 
ATOM      2  N   UNL d   1      29.111  17.816 -24.509  0.00  0.00    -0.241 N 
ATOM      3  C   UNL d   1      28.547  17.292 -24.213  0.00  0.00     0.343 A 
ATOM      4  C   UNL d   1      29.909  17.598 -24.505  0.00  0.00     0.160 A 
ATOM      5  C   UNL d   1      29.579  16.339 -23.913  0.00  0.00     0.273 A 
ATOM      6  C   UNL d   1      30.143  16.863 -24.208  0.00  0.00     0.115 A 
ATOM      7  C   UNL d   1      30.940  16.652 -24.208  0.00  0.00     0.120 A 
ATOM      8  N   UNL d   1      30.481  18.123 -24.803  0.00  0.00    -0.209 NA
ATOM      9  N   UNL d   1      31.505  17.172 -24.502  0.00  0.00    -0.220 NA
ATOM     10  C   UNL d   1      31.278  17.912 -24.802  0.00  0.00     0.165 A 
ATOM     11  O   UNL d   1      27.746  17.502 -24.213  0.00  0.00    -0.245 OA
ATOM     12  O   UNL d   1      29.809  15.604 -23.615  0.00  0.00    -0.266 OA
ATOM     13  C   UNL d   1      28.216  16.034 -23.621  0.00  0.00     0.107 C 
ATOM     14  C   UNL d   1      28.878  18.551 -24.806  0.00  0.00     0.105 C 
ENDROOT
BRANCH   7  15
ATOM     15  S   UNL d   1      31.169  15.916 -23.910  0.00  0.00    -0.068 SA
BRANCH  15  16
ATOM     16  C   UNL d   1      31.944  15.800 -23.648  0.00  0.00     0.031 A 
ATOM     17  C   UNL d   1      32.241  16.002 -22.907  0.00  0.00     0.006 A 
ATOM     18  C   UNL d   1      33.037  15.793 -22.868  0.00  0.00     0.001 A 
ATOM     19  C   UNL d   1      33.233  15.454 -23.602  0.00  0.00     0.001 A 
ATOM     20  C   UNL d   1      32.553  15.460 -24.082  0.00  0.00     0.006 A 
ENDBRANCH  15  16
ENDBRANCH   7  15
BRANCH  10  21
ATOM     21  C   UNL d   1      31.847  18.433 -25.097  0.00  0.00     0.039 C 
BRANCH  21  22
ATOM     22  C   UNL d   1      32.356  18.825 -24.573  0.00  0.00     0.003 C 
ATOM     23  C   UNL d   1      33.060  19.144 -24.838  0.00  0.00     0.000 C 
ENDBRANCH  21  22
ENDBRANCH  10  21
TORSDOF 4
ENDMDL
MODEL 2
REMARK VINA RESULT:      -0.5      1.039      2.585
REMARK  4 active torsions:
REMARK  status: ('A' for Active; 'I' for Inactive)
REMARK    1  A    between atoms: S_11  and  C_7 
REMARK    2  A    between atoms: C_17  and  C_10 
REMARK    3  A    between atoms: C_16  and  S_11 
REMARK    4  A    between atoms: C_20  and  C_17 
ROOT
ATOM      1  N   UNL d   1      29.040  17.008 -24.181  0.00  0.00    -0.224 N 
ATOM      2  N   UNL d   1      29.614  16.036 -23.294  0.00  0.00    -0.241 N 
ATOM      3  C   UNL d   1      28.951  16.419 -23.597  0.00  0.00     0.343 A 
ATOM      4  C   UNL d   1      30.366  16.241 -23.574  0.00  0.00     0.160 A 
ATOM      5  C   UNL d   1      29.790  17.208 -24.456  0.00  0.00     0.273 A 
ATOM      6  C   UNL d   1      30.453  16.824 -24.153  0.00  0.00     0.115 A 
ATOM      7  C   UNL d   1      31.205  17.024 -24.428  0.00  0.00     0.120 A 
ATOM      8  N   UNL d   1      31.038  15.856 -23.271  0.00  0.00    -0.209 NA
ATOM      9  N   UNL d   1      31.869  16.643 -24.127  0.00  0.00    -0.220 NA
ATOM     10  C   UNL d   1      31.789  16.056 -23.546  0.00  0.00     0.165 A 
ATOM     11  O   UNL d   1      28.196  16.220 -23.323  0.00  0.00    -0.245 OA
ATOM     12  O   UNL d   1      29.874  17.791 -25.035  0.00  0.00    -0.266 OA
ATOM     13  C   UNL d   1      28.375  17.386 -24.479  0.00  0.00     0.107 C 
ATOM     14  C   UNL d   1      29.527  15.453 -22.716  0.00  0.00     0.105 C 
ENDROOT
BRANCH   7  15
ATOM     15  S   UNL d   1      31.289  17.607 -25.006  0.00  0.00    -0.068 SA
BRANCH  15  16
ATOM     16  C   UNL d   1      31.896  18.164 -24.947  0.00  0.00     0.031 A 
ATOM     17  C   UNL d   1      31.812  18.954 -24.729  0.00  0.00     0.006 A 
ATOM     18  C   UNL d   1      32.550  19.318 -24.739  0.00  0.00     0.001 A 
ATOM     19  C   UNL d   1      33.101  18.739 -24.969  0.00  0.00     0.001 A 
ATOM     20  C   UNL d   1      32.692  18.025 -25.097  0.00  0.00     0.006 A 
ENDBRANCH  15  16
ENDBRANCH   7  15
BRANCH  10  21
ATOM     21  C   UNL d   1      32.457  15.675 -23.245  0.00  0.00     0.039 C 
BRANCH  21  22
ATOM     22  C   UNL d   1      32.949  16.070 -22.708  0.00  0.00     0.003 C 
ATOM     23  C   UNL d   1      33.220  15.692 -22.036  0.00  0.00     0.000 C 
ENDBRANCH  21  22
ENDBRANCH  10  21
TORSDOF 4
ENDMDL
MODEL 3
REMARK VINA RESULT:      -0.4      4.491      5.657
REMARK  4 active torsions:
REMARK  status: ('A' for Active; 'I' for Inactive)
REMARK    1  A    between atoms: S_11  and  C_7 
REMARK    2  A    between atoms: C_17  and  C_10 
REMARK    3  A    between atoms: C_16  and  S_11 
REMARK    4  A    between atoms: C_20  and  C_17 
ROOT
ATOM      1  N   UNL d   1      32.790  21.331 -20.433  0.00  0.00    -0.224 N 
ATOM      2  N   UNL d   1      32.793  22.575 -21.152  0.00  0.00    -0.241 N 
ATOM      3  C   UNL d   1      32.718  22.162 -20.443  0.00  0.00     0.343 A 
ATOM      4  C   UNL d   1      32.941  22.157 -21.851  0.00  0.00     0.160 A 
ATOM      5  C   UNL d   1      32.937  20.921 -21.132  0.00  0.00     0.273 A 
ATOM      6  C   UNL d   1      33.012  21.334 -21.841  0.00  0.00     0.115 A 
ATOM      7  C   UNL d   1      33.159  20.924 -22.542  0.00  0.00     0.120 A 
ATOM      8  N   UNL d   1      33.017  22.569 -22.569  0.00  0.00    -0.209 NA
ATOM      9  N   UNL d   1      33.235  21.332 -23.251  0.00  0.00    -0.220 NA
ATOM     10  C   UNL d   1      33.164  22.159 -23.269  0.00  0.00     0.165 A 
ATOM     11  O   UNL d   1      32.570  22.572 -19.738  0.00  0.00    -0.245 OA
ATOM     12  O   UNL d   1      33.008  20.098 -21.118  0.00  0.00    -0.266 OA
ATOM     13  C   UNL d   1      32.714  20.927 -19.723  0.00  0.00     0.107 C 
ATOM     14  C   UNL d   1      32.722  23.398 -21.162  0.00  0.00     0.105 C 
ENDROOT
BRANCH   7  15
ATOM     15  S   UNL d   1      33.230  20.101 -22.528  0.00  0.00    -0.068 SA
BRANCH  15  16
ATOM     16  C   UNL d   1      32.982  19.653 -23.177  0.00  0.00     0.031 A 
ATOM     17  C   UNL d   1      33.241  19.740 -23.954  0.00  0.00     0.006 A 
ATOM     18  C   UNL d   1      32.858  19.187 -24.430  0.00  0.00     0.001 A 
ATOM     19  C   UNL d   1      32.353  18.751 -23.934  0.00  0.00     0.001 A 
ATOM     20  C   UNL d   1      32.432  19.043 -23.158  0.00  0.00     0.006 A 
ENDBRANCH  15  16
ENDBRANCH   7  15
BRANCH  10  21
ATOM     21  C   UNL d   1      33.241  22.568 -23.983  0.00  0.00     0.039 C 
BRANCH  21  22
ATOM     22  C   UNL d   1      32.590  22.976 -24.294  0.00  0.00     0.003 C 
ATOM     23  C   UNL d   1      32.677  23.465 -24.943  0.00  0.00     0.000 C 
ENDBRANCH  21  22
ENDBRANCH  10  21
TORSDOF 4
ENDMDL
