MODEL 1
REMARK VINA RESULT:     -10.2      0.000      0.000
REMARK  1 active torsions:
REMARK  status: ('A' for Active; 'I' for Inactive)
REMARK    1  A    between atoms: C_8  and  C_4 
ROOT
ATOM      1  N   UNL d   1      52.567  32.720  53.196  0.00  0.00    -0.211 NA
ATOM      2  C   UNL d   1      53.236  32.443  53.593  0.00  0.00     0.140 A 
ATOM      3  C   UNL d   1      53.634  32.923  54.141  0.00  0.00     0.051 A 
ATOM      4  C   UNL d   1      52.288  33.487  53.346  0.00  0.00     0.183 A 
ATOM      5  C   UNL d   1      53.350  33.703  54.294  0.00  0.00     0.104 A 
ATOM      6  O   UNL d   1      52.679  33.974  53.893  0.00  0.00    -0.289 OA
ATOM      7  S   UNL d   1      53.516  31.676  53.442  0.00  0.00    -0.057 SA
ATOM      8  C   UNL d   1      54.303  32.655  54.541  0.00  0.00     0.004 A 
ATOM      9  C   UNL d   1      53.737  34.181  54.832  0.00  0.00     0.025 A 
ATOM     10  C   UNL d   1      54.692  33.138  55.084  0.00  0.00     0.000 A 
ATOM     11  C   UNL d   1      54.412  33.906  55.235  0.00  0.00     0.002 A 
ENDROOT
BRANCH   4  12
ATOM     12  C   UNL d   1      51.612  33.771  52.948  0.00  0.00     0.041 A 
ATOM     13  C   UNL d   1      50.879  33.756  53.319  0.00  0.00     0.004 A 
ATOM     14  C   UNL d   1      50.218  34.034  52.928  0.00  0.00     0.000 A 
ATOM     15  C   UNL d   1      50.287  34.331  52.162  0.00  0.00     0.000 A 
ATOM     16  C   UNL d   1      51.018  34.345  51.797  0.00  0.00     0.000 A 
ATOM     17  C   UNL d   1      51.694  34.061  52.195  0.00  0.00     0.004 A 
ENDBRANCH   4  12
TORSDOF 1
ENDMDL
MODEL 2
REMARK VINA RESULT:     -10.2      1.976      3.727
REMARK  1 active torsions:
REMARK  status: ('A' for Active; 'I' for Inactive)
REMARK    1  A    between atoms: C_8  and  C_4 
ROOT
ATOM      1  N   UNL d   1      53.259  32.672  53.590  0.00  0.00    -0.211 NA
ATOM      2  C   UNL d   1      52.776  32.141  53.183  0.00  0.00     0.140 A 
ATOM      3  C   UNL d   1      52.905  31.323  53.237  0.00  0.00     0.051 A 
ATOM      4  C   UNL d   1      53.881  32.386  54.059  0.00  0.00     0.183 A 
ATOM      5  C   UNL d   1      53.537  31.032  53.714  0.00  0.00     0.104 A 
ATOM      6  O   UNL d   1      54.018  31.569  54.120  0.00  0.00    -0.289 OA
ATOM      7  S   UNL d   1      52.154  32.427  52.713  0.00  0.00    -0.057 SA
ATOM      8  C   UNL d   1      52.427  30.784  52.834  0.00  0.00     0.004 A 
ATOM      9  C   UNL d   1      53.669  30.227  53.772  0.00  0.00     0.025 A 
ATOM     10  C   UNL d   1      52.561  29.973  52.893  0.00  0.00     0.000 A 
ATOM     11  C   UNL d   1      53.184  29.687  53.363  0.00  0.00     0.002 A 
ENDROOT
BRANCH   4  12
ATOM     12  C   UNL d   1      54.372  32.919  54.472  0.00  0.00     0.041 A 
ATOM     13  C   UNL d   1      55.000  33.284  54.087  0.00  0.00     0.004 A 
ATOM     14  C   UNL d   1      55.480  33.806  54.493  0.00  0.00     0.000 A 
ATOM     15  C   UNL d   1      55.335  33.965  55.288  0.00  0.00     0.000 A 
ATOM     16  C   UNL d   1      54.710  33.600  55.668  0.00  0.00     0.000 A 
ATOM     17  C   UNL d   1      54.219  33.067  55.254  0.00  0.00     0.004 A 
ENDBRANCH   4  12
TORSDOF 1
ENDMDL
MODEL 3
REMARK VINA RESULT:      -9.9      1.309      2.157
REMARK  1 active torsions:
REMARK  status: ('A' for Active; 'I' for Inactive)
REMARK    1  A    between atoms: C_8  and  C_4 
ROOT
ATOM      1  N   UNL d   1      52.938  32.992  53.619  0.00  0.00    -0.211 NA
ATOM      2  C   UNL d   1      53.490  32.418  53.837  0.00  0.00     0.140 A 
ATOM      3  C   UNL d   1      53.393  31.627  53.607  0.00  0.00     0.051 A 
ATOM      4  C   UNL d   1      52.278  32.776  53.165  0.00  0.00     0.183 A 
ATOM      5  C   UNL d   1      52.721  31.407  53.145  0.00  0.00     0.104 A 
ATOM      6  O   UNL d   1      52.172  31.987  52.930  0.00  0.00    -0.289 OA
ATOM      7  S   UNL d   1      54.150  32.634  54.291  0.00  0.00    -0.057 SA
ATOM      8  C   UNL d   1      53.939  31.047  53.820  0.00  0.00     0.004 A 
ATOM      9  C   UNL d   1      52.620  30.629  52.915  0.00  0.00     0.025 A 
ATOM     10  C   UNL d   1      53.836  30.263  53.588  0.00  0.00     0.000 A 
ATOM     11  C   UNL d   1      53.175  30.047  53.133  0.00  0.00     0.002 A 
ENDROOT
BRANCH   4  12
ATOM     12  C   UNL d   1      51.717  33.352  52.942  0.00  0.00     0.041 A 
ATOM     13  C   UNL d   1      51.878  33.864  52.319  0.00  0.00     0.004 A 
ATOM     14  C   UNL d   1      51.327  34.428  52.102  0.00  0.00     0.000 A 
ATOM     15  C   UNL d   1      50.612  34.483  52.508  0.00  0.00     0.000 A 
ATOM     16  C   UNL d   1      50.456  33.972  53.127  0.00  0.00     0.000 A 
ATOM     17  C   UNL d   1      51.017  33.396  53.349  0.00  0.00     0.004 A 
ENDBRANCH   4  12
TORSDOF 1
ENDMDL
MODEL 4
REMARK VINA RESULT:      -9.8      1.590      3.022
REMARK  1 active torsions:
REMARK  status: ('A' for Active; 'I' for Inactive)
REMARK    1  A    between atoms: C_8  and  C_4 
ROOT
ATOM      1  N   UNL d   1      53.939  32.393  54.285  0.00  0.00    -0.211 NA
ATOM      2  C   UNL d   1      54.012  33.191  54.481  0.00  0.00     0.140 A 
ATOM      3  C   UNL d   1      53.475  33.751  54.188  0.00  0.00     0.051 A 
ATOM      4  C   UNL d   1      53.320  32.146  53.790  0.00  0.00     0.183 A 
ATOM      5  C   UNL d   1      52.845  33.500  53.684  0.00  0.00     0.104 A 
ATOM      6  O   UNL d   1      52.777  32.699  53.492  0.00  0.00    -0.289 OA
ATOM      7  S   UNL d   1      54.631  33.438  54.976  0.00  0.00    -0.057 SA
ATOM      8  C   UNL d   1      53.540  34.551  54.378  0.00  0.00     0.004 A 
ATOM      9  C   UNL d   1      52.312  34.047  53.393  0.00  0.00     0.025 A 
ATOM     10  C   UNL d   1      53.002  35.101  54.084  0.00  0.00     0.000 A 
ATOM     11  C   UNL d   1      52.383  34.854  53.588  0.00  0.00     0.002 A 
ENDROOT
BRANCH   4  12
ATOM     12  C   UNL d   1      53.242  31.340  53.589  0.00  0.00     0.041 A 
ATOM     13  C   UNL d   1      53.469  30.758  54.124  0.00  0.00     0.004 A 
ATOM     14  C   UNL d   1      53.391  29.969  53.926  0.00  0.00     0.000 A 
ATOM     15  C   UNL d   1      53.085  29.758  53.190  0.00  0.00     0.000 A 
ATOM     16  C   UNL d   1      52.861  30.339  52.662  0.00  0.00     0.000 A 
ATOM     17  C   UNL d   1      52.939  31.145  52.862  0.00  0.00     0.004 A 
ENDBRANCH   4  12
TORSDOF 1
ENDMDL
MODEL 5
REMARK VINA RESULT:      -8.9      0.820      3.408
REMARK  1 active torsions:
REMARK  status: ('A' for Active; 'I' for Inactive)
REMARK    1  A    between atoms: C_8  and  C_4 
ROOT
ATOM      1  N   UNL d   1      53.189  32.610  53.636  0.00  0.00    -0.211 NA
ATOM      2  C   UNL d   1      52.503  32.508  53.188  0.00  0.00     0.140 A 
ATOM      3  C   UNL d   1      51.979  33.139  53.064  0.00  0.00     0.051 A 
ATOM      4  C   UNL d   1      53.358  33.353  53.966  0.00  0.00     0.183 A 
ATOM      5  C   UNL d   1      52.151  33.894  53.400  0.00  0.00     0.104 A 
ATOM      6  O   UNL d   1      52.840  33.990  53.847  0.00  0.00    -0.289 OA
ATOM      7  S   UNL d   1      52.335  31.765  52.859  0.00  0.00    -0.057 SA
ATOM      8  C   UNL d   1      51.292  33.046  52.619  0.00  0.00     0.004 A 
ATOM      9  C   UNL d   1      51.639  34.521  53.281  0.00  0.00     0.025 A 
ATOM     10  C   UNL d   1      50.776  33.678  52.500  0.00  0.00     0.000 A 
ATOM     11  C   UNL d   1      50.945  34.421  52.830  0.00  0.00     0.002 A 
ENDROOT
BRANCH   4  12
ATOM     12  C   UNL d   1      54.050  33.461  54.419  0.00  0.00     0.041 A 
ATOM     13  C   UNL d   1      54.026  33.375  55.236  0.00  0.00     0.004 A 
ATOM     14  C   UNL d   1      54.704  33.482  55.678  0.00  0.00     0.000 A 
ATOM     15  C   UNL d   1      55.413  33.676  55.305  0.00  0.00     0.000 A 
ATOM     16  C   UNL d   1      55.433  33.761  54.492  0.00  0.00     0.000 A 
ATOM     17  C   UNL d   1      54.741  33.652  54.039  0.00  0.00     0.004 A 
ENDBRANCH   4  12
TORSDOF 1
ENDMDL
