MODEL 1
REMARK VINA RESULT:      -6.2      0.000      0.000
REMARK  5 active torsions:
REMARK  status: ('A' for Active; 'I' for Inactive)
REMARK    1  A    between atoms: N_5  and  C_1 
REMARK    2  A    between atoms: N_6  and  C_1 
REMARK       I    between atoms: C_2  and  N_3 
REMARK    3  A    between atoms: C_4  and  C_2 
REMARK    4  A    between atoms: N_3  and  N_5 
REMARK    5  A    between atoms: C_10  and  N_6 
ROOT
ATOM      1  C   UNL d   1     -48.738  11.766  22.821  0.00  0.00     0.272 C 
ATOM      2  N   UNL d   1     -48.116  12.275  22.981  0.00  0.00    -0.264 N 
ATOM      3  O   UNL d   1     -48.599  11.005  22.557  0.00  0.00    -0.266 OA
ATOM      4  H   UNL d   1     -48.275  13.050  23.250  0.00  0.00     0.190 HD
ENDROOT
BRANCH   2   5
ATOM      5  N   UNL d   1     -47.351  12.031  22.880  0.00  0.00    -0.274 N 
ATOM      6  H   UNL d   1     -47.189  11.239  22.674  0.00  0.00     0.189 HD
BRANCH   5   7
ATOM      7  C   UNL d   1     -46.733  12.569  22.983  0.00  0.00     0.187 C 
ATOM      8  S   UNL d   1     -46.304  12.581  23.686  0.00  0.00    -0.040 SA
BRANCH   7   9
ATOM      9  N   UNL d   1     -46.553  13.091  22.377  0.00  0.00    -0.354 N 
ATOM     10  H   UNL d   1     -47.108  13.248  21.798  0.00  0.00     0.162 HD
BRANCH   9  11
ATOM     11  C   UNL d   1     -45.809  13.450  22.362  0.00  0.00     0.063 C 
ATOM     12  C   UNL d   1     -45.071  13.817  22.354  0.00  0.00     0.022 C 
ATOM     13  C   UNL d   1     -45.492  12.810  21.964  0.00  0.00     0.022 C 
ATOM     14  C   UNL d   1     -46.125  14.108  22.769  0.00  0.00     0.022 C 
ENDBRANCH   9  11
ENDBRANCH   7   9
ENDBRANCH   5   7
ENDBRANCH   2   5
BRANCH   1  15
ATOM     15  C   UNL d   1     -49.517  12.020  22.925  0.00  0.00     0.058 A 
ATOM     16  C   UNL d   1     -49.868  12.523  22.358  0.00  0.00     0.011 A 
ATOM     17  C   UNL d   1     -50.633  12.768  22.467  0.00  0.00     0.035 A 
ATOM     18 BR   UNL d   1     -50.975  13.255  21.921  0.00  0.00    -0.049 Br
ATOM     19  C   UNL d   1     -51.064  12.528  23.125  0.00  0.00     0.007 A 
ATOM     20  C   UNL d   1     -50.728  12.027  23.698  0.00  0.00     0.001 A 
ATOM     21  C   UNL d   1     -49.948  11.780  23.583  0.00  0.00     0.005 A 
ENDBRANCH   1  15
TORSDOF 5
ENDMDL
MODEL 2
REMARK VINA RESULT:      -5.9      2.003      2.259
REMARK  5 active torsions:
REMARK  status: ('A' for Active; 'I' for Inactive)
REMARK    1  A    between atoms: N_5  and  C_1 
REMARK    2  A    between atoms: N_6  and  C_1 
REMARK       I    between atoms: C_2  and  N_3 
REMARK    3  A    between atoms: C_4  and  C_2 
REMARK    4  A    between atoms: N_3  and  N_5 
REMARK    5  A    between atoms: C_10  and  N_6 
ROOT
ATOM      1  C   UNL d   1     -48.586  14.917  22.783  0.00  0.00     0.272 C 
ATOM      2  N   UNL d   1     -48.169  14.239  22.979  0.00  0.00    -0.264 N 
ATOM      3  O   UNL d   1     -48.195  15.600  22.565  0.00  0.00    -0.266 OA
ATOM      4  H   UNL d   1     -48.584  13.548  23.199  0.00  0.00     0.190 HD
ENDROOT
BRANCH   2   5
ATOM      5  N   UNL d   1     -47.360  14.236  22.960  0.00  0.00    -0.274 N 
ATOM      6  H   UNL d   1     -46.941  14.955  22.896  0.00  0.00     0.189 HD
BRANCH   5   7
ATOM      7  C   UNL d   1     -46.952  13.519  23.004  0.00  0.00     0.187 C 
ATOM      8  S   UNL d   1     -47.000  13.055  23.682  0.00  0.00    -0.040 SA
BRANCH   7   9
ATOM      9  N   UNL d   1     -46.500  13.277  22.365  0.00  0.00    -0.354 N 
ATOM     10  H   UNL d   1     -46.770  13.406  21.604  0.00  0.00     0.162 HD
BRANCH   9  11
ATOM     11  C   UNL d   1     -45.775  12.905  22.503  0.00  0.00     0.063 C 
ATOM     12  C   UNL d   1     -45.046  12.544  22.636  0.00  0.00     0.022 C 
ATOM     13  C   UNL d   1     -46.154  12.247  22.804  0.00  0.00     0.022 C 
ATOM     14  C   UNL d   1     -45.380  13.575  22.196  0.00  0.00     0.022 C 
ENDBRANCH   9  11
ENDBRANCH   7   9
ENDBRANCH   5   7
ENDBRANCH   2   5
BRANCH   1  15
ATOM     15  C   UNL d   1     -49.411  14.915  22.804  0.00  0.00     0.058 A 
ATOM     16  C   UNL d   1     -49.838  14.454  22.253  0.00  0.00     0.011 A 
ATOM     17  C   UNL d   1     -50.649  14.457  22.280  0.00  0.00     0.035 A 
ATOM     18 BR   UNL d   1     -51.064  14.013  21.749  0.00  0.00    -0.049 Br
ATOM     19  C   UNL d   1     -51.052  14.906  22.840  0.00  0.00     0.007 A 
ATOM     20  C   UNL d   1     -50.640  15.369  23.394  0.00  0.00     0.001 A 
ATOM     21  C   UNL d   1     -49.814  15.364  23.364  0.00  0.00     0.005 A 
ENDBRANCH   1  15
TORSDOF 5
ENDMDL
MODEL 3
REMARK VINA RESULT:      -5.5      8.982     10.440
REMARK  5 active torsions:
REMARK  status: ('A' for Active; 'I' for Inactive)
REMARK    1  A    between atoms: N_5  and  C_1 
REMARK    2  A    between atoms: N_6  and  C_1 
REMARK       I    between atoms: C_2  and  N_3 
REMARK    3  A    between atoms: C_4  and  C_2 
REMARK    4  A    between atoms: N_3  and  N_5 
REMARK    5  A    between atoms: C_10  and  N_6 
ROOT
ATOM      1  C   UNL d   1     -39.793  14.080  17.936  0.00  0.00     0.272 C 
ATOM      2  N   UNL d   1     -39.625  14.529  18.602  0.00  0.00    -0.264 N 
ATOM      3  O   UNL d   1     -40.566  13.943  17.709  0.00  0.00    -0.266 OA
ATOM      4  H   UNL d   1     -38.830  14.660  18.820  0.00  0.00     0.190 HD
ENDROOT
BRANCH   2   5
ATOM      5  N   UNL d   1     -40.224  14.844  19.046  0.00  0.00    -0.274 N 
ATOM      6  H   UNL d   1     -41.016  14.756  18.799  0.00  0.00     0.189 HD
BRANCH   5   7
ATOM      7  C   UNL d   1     -40.047  15.251  19.742  0.00  0.00     0.187 C 
ATOM      8  S   UNL d   1     -39.557  15.912  19.723  0.00  0.00    -0.040 SA
BRANCH   7   9
ATOM      9  N   UNL d   1     -40.365  14.988  20.450  0.00  0.00    -0.354 N 
ATOM     10  H   UNL d   1     -40.756  14.271  20.478  0.00  0.00     0.162 HD
BRANCH   9  11
ATOM     11  C   UNL d   1     -40.285  15.456  21.126  0.00  0.00     0.063 C 
ATOM     12  C   UNL d   1     -40.195  15.917  21.804  0.00  0.00     0.022 C 
ATOM     13  C   UNL d   1     -40.916  15.922  20.896  0.00  0.00     0.022 C 
ATOM     14  C   UNL d   1     -39.638  14.985  21.368  0.00  0.00     0.022 C 
ENDBRANCH   9  11
ENDBRANCH   7   9
ENDBRANCH   5   7
ENDBRANCH   2   5
BRANCH   1  15
ATOM     15  C   UNL d   1     -39.179  13.761  17.487  0.00  0.00     0.058 A 
ATOM     16  C   UNL d   1     -38.862  14.199  16.850  0.00  0.00     0.011 A 
ATOM     17  C   UNL d   1     -38.258  13.879  16.413  0.00  0.00     0.035 A 
ATOM     18 BR   UNL d   1     -37.949  14.299  15.797  0.00  0.00    -0.049 Br
ATOM     19  C   UNL d   1     -37.958  13.133  16.589  0.00  0.00     0.007 A 
ATOM     20  C   UNL d   1     -38.264  12.686  17.220  0.00  0.00     0.001 A 
ATOM     21  C   UNL d   1     -38.879  13.016  17.663  0.00  0.00     0.005 A 
ENDBRANCH   1  15
TORSDOF 5
ENDMDL
MODEL 4
REMARK VINA RESULT:      -5.5      8.896      9.537
REMARK  5 active torsions:
REMARK  status: ('A' for Active; 'I' for Inactive)
REMARK    1  A    between atoms: N_5  and  C_1 
REMARK    2  A    between atoms: N_6  and  C_1 
REMARK       I    between atoms: C_2  and  N_3 
REMARK    3  A    between atoms: C_4  and  C_2 
REMARK    4  A    between atoms: N_3  and  N_5 
REMARK    5  A    between atoms: C_10  and  N_6 
ROOT
ATOM      1  C   UNL d   1     -40.546  14.413  18.573  0.00  0.00     0.272 C 
ATOM      2  N   UNL d   1     -40.284  14.782  19.257  0.00  0.00    -0.264 N 
ATOM      3  O   UNL d   1     -40.897  13.675  18.604  0.00  0.00    -0.266 OA
ATOM      4  H   UNL d   1     -39.927  15.535  19.208  0.00  0.00     0.190 HD
ENDROOT
BRANCH   2   5
ATOM      5  N   UNL d   1     -40.368  14.419  19.976  0.00  0.00    -0.274 N 
ATOM      6  H   UNL d   1     -40.745  13.677  20.027  0.00  0.00     0.189 HD
BRANCH   5   7
ATOM      7  C   UNL d   1     -40.080  14.789  20.656  0.00  0.00     0.187 C 
ATOM      8  S   UNL d   1     -40.526  15.368  21.035  0.00  0.00    -0.040 SA
BRANCH   7   9
ATOM      9  N   UNL d   1     -39.346  14.571  20.948  0.00  0.00    -0.354 N 
ATOM     10  H   UNL d   1     -38.764  14.316  20.434  0.00  0.00     0.162 HD
BRANCH   9  11
ATOM     11  C   UNL d   1     -39.207  14.614  21.761  0.00  0.00     0.063 C 
ATOM     12  C   UNL d   1     -39.073  14.645  22.574  0.00  0.00     0.022 C 
ATOM     13  C   UNL d   1     -38.942  15.384  21.690  0.00  0.00     0.022 C 
ATOM     14  C   UNL d   1     -39.477  13.827  21.843  0.00  0.00     0.022 C 
ENDBRANCH   9  11
ENDBRANCH   7   9
ENDBRANCH   5   7
ENDBRANCH   2   5
BRANCH   1  15
ATOM     15  C   UNL d   1     -40.457  14.786  17.842  0.00  0.00     0.058 A 
ATOM     16  C   UNL d   1     -41.109  15.178  17.496  0.00  0.00     0.011 A 
ATOM     17  C   UNL d   1     -41.014  15.542  16.777  0.00  0.00     0.035 A 
ATOM     18 BR   UNL d   1     -41.641  15.922  16.440  0.00  0.00    -0.049 Br
ATOM     19  C   UNL d   1     -40.288  15.530  16.389  0.00  0.00     0.007 A 
ATOM     20  C   UNL d   1     -39.631  15.143  16.722  0.00  0.00     0.001 A 
ATOM     21  C   UNL d   1     -39.732  14.773  17.454  0.00  0.00     0.005 A 
ENDBRANCH   1  15
TORSDOF 5
ENDMDL
MODEL 5
REMARK VINA RESULT:      -5.3      9.018      9.655
REMARK  5 active torsions:
REMARK  status: ('A' for Active; 'I' for Inactive)
REMARK    1  A    between atoms: N_5  and  C_1 
REMARK    2  A    between atoms: N_6  and  C_1 
REMARK       I    between atoms: C_2  and  N_3 
REMARK    3  A    between atoms: C_4  and  C_2 
REMARK    4  A    between atoms: N_3  and  N_5 
REMARK    5  A    between atoms: C_10  and  N_6 
ROOT
ATOM      1  C   UNL d   1     -40.345  15.125  20.825  0.00  0.00     0.272 C 
ATOM      2  N   UNL d   1     -40.049  15.233  20.068  0.00  0.00    -0.264 N 
ATOM      3  O   UNL d   1     -41.138  15.242  20.985  0.00  0.00    -0.266 OA
ATOM      4  H   UNL d   1     -39.237  15.109  19.922  0.00  0.00     0.190 HD
ENDROOT
BRANCH   2   5
ATOM      5  N   UNL d   1     -40.540  15.457  19.464  0.00  0.00    -0.274 N 
ATOM      6  H   UNL d   1     -41.324  15.689  19.628  0.00  0.00     0.189 HD
BRANCH   5   7
ATOM      7  C   UNL d   1     -40.260  15.454  18.687  0.00  0.00     0.187 C 
ATOM      8  S   UNL d   1     -39.617  15.922  18.476  0.00  0.00    -0.040 SA
BRANCH   7   9
ATOM      9  N   UNL d   1     -40.631  14.980  18.131  0.00  0.00    -0.354 N 
ATOM     10  H   UNL d   1     -41.001  14.291  18.367  0.00  0.00     0.162 HD
BRANCH   9  11
ATOM     11  C   UNL d   1     -40.624  15.210  17.338  0.00  0.00     0.063 C 
ATOM     12  C   UNL d   1     -40.607  15.431  16.543  0.00  0.00     0.022 C 
ATOM     13  C   UNL d   1     -41.219  15.753  17.474  0.00  0.00     0.022 C 
ATOM     14  C   UNL d   1     -40.015  14.657  17.189  0.00  0.00     0.022 C 
ENDBRANCH   9  11
ENDBRANCH   7   9
ENDBRANCH   5   7
ENDBRANCH   2   5
BRANCH   1  15
ATOM     15  C   UNL d   1     -39.841  14.897  21.437  0.00  0.00     0.058 A 
ATOM     16  C   UNL d   1     -39.505  15.478  21.935  0.00  0.00     0.011 A 
ATOM     17  C   UNL d   1     -39.011  15.245  22.535  0.00  0.00     0.035 A 
ATOM     18 BR   UNL d   1     -38.684  15.804  23.018  0.00  0.00    -0.049 Br
ATOM     19  C   UNL d   1     -38.838  14.450  22.657  0.00  0.00     0.007 A 
ATOM     20  C   UNL d   1     -39.166  13.861  22.169  0.00  0.00     0.001 A 
ATOM     21  C   UNL d   1     -39.669  14.102  21.559  0.00  0.00     0.005 A 
ENDBRANCH   1  15
TORSDOF 5
ENDMDL
