MODEL 1
REMARK VINA RESULT:      -8.4      0.000      0.000
REMARK  3 active torsions:
REMARK  status: ('A' for Active; 'I' for Inactive)
REMARK    1  A    between atoms: C_2  and  C_1 
REMARK    2  A    between atoms: C_3  and  C_1 
REMARK    3  A    between atoms: C_5  and  C_2 
ROOT
ATOM      1  C   UNL d   1      52.726  32.701  53.739  0.00  0.00     0.000 C 
ENDROOT
BRANCH   1   2
ATOM      2  C   UNL d   1      53.348  32.253  53.439  0.00  0.00     0.000 C 
BRANCH   2   3
ATOM      3  C   UNL d   1      53.264  31.432  53.377  0.00  0.00     0.000 A 
ATOM      4  C   UNL d   1      53.743  30.938  53.835  0.00  0.00     0.000 A 
ATOM      5  C   UNL d   1      53.665  30.120  53.779  0.00  0.00     0.000 A 
ATOM      6  C   UNL d   1      53.106  29.791  53.261  0.00  0.00     0.000 A 
ATOM      7  C   UNL d   1      52.629  30.282  52.803  0.00  0.00     0.000 A 
ATOM      8  C   UNL d   1      52.705  31.103  52.859  0.00  0.00     0.000 A 
ENDBRANCH   2   3
ENDBRANCH   1   2
BRANCH   1   9
ATOM      9  C   UNL d   1      52.835  33.502  53.893  0.00  0.00     0.000 A 
ATOM     10  C   UNL d   1      53.191  33.739  54.598  0.00  0.00     0.002 A 
ATOM     11  C   UNL d   1      53.300  34.540  54.753  0.00  0.00     0.021 A 
ATOM     12  C   UNL d   1      53.055  35.106  54.205  0.00  0.00     0.103 A 
ATOM     13  C   UNL d   1      52.699  34.865  53.500  0.00  0.00     0.021 A 
ATOM     14  N   UNL d   1      53.167  35.910  54.365  0.00  0.00    -0.148 N 
ATOM     15  C   UNL d   1      52.588  34.063  53.343  0.00  0.00     0.002 A 
ENDBRANCH   1   9
TORSDOF 3
ENDMDL
MODEL 2
REMARK VINA RESULT:      -8.3      1.763      3.963
REMARK  3 active torsions:
REMARK  status: ('A' for Active; 'I' for Inactive)
REMARK    1  A    between atoms: C_2  and  C_1 
REMARK    2  A    between atoms: C_3  and  C_1 
REMARK    3  A    between atoms: C_5  and  C_2 
ROOT
ATOM      1  C   UNL d   1      53.282  32.585  53.406  0.00  0.00     0.000 C 
ENDROOT
BRANCH   1   2
ATOM      2  C   UNL d   1      52.735  33.021  53.840  0.00  0.00     0.000 C 
BRANCH   2   3
ATOM      3  C   UNL d   1      52.844  33.836  53.930  0.00  0.00     0.000 A 
ATOM      4  C   UNL d   1      53.186  34.127  54.624  0.00  0.00     0.000 A 
ATOM      5  C   UNL d   1      53.298  34.937  54.721  0.00  0.00     0.000 A 
ATOM      6  C   UNL d   1      53.068  35.463  54.121  0.00  0.00     0.000 A 
ATOM      7  C   UNL d   1      52.727  35.174  53.429  0.00  0.00     0.000 A 
ATOM      8  C   UNL d   1      52.614  34.361  53.330  0.00  0.00     0.000 A 
ENDBRANCH   2   3
ENDBRANCH   1   2
BRANCH   1   9
ATOM      9  C   UNL d   1      53.220  31.765  53.373  0.00  0.00     0.000 A 
ATOM     10  C   UNL d   1      53.739  31.297  53.811  0.00  0.00     0.002 A 
ATOM     11  C   UNL d   1      53.677  30.476  53.778  0.00  0.00     0.021 A 
ATOM     12  C   UNL d   1      53.098  30.122  53.309  0.00  0.00     0.103 A 
ATOM     13  C   UNL d   1      52.581  30.595  52.872  0.00  0.00     0.021 A 
ATOM     14  N   UNL d   1      53.040  29.297  53.279  0.00  0.00    -0.148 N 
ATOM     15  C   UNL d   1      52.641  31.416  52.903  0.00  0.00     0.002 A 
ENDBRANCH   1   9
TORSDOF 3
ENDMDL
MODEL 3
REMARK VINA RESULT:      -8.3      2.169      3.029
REMARK  3 active torsions:
REMARK  status: ('A' for Active; 'I' for Inactive)
REMARK    1  A    between atoms: C_2  and  C_1 
REMARK    2  A    between atoms: C_3  and  C_1 
REMARK    3  A    between atoms: C_5  and  C_2 
ROOT
ATOM      1  C   UNL d   1      52.439  34.202  53.336  0.00  0.00     0.000 C 
ENDROOT
BRANCH   1   2
ATOM      2  C   UNL d   1      52.656  33.501  53.710  0.00  0.00     0.000 C 
BRANCH   2   3
ATOM      3  C   UNL d   1      53.399  33.443  54.067  0.00  0.00     0.000 A 
ATOM      4  C   UNL d   1      53.998  33.009  53.697  0.00  0.00     0.000 A 
ATOM      5  C   UNL d   1      54.740  32.947  54.047  0.00  0.00     0.000 A 
ATOM      6  C   UNL d   1      54.890  33.322  54.772  0.00  0.00     0.000 A 
ATOM      7  C   UNL d   1      54.295  33.755  55.142  0.00  0.00     0.000 A 
ATOM      8  C   UNL d   1      53.549  33.818  54.792  0.00  0.00     0.000 A 
ENDBRANCH   2   3
ENDBRANCH   1   2
BRANCH   1   9
ATOM      9  C   UNL d   1      51.716  34.254  52.948  0.00  0.00     0.000 A 
ATOM     10  C   UNL d   1      51.028  34.394  53.380  0.00  0.00     0.002 A 
ATOM     11  C   UNL d   1      50.304  34.446  52.992  0.00  0.00     0.021 A 
ATOM     12  C   UNL d   1      50.264  34.358  52.173  0.00  0.00     0.103 A 
ATOM     13  C   UNL d   1      50.956  34.217  51.743  0.00  0.00     0.021 A 
ATOM     14  N   UNL d   1      49.534  34.411  51.787  0.00  0.00    -0.148 N 
ATOM     15  C   UNL d   1      51.682  34.165  52.130  0.00  0.00     0.002 A 
ENDBRANCH   1   9
TORSDOF 3
ENDMDL
MODEL 4
REMARK VINA RESULT:      -8.1      1.995      3.270
REMARK  3 active torsions:
REMARK  status: ('A' for Active; 'I' for Inactive)
REMARK    1  A    between atoms: C_2  and  C_1 
REMARK    2  A    between atoms: C_3  and  C_1 
REMARK    3  A    between atoms: C_5  and  C_2 
ROOT
ATOM      1  C   UNL d   1      52.496  33.612  53.692  0.00  0.00     0.000 C 
ENDROOT
BRANCH   1   2
ATOM      2  C   UNL d   1      52.249  34.296  53.307  0.00  0.00     0.000 C 
BRANCH   2   3
ATOM      3  C   UNL d   1      51.548  34.286  52.869  0.00  0.00     0.000 A 
ATOM      4  C   UNL d   1      51.581  34.197  52.048  0.00  0.00     0.000 A 
ATOM      5  C   UNL d   1      50.886  34.186  51.605  0.00  0.00     0.000 A 
ATOM      6  C   UNL d   1      50.152  34.264  51.984  0.00  0.00     0.000 A 
ATOM      7  C   UNL d   1      50.117  34.353  52.802  0.00  0.00     0.000 A 
ATOM      8  C   UNL d   1      50.813  34.365  53.248  0.00  0.00     0.000 A 
ENDBRANCH   2   3
ENDBRANCH   1   2
BRANCH   1   9
ATOM      9  C   UNL d   1      53.209  33.606  54.102  0.00  0.00     0.000 A 
ATOM     10  C   UNL d   1      53.339  34.154  54.705  0.00  0.00     0.002 A 
ATOM     11  C   UNL d   1      54.053  34.149  55.116  0.00  0.00     0.021 A 
ATOM     12  C   UNL d   1      54.637  33.598  54.927  0.00  0.00     0.103 A 
ATOM     13  C   UNL d   1      54.503  33.051  54.323  0.00  0.00     0.021 A 
ATOM     14  N   UNL d   1      55.352  33.597  55.343  0.00  0.00    -0.148 N 
ATOM     15  C   UNL d   1      53.789  33.054  53.910  0.00  0.00     0.002 A 
ENDBRANCH   1   9
TORSDOF 3
ENDMDL
