MODEL 1
REMARK VINA RESULT:      -2.5      0.000      0.000
REMARK  9 active torsions:
REMARK  status: ('A' for Active; 'I' for Inactive)
REMARK    1  A    between atoms: N_3  and  C_1 
REMARK    2  A    between atoms: C_20  and  N_2 
REMARK       I    between atoms: C_7  and  N_3 
REMARK    3  A    between atoms: C_10  and  C_7 
REMARK    4  A    between atoms: C_9  and  C_10 
REMARK    5  A    between atoms: C_15  and  C_9 
REMARK       I    between atoms: C_12  and  N_13 
REMARK    6  A    between atoms: N_13  and  C_14 
REMARK    7  A    between atoms: C_26  and  C_20 
REMARK    8  A    between atoms: O_22  and  C_26 
REMARK    9  A    between atoms: C_27  and  O_22 
ROOT
ATOM      1  C   UNL d   1      33.218  20.991 -21.932  0.00  0.00     0.182 A 
ATOM      2  N   UNL d   1      33.220  21.807 -22.020  0.00  0.00    -0.283 N 
ATOM      3  S   UNL d   1      33.219  20.823 -21.125  0.00  0.00    -0.048 SA
ATOM      4  C   UNL d   1      33.221  21.542 -20.713  0.00  0.00     0.050 A 
ATOM      5  C   UNL d   1      33.222  22.153 -21.269  0.00  0.00     0.072 A 
ATOM      6  C   UNL d   1      33.223  21.717 -19.908  0.00  0.00     0.027 A 
ATOM      7  C   UNL d   1      33.224  22.938 -21.019  0.00  0.00     0.020 A 
ATOM      8  C   UNL d   1      33.225  22.501 -19.658  0.00  0.00     0.085 A 
ATOM      9  C   UNL d   1      33.226  23.112 -20.214  0.00  0.00     0.021 A 
ENDROOT
BRANCH   1  10
ATOM     10  N   UNL d   1      33.215  20.442 -22.547  0.00  0.00    -0.184 NA
ATOM     11  C   UNL d   1      33.152  19.639 -22.375  0.00  0.00     0.281 C 
ATOM     12  O   UNL d   1      33.092  19.392 -21.592  0.00  0.00    -0.265 OA
BRANCH  11  13
ATOM     13  C   UNL d   1      33.149  19.083 -22.986  0.00  0.00     0.063 C 
BRANCH  13  14
ATOM     14  C   UNL d   1      32.542  18.535 -23.042  0.00  0.00     0.006 C 
BRANCH  14  15
ATOM     15  C   UNL d   1      32.519  17.990 -23.651  0.00  0.00     0.011 A 
ATOM     16  C   UNL d   1      31.792  17.680 -23.902  0.00  0.00     0.058 A 
ATOM     17 CL   UNL d   1      31.087  17.928 -23.528  0.00  0.00    -0.082 Cl
ATOM     18  C   UNL d   1      31.767  17.121 -24.526  0.00  0.00     0.011 A 
ATOM     19  C   UNL d   1      32.451  16.876 -24.894  0.00  0.00     0.001 A 
ATOM     20  C   UNL d   1      33.179  17.183 -24.647  0.00  0.00     0.000 A 
ATOM     21  C   UNL d   1      33.207  17.736 -24.030  0.00  0.00     0.001 A 
ENDBRANCH  14  15
ENDBRANCH  13  14
ENDBRANCH  11  13
ENDBRANCH   1  10
BRANCH   2  22
ATOM     22  C   UNL d   1      33.219  22.222 -22.735  0.00  0.00     0.109 C 
BRANCH  22  23
ATOM     23  C   UNL d   1      32.654  22.803 -22.881  0.00  0.00     0.142 C 
BRANCH  23  24
ATOM     24  O   UNL d   1      32.358  22.907 -23.637  0.00  0.00    -0.302 OA
BRANCH  24  25
ATOM     25  C   UNL d   1      32.558  23.571 -24.091  0.00  0.00     0.123 C 
ATOM     26  C   UNL d   1      32.531  23.544 -24.917  0.00  0.00     0.029 C 
ENDBRANCH  24  25
ENDBRANCH  23  24
ENDBRANCH  22  23
ENDBRANCH   2  22
BRANCH   8  27
ATOM     27  N   UNL d   1      33.227  22.681 -18.841  0.00  0.00    -0.208 NA
ATOM     28  C   UNL d   1      32.744  23.274 -18.556  0.00  0.00     0.279 C 
ATOM     29  O   UNL d   1      32.747  23.449 -17.751  0.00  0.00    -0.265 OA
ATOM     30  C   UNL d   1      32.251  23.702 -19.063  0.00  0.00     0.068 C 
ENDBRANCH   8  27
TORSDOF 9
ENDMDL
