MODEL 1
REMARK VINA RESULT:      -4.5      0.000      0.000
REMARK  2 active torsions:
REMARK  status: ('A' for Active; 'I' for Inactive)
REMARK       I    between atoms: C_2  and  N_1 
REMARK    1  A    between atoms: C_4  and  C_2 
REMARK    2  A    between atoms: C_6  and  C_7 
ROOT
ATOM      1  C   UNL d   1     -41.501-122.220 -51.820  0.00  0.00     0.057 A 
ATOM      2  C   UNL d   1     -41.512-122.633 -53.429  0.00  0.00    -0.023 A 
ATOM      3  C   UNL d   1     -41.891-121.729 -52.368  0.00  0.00     0.004 A 
ATOM      4  C   UNL d   1     -41.123-122.903 -52.052  0.00  0.00     0.004 A 
ATOM      5  C   UNL d   1     -41.891-121.950 -53.196  0.00  0.00    -0.004 A 
ATOM      6  C   UNL d   1     -41.123-123.123 -52.880  0.00  0.00    -0.004 A 
ENDROOT
BRANCH   1   7
ATOM      7  C   UNL d   1     -41.496-122.016 -51.025  0.00  0.00     0.267 C 
ATOM      8  N   UNL d   1     -41.867-122.523 -50.470  0.00  0.00    -0.240 N 
ATOM      9  C   UNL d   1     -42.240-123.230 -50.715  0.00  0.00     0.267 A 
ATOM     10  C   UNL d   1     -41.816-122.244 -49.691  0.00  0.00     0.086 A 
ATOM     11  O   UNL d   1     -42.210-123.391 -51.586  0.00  0.00    -0.267 OA
ATOM     12  C   UNL d   1     -42.635-123.809 -50.285  0.00  0.00     0.061 A 
ATOM     13  C   UNL d   1     -42.758-123.814 -49.437  0.00  0.00     0.005 A 
ATOM     14  C   UNL d   1     -42.533-123.296 -48.916  0.00  0.00     0.002 A 
ATOM     15  C   UNL d   1     -42.112-122.587 -49.002  0.00  0.00     0.019 A 
ATOM     16  O   UNL d   1     -41.140-121.336 -50.773  0.00  0.00    -0.267 OA
ENDBRANCH   1   7
BRANCH   2  17
ATOM     17  C   UNL d   1     -41.518-122.835 -54.227  0.00  0.00     0.019 C 
ATOM     18  C   UNL d   1     -41.188-123.567 -54.055  0.00  0.00     0.004 C 
ATOM     19  C   UNL d   1     -41.527-123.033 -55.027  0.00  0.00     0.004 C 
ATOM     20  C   UNL d   1     -41.850-122.099 -54.401  0.00  0.00     0.004 C 
ENDBRANCH   2  17
TORSDOF 2
ENDMDL
MODEL 2
REMARK VINA RESULT:      -3.7      1.237      2.138
REMARK  2 active torsions:
REMARK  status: ('A' for Active; 'I' for Inactive)
REMARK       I    between atoms: C_2  and  N_1 
REMARK    1  A    between atoms: C_4  and  C_2 
REMARK    2  A    between atoms: C_6  and  C_7 
ROOT
ATOM      1  C   UNL d   1     -41.759-122.754 -53.299  0.00  0.00     0.057 A 
ATOM      2  C   UNL d   1     -41.972-122.199 -54.850  0.00  0.00    -0.023 A 
ATOM      3  C   UNL d   1     -42.474-122.382 -53.508  0.00  0.00     0.004 A 
ATOM      4  C   UNL d   1     -41.157-122.854 -53.838  0.00  0.00     0.004 A 
ATOM      5  C   UNL d   1     -42.575-122.099 -54.310  0.00  0.00    -0.004 A 
ATOM      6  C   UNL d   1     -41.258-122.571 -54.640  0.00  0.00    -0.004 A 
ENDROOT
BRANCH   1   7
ATOM      7  C   UNL d   1     -41.653-123.029 -52.532  0.00  0.00     0.267 C 
ATOM      8  N   UNL d   1     -41.490-122.481 -51.920  0.00  0.00    -0.240 N 
ATOM      9  C   UNL d   1     -41.435-121.662 -52.079  0.00  0.00     0.267 A 
ATOM     10  C   UNL d   1     -41.397-122.840 -51.179  0.00  0.00     0.086 A 
ATOM     11  O   UNL d   1     -41.559-121.432 -52.926  0.00  0.00    -0.267 OA
ATOM     12  C   UNL d   1     -41.283-121.024 -51.582  0.00  0.00     0.061 A 
ATOM     13  C   UNL d   1     -41.140-121.064 -50.738  0.00  0.00     0.005 A 
ATOM     14  C   UNL d   1     -41.123-121.682 -50.283  0.00  0.00     0.002 A 
ATOM     15  C   UNL d   1     -41.234-122.485 -50.452  0.00  0.00     0.019 A 
ATOM     16  O   UNL d   1     -41.703-123.817 -52.363  0.00  0.00    -0.267 OA
ENDBRANCH   1   7
BRANCH   2  17
ATOM     17  C   UNL d   1     -42.081-121.922 -55.618  0.00  0.00     0.019 C 
ATOM     18  C   UNL d   1     -41.270-121.915 -55.741  0.00  0.00     0.004 C 
ATOM     19  C   UNL d   1     -42.196-121.646 -56.385  0.00  0.00     0.004 C 
ATOM     20  C   UNL d   1     -42.899-121.930 -55.494  0.00  0.00     0.004 C 
ENDBRANCH   2  17
TORSDOF 2
ENDMDL
MODEL 3
REMARK VINA RESULT:      -2.9      1.144      1.699
REMARK  2 active torsions:
REMARK  status: ('A' for Active; 'I' for Inactive)
REMARK       I    between atoms: C_2  and  N_1 
REMARK    1  A    between atoms: C_4  and  C_2 
REMARK    2  A    between atoms: C_6  and  C_7 
ROOT
ATOM      1  C   UNL d   1     -42.402-122.464 -50.586  0.00  0.00     0.057 A 
ATOM      2  C   UNL d   1     -41.757-122.506 -52.116  0.00  0.00    -0.023 A 
ATOM      3  C   UNL d   1     -42.725-122.980 -51.154  0.00  0.00     0.004 A 
ATOM      4  C   UNL d   1     -41.775-121.975 -50.760  0.00  0.00     0.004 A 
ATOM      5  C   UNL d   1     -42.385-122.995 -51.940  0.00  0.00    -0.004 A 
ATOM      6  C   UNL d   1     -41.435-121.990 -51.546  0.00  0.00    -0.004 A 
ENDROOT
BRANCH   1   7
ATOM      7  C   UNL d   1     -42.721-122.443 -49.829  0.00  0.00     0.267 C 
ATOM      8  N   UNL d   1     -42.324-122.837 -49.207  0.00  0.00    -0.240 N 
ATOM      9  C   UNL d   1     -41.610-123.250 -49.345  0.00  0.00     0.267 A 
ATOM     10  C   UNL d   1     -42.712-122.767 -48.478  0.00  0.00     0.086 A 
ATOM     11  O   UNL d   1     -41.320-123.234 -50.182  0.00  0.00    -0.267 OA
ATOM     12  C   UNL d   1     -41.123-123.673 -48.835  0.00  0.00     0.061 A 
ATOM     13  C   UNL d   1     -41.251-123.791 -47.995  0.00  0.00     0.005 A 
ATOM     14  C   UNL d   1     -41.827-123.535 -47.557  0.00  0.00     0.002 A 
ATOM     15  C   UNL d   1     -42.491-123.077 -47.745  0.00  0.00     0.019 A 
ATOM     16  O   UNL d   1     -43.411-122.048 -49.680  0.00  0.00    -0.267 OA
ENDBRANCH   1   7
BRANCH   2  17
ATOM     17  C   UNL d   1     -41.439-122.529 -52.875  0.00  0.00     0.019 C 
ATOM     18  C   UNL d   1     -41.173-123.296 -52.751  0.00  0.00     0.004 C 
ATOM     19  C   UNL d   1     -41.123-122.547 -53.636  0.00  0.00     0.004 C 
ATOM     20  C   UNL d   1     -41.707-121.757 -53.000  0.00  0.00     0.004 C 
ENDBRANCH   2  17
TORSDOF 2
ENDMDL
