MODEL 1
REMARK VINA RESULT:      -3.7      0.000      0.000
REMARK  8 active torsions:
REMARK  status: ('A' for Active; 'I' for Inactive)
REMARK    1  A    between atoms: S_7  and  C_3 
REMARK    2  A    between atoms: C_8  and  C_4 
REMARK    3  A    between atoms: C_14  and  S_7 
REMARK    4  A    between atoms: C_17  and  C_8 
REMARK    5  A    between atoms: C_9  and  C_14 
REMARK       I    between atoms: N_12  and  C_9 
REMARK    6  A    between atoms: C_15  and  N_12 
REMARK    7  A    between atoms: O_22  and  C_16 
REMARK    8  A    between atoms: C_23  and  O_22 
ROOT
ATOM      1  N   UNL d   1      32.328  16.948 -23.905  0.00  0.00    -0.149 N 
ATOM      2  C   UNL d   1      31.793  16.373 -24.091  0.00  0.00     0.303 A 
ATOM      3  C   UNL d   1      32.119  17.745 -23.941  0.00  0.00     0.220 A 
ATOM      4  C   UNL d   1      31.037  16.593 -24.316  0.00  0.00     0.161 A 
ATOM      5  N   UNL d   1      30.810  17.373 -24.358  0.00  0.00    -0.141 NA
ATOM      6  N   UNL d   1      31.346  17.948 -24.172  0.00  0.00    -0.121 NA
ATOM      7  O   UNL d   1      32.008  15.569 -24.054  0.00  0.00    -0.263 OA
ATOM      8  N   UNL d   1      33.113  16.756 -23.671  0.00  0.00    -0.037 N 
ENDROOT
BRANCH   3   9
ATOM      9  S   UNL d   1      32.655  18.333 -23.754  0.00  0.00    -0.041 SA
BRANCH   9  10
ATOM     10  C   UNL d   1      32.786  18.535 -22.959  0.00  0.00     0.101 C 
BRANCH  10  11
ATOM     11  C   UNL d   1      32.916  19.317 -22.762  0.00  0.00     0.286 C 
ATOM     12  N   UNL d   1      32.728  19.583 -22.004  0.00  0.00    -0.208 NA
ATOM     13  O   UNL d   1      33.231  19.869 -23.290  0.00  0.00    -0.265 OA
BRANCH  12  14
ATOM     14  C   UNL d   1      32.852  20.361 -21.793  0.00  0.00     0.085 A 
ATOM     15  C   UNL d   1      33.072  20.937 -22.353  0.00  0.00     0.021 A 
ATOM     16  C   UNL d   1      33.194  21.721 -22.124  0.00  0.00     0.026 A 
ATOM     17  C   UNL d   1      33.104  21.957 -21.351  0.00  0.00     0.100 A 
ATOM     18  C   UNL d   1      32.885  21.382 -20.790  0.00  0.00     0.026 A 
ATOM     19  C   UNL d   1      32.763  20.618 -20.997  0.00  0.00     0.021 A 
BRANCH  17  20
ATOM     20  O   UNL d   1      33.226  22.720 -21.143  0.00  0.00    -0.305 OA
BRANCH  20  21
ATOM     21  C   UNL d   1      32.605  23.265 -21.100  0.00  0.00     0.123 C 
ATOM     22  C   UNL d   1      32.456  23.702 -20.416  0.00  0.00     0.029 C 
ENDBRANCH  20  21
ENDBRANCH  17  20
ENDBRANCH  12  14
ENDBRANCH  10  11
ENDBRANCH   9  10
ENDBRANCH   3   9
BRANCH   4  23
ATOM     23  C   UNL d   1      30.479  15.993 -24.510  0.00  0.00     0.026 C 
BRANCH  23  24
ATOM     24  C   UNL d   1      29.747  16.003 -24.156  0.00  0.00     0.002 A 
ATOM     25  C   UNL d   1      29.626  15.704 -23.403  0.00  0.00     0.000 A 
ATOM     26  C   UNL d   1      28.900  15.716 -23.054  0.00  0.00     0.000 A 
ATOM     27  C   UNL d   1      28.247  16.043 -23.471  0.00  0.00     0.000 A 
ATOM     28  C   UNL d   1      28.355  16.348 -24.234  0.00  0.00     0.000 A 
ATOM     29  C   UNL d   1      29.094  16.330 -24.573  0.00  0.00     0.000 A 
ENDBRANCH  23  24
ENDBRANCH   4  23
TORSDOF 8
ENDMDL
MODEL 2
REMARK VINA RESULT:      -2.5      1.066      1.633
REMARK  8 active torsions:
REMARK  status: ('A' for Active; 'I' for Inactive)
REMARK    1  A    between atoms: S_7  and  C_3 
REMARK    2  A    between atoms: C_8  and  C_4 
REMARK    3  A    between atoms: C_14  and  S_7 
REMARK    4  A    between atoms: C_17  and  C_8 
REMARK    5  A    between atoms: C_9  and  C_14 
REMARK       I    between atoms: N_12  and  C_9 
REMARK    6  A    between atoms: C_15  and  N_12 
REMARK    7  A    between atoms: O_22  and  C_16 
REMARK    8  A    between atoms: C_23  and  O_22 
ROOT
ATOM      1  N   UNL d   1      32.060  18.501 -24.267  0.00  0.00    -0.149 N 
ATOM      2  C   UNL d   1      31.836  17.739 -24.421  0.00  0.00     0.303 A 
ATOM      3  C   UNL d   1      32.507  18.681 -23.599  0.00  0.00     0.220 A 
ATOM      4  C   UNL d   1      32.060  17.148 -23.900  0.00  0.00     0.161 A 
ATOM      5  N   UNL d   1      32.501  17.305 -23.235  0.00  0.00    -0.141 NA
ATOM      6  N   UNL d   1      32.725  18.066 -23.082  0.00  0.00    -0.121 NA
ATOM      7  O   UNL d   1      31.384  17.562 -25.097  0.00  0.00    -0.263 OA
ATOM      8  N   UNL d   1      31.847  19.131 -24.781  0.00  0.00    -0.037 N 
ENDROOT
BRANCH   3   9
ATOM      9  S   UNL d   1      32.737  19.448 -23.437  0.00  0.00    -0.041 SA
BRANCH   9  10
ATOM     10  C   UNL d   1      33.240  19.602 -22.794  0.00  0.00     0.101 C 
BRANCH  10  11
ATOM     11  C   UNL d   1      33.170  20.310 -22.392  0.00  0.00     0.286 C 
ATOM     12  N   UNL d   1      33.028  20.305 -21.580  0.00  0.00    -0.208 NA
ATOM     13  O   UNL d   1      33.235  21.046 -22.762  0.00  0.00    -0.265 OA
BRANCH  12  14
ATOM     14  C   UNL d   1      32.956  21.004 -21.165  0.00  0.00     0.085 A 
ATOM     15  C   UNL d   1      32.674  21.699 -21.527  0.00  0.00     0.021 A 
ATOM     16  C   UNL d   1      32.606  22.400 -21.094  0.00  0.00     0.026 A 
ATOM     17  C   UNL d   1      32.810  22.435 -20.307  0.00  0.00     0.100 A 
ATOM     18  C   UNL d   1      33.093  21.740 -19.946  0.00  0.00     0.026 A 
ATOM     19  C   UNL d   1      33.164  21.054 -20.352  0.00  0.00     0.021 A 
BRANCH  17  20
ATOM     20  O   UNL d   1      32.739  23.121 -19.901  0.00  0.00    -0.305 OA
BRANCH  20  21
ATOM     21  C   UNL d   1      33.092  23.229 -19.161  0.00  0.00     0.123 C 
ATOM     22  C   UNL d   1      32.690  23.583 -18.534  0.00  0.00     0.029 C 
ENDBRANCH  20  21
ENDBRANCH  17  20
ENDBRANCH  12  14
ENDBRANCH  10  11
ENDBRANCH   9  10
ENDBRANCH   3   9
BRANCH   4  23
ATOM     23  C   UNL d   1      31.826  16.355 -24.060  0.00  0.00     0.026 C 
BRANCH  23  24
ATOM     24  C   UNL d   1      31.160  16.059 -23.701  0.00  0.00     0.002 A 
ATOM     25  C   UNL d   1      30.464  15.933 -24.114  0.00  0.00     0.000 A 
ATOM     26  C   UNL d   1      29.806  15.639 -23.755  0.00  0.00     0.000 A 
ATOM     27  C   UNL d   1      29.830  15.455 -22.934  0.00  0.00     0.000 A 
ATOM     28  C   UNL d   1      30.527  15.578 -22.504  0.00  0.00     0.000 A 
ATOM     29  C   UNL d   1      31.184  15.875 -22.880  0.00  0.00     0.000 A 
ENDBRANCH  23  24
ENDBRANCH   4  23
TORSDOF 8
ENDMDL
MODEL 3
REMARK VINA RESULT:      -0.8      1.315      6.045
REMARK  8 active torsions:
REMARK  status: ('A' for Active; 'I' for Inactive)
REMARK    1  A    between atoms: S_7  and  C_3 
REMARK    2  A    between atoms: C_8  and  C_4 
REMARK    3  A    between atoms: C_14  and  S_7 
REMARK    4  A    between atoms: C_17  and  C_8 
REMARK    5  A    between atoms: C_9  and  C_14 
REMARK       I    between atoms: N_12  and  C_9 
REMARK    6  A    between atoms: C_15  and  N_12 
REMARK    7  A    between atoms: O_22  and  C_16 
REMARK    8  A    between atoms: C_23  and  O_22 
ROOT
ATOM      1  N   UNL d   1      33.175  19.443 -22.162  0.00  0.00    -0.149 N 
ATOM      2  C   UNL d   1      33.183  20.016 -21.593  0.00  0.00     0.303 A 
ATOM      3  C   UNL d   1      33.199  19.643 -22.962  0.00  0.00     0.220 A 
ATOM      4  C   UNL d   1      33.216  20.802 -21.822  0.00  0.00     0.161 A 
ATOM      5  N   UNL d   1      33.241  21.021 -22.604  0.00  0.00    -0.141 NA
ATOM      6  N   UNL d   1      33.233  20.448 -23.174  0.00  0.00    -0.121 NA
ATOM      7  O   UNL d   1      33.158  19.809 -20.787  0.00  0.00    -0.263 OA
ATOM      8  N   UNL d   1      33.141  18.627 -21.961  0.00  0.00    -0.037 N 
ENDROOT
BRANCH   3   9
ATOM      9  S   UNL d   1      33.192  19.070 -23.543  0.00  0.00    -0.041 SA
BRANCH   9  10
ATOM     10  C   UNL d   1      32.620  19.100 -24.146  0.00  0.00     0.101 C 
BRANCH  10  11
ATOM     11  C   UNL d   1      32.199  18.425 -24.331  0.00  0.00     0.286 C 
ATOM     12  N   UNL d   1      31.375  18.449 -24.343  0.00  0.00    -0.208 NA
ATOM     13  O   UNL d   1      32.560  17.704 -24.512  0.00  0.00    -0.265 OA
BRANCH  12  14
ATOM     14  C   UNL d   1      30.941  17.783 -24.526  0.00  0.00     0.085 A 
ATOM     15  C   UNL d   1      30.132  17.722 -24.336  0.00  0.00     0.021 A 
ATOM     16  C   UNL d   1      29.706  17.041 -24.528  0.00  0.00     0.026 A 
ATOM     17  C   UNL d   1      30.057  16.412 -24.906  0.00  0.00     0.100 A 
ATOM     18  C   UNL d   1      30.866  16.472 -25.096  0.00  0.00     0.026 A 
ATOM     19  C   UNL d   1      31.292  17.126 -24.916  0.00  0.00     0.021 A 
BRANCH  17  20
ATOM     20  O   UNL d   1      29.632  15.759 -25.086  0.00  0.00    -0.305 OA
BRANCH  20  21
ATOM     21  C   UNL d   1      29.062  15.453 -24.571  0.00  0.00     0.123 C 
ATOM     22  C   UNL d   1      28.265  15.659 -24.630  0.00  0.00     0.029 C 
ENDBRANCH  20  21
ENDBRANCH  17  20
ENDBRANCH  12  14
ENDBRANCH  10  11
ENDBRANCH   9  10
ENDBRANCH   3   9
BRANCH   4  23
ATOM     23  C   UNL d   1      33.224  21.399 -21.228  0.00  0.00     0.026 C 
BRANCH  23  24
ATOM     24  C   UNL d   1      32.802  22.083 -21.349  0.00  0.00     0.002 A 
ATOM     25  C   UNL d   1      32.989  22.607 -21.951  0.00  0.00     0.000 A 
ATOM     26  C   UNL d   1      32.569  23.285 -22.067  0.00  0.00     0.000 A 
ATOM     27  C   UNL d   1      31.921  23.461 -21.561  0.00  0.00     0.000 A 
ATOM     28  C   UNL d   1      31.721  22.940 -20.949  0.00  0.00     0.000 A 
ATOM     29  C   UNL d   1      32.155  22.260 -20.843  0.00  0.00     0.000 A 
ENDBRANCH  23  24
ENDBRANCH   4  23
TORSDOF 8
ENDMDL
