MODEL 1
REMARK VINA RESULT:      -3.0      0.000      0.000
REMARK  5 active torsions:
REMARK  status: ('A' for Active; 'I' for Inactive)
REMARK    1  A    between atoms: C_2  and  S_1 
REMARK    2  A    between atoms: N_3  and  S_1 
REMARK    3  A    between atoms: C_5  and  N_3 
REMARK    4  A    between atoms: C_14  and  C_9 
REMARK    5  A    between atoms: O_18  and  C_10 
ROOT
ATOM      1  C   UNL d   1     -42.053-122.626 -50.343  0.00  0.00     0.128 A 
ATOM      2  C   UNL d   1     -41.716-122.952 -49.659  0.00  0.00     0.015 A 
ATOM      3  C   UNL d   1     -42.186-123.085 -48.994  0.00  0.00     0.001 A 
ATOM      4  C   UNL d   1     -42.860-122.437 -50.352  0.00  0.00     0.106 A 
ATOM      5  C   UNL d   1     -42.982-122.898 -49.007  0.00  0.00     0.002 A 
ATOM      6  C   UNL d   1     -43.324-122.573 -49.684  0.00  0.00     0.025 A 
ENDROOT
BRANCH   1   7
ATOM      7  S   UNL d   1     -41.590-122.489 -51.012  0.00  0.00     0.288 S 
ATOM      8  O   UNL d   1     -41.588-121.681 -50.845  0.00  0.00    -0.198 OA
ATOM      9  O   UNL d   1     -41.596-123.297 -51.172  0.00  0.00    -0.198 OA
BRANCH   7  10
ATOM     10  N   UNL d   1     -41.127-122.359 -51.681  0.00  0.00    -0.139 NA
BRANCH  10  11
ATOM     11  C   UNL d   1     -41.368-122.667 -52.407  0.00  0.00     0.175 A 
ATOM     12  N   UNL d   1     -41.679-122.168 -52.984  0.00  0.00    -0.224 NA
ATOM     13  C   UNL d   1     -41.921-122.468 -53.707  0.00  0.00     0.112 A 
ATOM     14  C   UNL d   1     -41.853-123.276 -53.863  0.00  0.00     0.077 A 
ATOM     15  C   UNL d   1     -41.542-123.776 -53.285  0.00  0.00     0.016 A 
ATOM     16 CL   UNL d   1     -42.094-123.582 -54.585  0.00  0.00    -0.081 Cl
ATOM     17  C   UNL d   1     -41.299-123.478 -52.560  0.00  0.00     0.041 A 
ENDBRANCH  10  11
ENDBRANCH   7  10
ENDBRANCH   1   7
BRANCH   4  18
ATOM     18  O   UNL d   1     -43.193-122.114 -51.028  0.00  0.00    -0.327 OA
ATOM     19  C   UNL d   1     -44.011-122.024 -51.084  0.00  0.00     0.181 C 
ENDBRANCH   4  18
BRANCH   3  20
ATOM     20  C   UNL d   1     -41.844-123.412 -48.313  0.00  0.00     0.000 C 
ATOM     21  C   UNL d   1     -42.217-123.339 -47.584  0.00  0.00     0.000 C 
ATOM     22  C   UNL d   1     -41.124-123.812 -48.368  0.00  0.00     0.000 C 
ENDBRANCH   3  20
TORSDOF 5
ENDMDL
MODEL 2
REMARK VINA RESULT:      -2.8      1.767      4.054
REMARK  5 active torsions:
REMARK  status: ('A' for Active; 'I' for Inactive)
REMARK    1  A    between atoms: C_2  and  S_1 
REMARK    2  A    between atoms: N_3  and  S_1 
REMARK    3  A    between atoms: C_5  and  N_3 
REMARK    4  A    between atoms: C_14  and  C_9 
REMARK    5  A    between atoms: O_18  and  C_10 
ROOT
ATOM      1  C   UNL d   1     -41.411-122.530 -52.351  0.00  0.00     0.128 A 
ATOM      2  C   UNL d   1     -41.576-122.866 -53.091  0.00  0.00     0.015 A 
ATOM      3  C   UNL d   1     -41.717-122.378 -53.741  0.00  0.00     0.001 A 
ATOM      4  C   UNL d   1     -41.389-121.705 -52.271  0.00  0.00     0.106 A 
ATOM      5  C   UNL d   1     -41.695-121.565 -53.658  0.00  0.00     0.002 A 
ATOM      6  C   UNL d   1     -41.532-121.224 -52.926  0.00  0.00     0.025 A 
ENDROOT
BRANCH   1   7
ATOM      7  S   UNL d   1     -41.268-123.012 -51.696  0.00  0.00     0.288 S 
ATOM      8  O   UNL d   1     -41.413-123.680 -52.158  0.00  0.00    -0.198 OA
ATOM      9  O   UNL d   1     -41.125-122.339 -51.242  0.00  0.00    -0.198 OA
BRANCH   7  10
ATOM     10  N   UNL d   1     -41.125-123.487 -51.039  0.00  0.00    -0.139 NA
BRANCH  10  11
ATOM     11  C   UNL d   1     -41.706-123.565 -50.460  0.00  0.00     0.175 A 
ATOM     12  N   UNL d   1     -42.482-123.738 -50.677  0.00  0.00    -0.224 NA
ATOM     13  C   UNL d   1     -43.066-123.817 -50.107  0.00  0.00     0.112 A 
ATOM     14  C   UNL d   1     -42.879-123.724 -49.308  0.00  0.00     0.077 A 
ATOM     15  C   UNL d   1     -42.102-123.551 -49.091  0.00  0.00     0.016 A 
ATOM     16 CL   UNL d   1     -43.459-123.802 -48.733  0.00  0.00    -0.081 Cl
ATOM     17  C   UNL d   1     -41.516-123.471 -49.660  0.00  0.00     0.041 A 
ENDBRANCH  10  11
ENDBRANCH   7  10
ENDBRANCH   1   7
BRANCH   4  18
ATOM     18  O   UNL d   1     -41.226-121.373 -51.540  0.00  0.00    -0.327 OA
ATOM     19  C   UNL d   1     -41.123-120.557 -51.470  0.00  0.00     0.181 C 
ENDBRANCH   4  18
BRANCH   3  20
ATOM     20  C   UNL d   1     -41.882-122.720 -54.479  0.00  0.00     0.000 C 
ATOM     21  C   UNL d   1     -41.821-123.533 -54.583  0.00  0.00     0.000 C 
ATOM     22  C   UNL d   1     -42.107-122.240 -55.110  0.00  0.00     0.000 C 
ENDBRANCH   3  20
TORSDOF 5
ENDMDL
MODEL 3
REMARK VINA RESULT:      -1.7      0.856      2.075
REMARK  5 active torsions:
REMARK  status: ('A' for Active; 'I' for Inactive)
REMARK    1  A    between atoms: C_2  and  S_1 
REMARK    2  A    between atoms: N_3  and  S_1 
REMARK    3  A    between atoms: C_5  and  N_3 
REMARK    4  A    between atoms: C_14  and  C_9 
REMARK    5  A    between atoms: O_18  and  C_10 
ROOT
ATOM      1  C   UNL d   1     -42.184-122.913 -50.262  0.00  0.00     0.128 A 
ATOM      2  C   UNL d   1     -42.911-122.549 -50.425  0.00  0.00     0.015 A 
ATOM      3  C   UNL d   1     -43.436-122.386 -49.809  0.00  0.00     0.001 A 
ATOM      4  C   UNL d   1     -41.991-123.111 -49.481  0.00  0.00     0.106 A 
ATOM      5  C   UNL d   1     -43.242-122.582 -49.040  0.00  0.00     0.002 A 
ATOM      6  C   UNL d   1     -42.521-122.945 -48.870  0.00  0.00     0.025 A 
ENDROOT
BRANCH   1   7
ATOM      7  S   UNL d   1     -41.655-123.079 -50.873  0.00  0.00     0.288 S 
ATOM      8  O   UNL d   1     -42.008-123.817 -50.977  0.00  0.00    -0.198 OA
ATOM      9  O   UNL d   1     -41.308-122.340 -50.762  0.00  0.00    -0.198 OA
BRANCH   7  10
ATOM     10  N   UNL d   1     -41.123-123.238 -51.482  0.00  0.00    -0.139 NA
BRANCH  10  11
ATOM     11  C   UNL d   1     -41.305-123.004 -52.251  0.00  0.00     0.175 A 
ATOM     12  N   UNL d   1     -41.662-123.536 -52.770  0.00  0.00    -0.224 NA
ATOM     13  C   UNL d   1     -41.845-123.310 -53.535  0.00  0.00     0.112 A 
ATOM     14  C   UNL d   1     -41.673-122.544 -53.793  0.00  0.00     0.077 A 
ATOM     15  C   UNL d   1     -41.315-122.012 -53.274  0.00  0.00     0.016 A 
ATOM     16 CL   UNL d   1     -41.854-122.312 -54.559  0.00  0.00    -0.081 Cl
ATOM     17  C   UNL d   1     -41.131-122.236 -52.506  0.00  0.00     0.041 A 
ENDBRANCH  10  11
ENDBRANCH   7  10
ENDBRANCH   1   7
BRANCH   4  18
ATOM     18  O   UNL d   1     -41.273-123.470 -49.319  0.00  0.00    -0.327 OA
ATOM     19  C   UNL d   1     -41.123-123.777 -48.568  0.00  0.00     0.181 C 
ENDBRANCH   4  18
BRANCH   3  20
ATOM     20  C   UNL d   1     -44.162-122.022 -49.978  0.00  0.00     0.000 C 
ATOM     21  C   UNL d   1     -44.838-122.475 -50.091  0.00  0.00     0.000 C 
ATOM     22  C   UNL d   1     -44.203-121.199 -50.034  0.00  0.00     0.000 C 
ENDBRANCH   3  20
TORSDOF 5
ENDMDL
