MODEL 1
REMARK VINA RESULT:     112.4      0.000      0.000
REMARK  4 active torsions:
REMARK  status: ('A' for Active; 'I' for Inactive)
REMARK       I    between atoms: C_2  and  N_1 
REMARK    1  A    between atoms: C_6  and  C_2 
REMARK       I    between atoms: C_4  and  N_7 
REMARK    2  A    between atoms: C_5  and  C_4 
REMARK       I    between atoms: N_10  and  C_5 
REMARK    3  A    between atoms: N_7  and  C_13 
REMARK    4  A    between atoms: C_19  and  N_10 
ROOT
ATOM      1  N   UNL d   1      60.781  48.820  51.032  0.00  0.00    -0.273 N 
ATOM      2  C   UNL d   1      60.958  48.646  51.830  0.00  0.00     0.265 C 
ATOM      3  C   UNL d   1      60.981  48.295  50.434  0.00  0.00     0.068 A 
ATOM      4  C   UNL d   1      61.361  47.586  50.619  0.00  0.00     0.037 A 
ATOM      5  C   UNL d   1      60.804  48.473  49.651  0.00  0.00     0.016 A 
ATOM      6  C   UNL d   1      61.562  47.057  50.018  0.00  0.00     0.086 A 
ATOM      7  O   UNL d   1      61.336  47.939  52.012  0.00  0.00    -0.267 OA
ATOM      8  C   UNL d   1      61.005  47.945  49.051  0.00  0.00     0.003 A 
ATOM      9  C   UNL d   1      60.402  49.527  50.850  0.00  0.00     0.083 A 
ATOM     10  C   UNL d   1      61.383  47.238  49.233  0.00  0.00     0.019 A 
ATOM     11  C   UNL d   1      60.224  49.708  50.064  0.00  0.00     0.019 A 
ATOM     12  C   UNL d   1      60.424  49.183  49.467  0.00  0.00     0.003 A 
ENDROOT
BRANCH   6  13
ATOM     13  N   UNL d   1      61.943  46.346  50.205  0.00  0.00    -0.204 NA
ATOM     14  C   UNL d   1      61.713  45.646  49.833  0.00  0.00     0.337 C 
ATOM     15  O   UNL d   1      61.104  45.657  49.276  0.00  0.00    -0.260 OA
BRANCH  14  16
ATOM     16  C   UNL d   1      62.089  44.938  50.016  0.00  0.00     0.337 C 
ATOM     17  N   UNL d   1      61.719  44.388  50.507  0.00  0.00    -0.204 NA
ATOM     18  O   UNL d   1      62.838  44.779  49.708  0.00  0.00    -0.260 OA
BRANCH  17  19
ATOM     19  C   UNL d   1      62.098  43.678  50.689  0.00  0.00     0.085 A 
ATOM     20  C   UNL d   1      61.892  43.270  51.367  0.00  0.00     0.019 A 
ATOM     21  C   UNL d   1      62.273  42.553  51.555  0.00  0.00     0.002 A 
ATOM     22  C   UNL d   1      62.857  42.258  51.053  0.00  0.00     0.000 A 
ATOM     23  C   UNL d   1      63.061  42.679  50.363  0.00  0.00     0.002 A 
ATOM     24  C   UNL d   1      62.682  43.382  50.187  0.00  0.00     0.019 A 
ENDBRANCH  17  19
ENDBRANCH  14  16
ENDBRANCH   6  13
BRANCH   2  25
ATOM     25  C   UNL d   1      60.755  49.176  52.428  0.00  0.00     0.057 A 
ATOM     26  C   UNL d   1      60.556  49.708  53.026  0.00  0.00     0.005 A 
ATOM     27  C   UNL d   1      61.349  49.552  52.860  0.00  0.00     0.005 A 
ENDBRANCH   2  25
TORSDOF 4
ENDMDL
MODEL 2
REMARK VINA RESULT:     114.4      1.172      5.215
REMARK  4 active torsions:
REMARK  status: ('A' for Active; 'I' for Inactive)
REMARK       I    between atoms: C_2  and  N_1 
REMARK    1  A    between atoms: C_6  and  C_2 
REMARK       I    between atoms: C_4  and  N_7 
REMARK    2  A    between atoms: C_5  and  C_4 
REMARK       I    between atoms: N_10  and  C_5 
REMARK    3  A    between atoms: N_7  and  C_13 
REMARK    4  A    between atoms: C_19  and  N_10 
ROOT
ATOM      1  N   UNL d   1      62.070  43.386  50.616  0.00  0.00    -0.273 N 
ATOM      2  C   UNL d   1      61.732  43.425  51.380  0.00  0.00     0.265 C 
ATOM      3  C   UNL d   1      62.039  44.032  50.112  0.00  0.00     0.068 A 
ATOM      4  C   UNL d   1      61.672  44.730  50.357  0.00  0.00     0.037 A 
ATOM      5  C   UNL d   1      62.374  43.986  49.362  0.00  0.00     0.016 A 
ATOM      6  C   UNL d   1      61.642  45.380  49.849  0.00  0.00     0.086 A 
ATOM      7  O   UNL d   1      61.367  44.121  51.622  0.00  0.00    -0.267 OA
ATOM      8  C   UNL d   1      62.343  44.636  48.855  0.00  0.00     0.003 A 
ATOM      9  C   UNL d   1      62.435  42.690  50.375  0.00  0.00     0.083 A 
ATOM     10  C   UNL d   1      61.978  45.331  49.097  0.00  0.00     0.019 A 
ATOM     11  C   UNL d   1      62.771  42.642  49.622  0.00  0.00     0.019 A 
ATOM     12  C   UNL d   1      62.741  43.288  49.118  0.00  0.00     0.003 A 
ENDROOT
BRANCH   6  13
ATOM     13  N   UNL d   1      61.273  46.079  50.097  0.00  0.00    -0.204 NA
ATOM     14  C   UNL d   1      61.650  46.804  49.984  0.00  0.00     0.337 C 
ATOM     15  O   UNL d   1      62.393  46.832  49.625  0.00  0.00    -0.260 OA
BRANCH  14  16
ATOM     16  C   UNL d   1      61.288  47.501  50.229  0.00  0.00     0.337 C 
ATOM     17  N   UNL d   1      61.074  47.601  51.019  0.00  0.00    -0.204 NA
ATOM     18  O   UNL d   1      61.139  48.100  49.681  0.00  0.00    -0.260 OA
BRANCH  17  19
ATOM     19  C   UNL d   1      60.710  48.301  51.262  0.00  0.00     0.085 A 
ATOM     20  C   UNL d   1      59.897  48.330  51.342  0.00  0.00     0.019 A 
ATOM     21  C   UNL d   1      59.527  49.035  51.587  0.00  0.00     0.002 A 
ATOM     22  C   UNL d   1      59.984  49.702  51.747  0.00  0.00     0.000 A 
ATOM     23  C   UNL d   1      60.813  49.665  51.663  0.00  0.00     0.002 A 
ATOM     24  C   UNL d   1      61.168  48.969  51.422  0.00  0.00     0.019 A 
ENDBRANCH  17  19
ENDBRANCH  14  16
ENDBRANCH   6  13
BRANCH   2  25
ATOM     25  C   UNL d   1      61.764  42.774  51.884  0.00  0.00     0.057 A 
ATOM     26  C   UNL d   1      61.794  42.124  52.392  0.00  0.00     0.005 A 
ATOM     27  C   UNL d   1      61.370  42.797  52.610  0.00  0.00     0.005 A 
ENDBRANCH   2  25
TORSDOF 4
ENDMDL
