MODEL 1
REMARK VINA RESULT:      -5.0      0.000      0.000
REMARK  3 active torsions:
REMARK  status: ('A' for Active; 'I' for Inactive)
REMARK    1  A    between atoms: C_7  and  C_1 
REMARK    2  A    between atoms: C_6  and  C_3 
REMARK    3  A    between atoms: O_15  and  C_7 
ROOT
ATOM      1  C   UNL d   1     -41.378-122.402 -52.801  0.00  0.00     0.167 A 
ATOM      2  C   UNL d   1     -41.616-122.857 -52.152  0.00  0.00     0.047 A 
ATOM      3  C   UNL d   1     -41.505-122.405 -51.471  0.00  0.00     0.105 A 
ATOM      4  N   UNL d   1     -41.198-121.669 -51.698  0.00  0.00    -0.148 NA
ATOM      5  N   UNL d   1     -41.123-121.675 -52.519  0.00  0.00    -0.143 NA
ENDROOT
BRANCH   3   6
ATOM      6  C   UNL d   1     -41.671-122.644 -50.695  0.00  0.00     0.030 A 
ATOM      7  C   UNL d   1     -42.386-122.428 -50.342  0.00  0.00     0.060 A 
ATOM      8  C   UNL d   1     -42.555-122.662 -49.573  0.00  0.00     0.023 A 
ATOM      9 CL   UNL d   1     -42.930-121.974 -50.768  0.00  0.00    -0.082 Cl
ATOM     10  C   UNL d   1     -42.003-123.120 -49.148  0.00  0.00     0.059 A 
ATOM     11  C   UNL d   1     -41.288-123.333 -49.509  0.00  0.00     0.011 A 
ATOM     12 CL   UNL d   1     -42.172-123.355 -48.378  0.00  0.00    -0.082 Cl
ATOM     13  C   UNL d   1     -41.124-123.095 -50.280  0.00  0.00     0.003 A 
ENDBRANCH   3   6
BRANCH   1  14
ATOM     14  C   UNL d   1     -41.396-122.640 -53.590  0.00  0.00     0.316 C 
ATOM     15  O   UNL d   1     -41.363-123.444 -53.773  0.00  0.00    -0.257 OA
BRANCH  14  16
ATOM     16  O   UNL d   1     -41.447-122.079 -54.193  0.00  0.00    -0.294 OA
ATOM     17  C   UNL d   1     -41.512-122.315 -54.978  0.00  0.00     0.185 C 
ENDBRANCH  14  16
ENDBRANCH   1  14
TORSDOF 3
ENDMDL
MODEL 2
REMARK VINA RESULT:      -4.9      2.379      4.241
REMARK  3 active torsions:
REMARK  status: ('A' for Active; 'I' for Inactive)
REMARK    1  A    between atoms: C_7  and  C_1 
REMARK    2  A    between atoms: C_6  and  C_3 
REMARK    3  A    between atoms: O_15  and  C_7 
ROOT
ATOM      1  C   UNL d   1     -41.378-123.052 -51.723  0.00  0.00     0.167 A 
ATOM      2  C   UNL d   1     -41.522-122.521 -52.341  0.00  0.00     0.047 A 
ATOM      3  C   UNL d   1     -41.609-122.957 -53.035  0.00  0.00     0.105 A 
ATOM      4  N   UNL d   1     -41.519-123.760 -52.848  0.00  0.00    -0.148 NA
ATOM      5  N   UNL d   1     -41.377-123.810 -52.038  0.00  0.00    -0.143 NA
ENDROOT
BRANCH   3   6
ATOM      6  C   UNL d   1     -41.760-122.647 -53.789  0.00  0.00     0.030 A 
ATOM      7  C   UNL d   1     -41.523-123.065 -54.461  0.00  0.00     0.060 A 
ATOM      8  C   UNL d   1     -41.670-122.763 -55.210  0.00  0.00     0.023 A 
ATOM      9 CL   UNL d   1     -41.136-123.790 -54.374  0.00  0.00    -0.082 Cl
ATOM     10  C   UNL d   1     -42.061-122.030 -55.292  0.00  0.00     0.059 A 
ATOM     11  C   UNL d   1     -42.296-121.617 -54.613  0.00  0.00     0.011 A 
ATOM     12 CL   UNL d   1     -42.209-121.727 -56.042  0.00  0.00    -0.082 Cl
ATOM     13  C   UNL d   1     -42.145-121.926 -53.864  0.00  0.00     0.003 A 
ENDBRANCH   3   6
BRANCH   1  14
ATOM     14  C   UNL d   1     -41.257-122.852 -50.932  0.00  0.00     0.316 C 
ATOM     15  O   UNL d   1     -41.272-122.059 -50.706  0.00  0.00    -0.257 OA
BRANCH  14  16
ATOM     16  O   UNL d   1     -41.123-123.442 -50.370  0.00  0.00    -0.294 OA
ATOM     17  C   UNL d   1     -41.300-123.311 -49.578  0.00  0.00     0.185 C 
ENDBRANCH  14  16
ENDBRANCH   1  14
TORSDOF 3
ENDMDL
MODEL 3
REMARK VINA RESULT:      -4.8      1.106      1.373
REMARK  3 active torsions:
REMARK  status: ('A' for Active; 'I' for Inactive)
REMARK    1  A    between atoms: C_7  and  C_1 
REMARK    2  A    between atoms: C_6  and  C_3 
REMARK    3  A    between atoms: O_15  and  C_7 
ROOT
ATOM      1  C   UNL d   1     -41.516-122.792 -51.838  0.00  0.00     0.167 A 
ATOM      2  C   UNL d   1     -41.540-122.509 -51.060  0.00  0.00     0.047 A 
ATOM      3  C   UNL d   1     -41.731-123.142 -50.566  0.00  0.00     0.105 A 
ATOM      4  N   UNL d   1     -41.825-123.817 -51.037  0.00  0.00    -0.148 NA
ATOM      5  N   UNL d   1     -41.691-123.594 -51.819  0.00  0.00    -0.143 NA
ENDROOT
BRANCH   3   6
ATOM      6  C   UNL d   1     -41.814-123.108 -49.742  0.00  0.00     0.030 A 
ATOM      7  C   UNL d   1     -42.534-122.878 -49.410  0.00  0.00     0.060 A 
ATOM      8  C   UNL d   1     -42.621-122.843 -48.594  0.00  0.00     0.023 A 
ATOM      9 CL   UNL d   1     -43.167-122.683 -49.905  0.00  0.00    -0.082 Cl
ATOM     10  C   UNL d   1     -41.980-123.041 -48.099  0.00  0.00     0.059 A 
ATOM     11  C   UNL d   1     -41.260-123.271 -48.440  0.00  0.00     0.011 A 
ATOM     12 CL   UNL d   1     -42.067-123.006 -47.283  0.00  0.00    -0.082 Cl
ATOM     13  C   UNL d   1     -41.179-123.304 -49.259  0.00  0.00     0.003 A 
ENDBRANCH   3   6
BRANCH   1  14
ATOM     14  C   UNL d   1     -41.346-122.345 -52.509  0.00  0.00     0.316 C 
ATOM     15  O   UNL d   1     -41.128-121.554 -52.426  0.00  0.00    -0.257 OA
BRANCH  14  16
ATOM     16  O   UNL d   1     -41.393-122.686 -53.259  0.00  0.00    -0.294 OA
ATOM     17  C   UNL d   1     -41.305-122.225 -53.934  0.00  0.00     0.185 C 
ENDBRANCH  14  16
ENDBRANCH   1  14
TORSDOF 3
ENDMDL
MODEL 4
REMARK VINA RESULT:      -4.3      1.326      1.623
REMARK  3 active torsions:
REMARK  status: ('A' for Active; 'I' for Inactive)
REMARK    1  A    between atoms: C_7  and  C_1 
REMARK    2  A    between atoms: C_6  and  C_3 
REMARK    3  A    between atoms: O_15  and  C_7 
ROOT
ATOM      1  C   UNL d   1     -41.579-122.827 -53.945  0.00  0.00     0.167 A 
ATOM      2  C   UNL d   1     -41.612-122.535 -53.171  0.00  0.00     0.047 A 
ATOM      3  C   UNL d   1     -41.397-123.146 -52.661  0.00  0.00     0.105 A 
ATOM      4  N   UNL d   1     -41.230-123.817 -53.118  0.00  0.00    -0.148 NA
ATOM      5  N   UNL d   1     -41.344-123.612 -53.908  0.00  0.00    -0.143 NA
ENDROOT
BRANCH   3   6
ATOM      6  C   UNL d   1     -41.355-123.098 -51.834  0.00  0.00     0.030 A 
ATOM      7  C   UNL d   1     -41.217-122.369 -51.471  0.00  0.00     0.060 A 
ATOM      8  C   UNL d   1     -41.175-122.316 -50.652  0.00  0.00     0.023 A 
ATOM      9 CL   UNL d   1     -41.123-121.693 -51.937  0.00  0.00    -0.082 Cl
ATOM     10  C   UNL d   1     -41.271-123.001 -50.187  0.00  0.00     0.059 A 
ATOM     11  C   UNL d   1     -41.409-123.729 -50.559  0.00  0.00     0.011 A 
ATOM     12 CL   UNL d   1     -41.228-122.948 -49.368  0.00  0.00    -0.082 Cl
ATOM     13  C   UNL d   1     -41.450-123.776 -51.380  0.00  0.00     0.003 A 
ENDBRANCH   3   6
BRANCH   1  14
ATOM     14  C   UNL d   1     -41.751-122.401 -54.629  0.00  0.00     0.316 C 
ATOM     15  O   UNL d   1     -41.192-121.878 -54.935  0.00  0.00    -0.257 OA
BRANCH  14  16
ATOM     16  O   UNL d   1     -42.480-122.497 -55.007  0.00  0.00    -0.294 OA
ATOM     17  C   UNL d   1     -42.678-122.032 -55.655  0.00  0.00     0.185 C 
ENDBRANCH  14  16
ENDBRANCH   1  14
TORSDOF 3
ENDMDL
MODEL 5
REMARK VINA RESULT:      -4.0      2.760      4.196
REMARK  3 active torsions:
REMARK  status: ('A' for Active; 'I' for Inactive)
REMARK    1  A    between atoms: C_7  and  C_1 
REMARK    2  A    between atoms: C_6  and  C_3 
REMARK    3  A    between atoms: O_15  and  C_7 
ROOT
ATOM      1  C   UNL d   1     -42.204-123.238 -48.691  0.00  0.00     0.167 A 
ATOM      2  C   UNL d   1     -41.728-123.063 -49.346  0.00  0.00     0.047 A 
ATOM      3  C   UNL d   1     -42.165-123.226 -50.027  0.00  0.00     0.105 A 
ATOM      4  N   UNL d   1     -42.912-123.501 -49.794  0.00  0.00    -0.148 NA
ATOM      5  N   UNL d   1     -42.927-123.506 -48.970  0.00  0.00    -0.143 NA
ENDROOT
BRANCH   3   6
ATOM      6  C   UNL d   1     -41.903-123.130 -50.807  0.00  0.00     0.030 A 
ATOM      7  C   UNL d   1     -41.972-122.395 -51.177  0.00  0.00     0.060 A 
ATOM      8  C   UNL d   1     -41.714-122.295 -51.951  0.00  0.00     0.023 A 
ATOM      9 CL   UNL d   1     -42.301-121.760 -50.764  0.00  0.00    -0.082 Cl
ATOM     10  C   UNL d   1     -41.381-122.940 -52.364  0.00  0.00     0.059 A 
ATOM     11  C   UNL d   1     -41.317-123.674 -51.985  0.00  0.00     0.011 A 
ATOM     12 CL   UNL d   1     -41.123-122.840 -53.138  0.00  0.00    -0.082 Cl
ATOM     13  C   UNL d   1     -41.577-123.768 -51.210  0.00  0.00     0.003 A 
ENDBRANCH   3   6
BRANCH   1  14
ATOM     14  C   UNL d   1     -41.985-123.156 -47.901  0.00  0.00     0.316 C 
ATOM     15  O   UNL d   1     -42.387-122.619 -47.421  0.00  0.00    -0.257 OA
BRANCH  14  16
ATOM     16  O   UNL d   1     -41.368-123.609 -47.590  0.00  0.00    -0.294 OA
ATOM     17  C   UNL d   1     -41.275-123.686 -46.777  0.00  0.00     0.185 C 
ENDBRANCH  14  16
ENDBRANCH   1  14
TORSDOF 3
ENDMDL
