MODEL 1
REMARK VINA RESULT:     114.2      0.000      0.000
REMARK  7 active torsions:
REMARK  status: ('A' for Active; 'I' for Inactive)
REMARK    1  A    between atoms: C_7  and  C_1 
REMARK    2  A    between atoms: S_8  and  C_3 
REMARK       I    between atoms: C_6  and  N_13 
REMARK    3  A    between atoms: C_10  and  C_6 
REMARK    4  A    between atoms: C_20  and  S_8 
REMARK    5  A    between atoms: N_13  and  C_21 
REMARK    6  A    between atoms: O_19  and  C_14 
REMARK    7  A    between atoms: C_21  and  C_20 
ROOT
ATOM      1  C   UNL d   1      60.872  47.875  51.222  0.00  0.00     0.087 A 
ATOM      2  N   UNL d   1      61.479  48.021  50.689  0.00  0.00    -0.245 NA
ATOM      3  C   UNL d   1      60.228  48.345  51.015  0.00  0.00     0.049 A 
ATOM      4  C   UNL d   1      60.431  48.786  50.354  0.00  0.00     0.025 A 
ATOM      5  C   UNL d   1      61.210  48.586  50.149  0.00  0.00     0.082 A 
ATOM      6  C   UNL d   1      60.020  49.339  49.911  0.00  0.00     0.002 A 
ATOM      7  C   UNL d   1      61.572  48.943  49.499  0.00  0.00     0.019 A 
ATOM      8  C   UNL d   1      60.382  49.696  49.260  0.00  0.00     0.000 A 
ATOM      9  C   UNL d   1      61.153  49.498  49.058  0.00  0.00     0.002 A 
ENDROOT
BRANCH   3  10
ATOM     10  S   UNL d   1      59.499  48.373  51.405  0.00  0.00    -0.083 SA
BRANCH  10  11
ATOM     11  C   UNL d   1      59.033  49.061  51.354  0.00  0.00     0.056 C 
BRANCH  11  12
ATOM     12  C   UNL d   1      58.231  48.996  51.162  0.00  0.00     0.109 C 
BRANCH  12  13
ATOM     13  N   UNL d   1      57.671  49.221  51.710  0.00  0.00    -0.206 NA
ATOM     14  C   UNL d   1      56.883  49.282  51.484  0.00  0.00     0.279 C 
ATOM     15  O   UNL d   1      56.309  49.512  52.046  0.00  0.00    -0.265 OA
BRANCH  14  16
ATOM     16  C   UNL d   1      56.658  49.115  50.706  0.00  0.00     0.058 A 
ATOM     17  C   UNL d   1      56.723  49.705  50.122  0.00  0.00     0.005 A 
ATOM     18  C   UNL d   1      56.499  49.539  49.343  0.00  0.00     0.000 A 
ATOM     19  C   UNL d   1      56.209  48.787  49.149  0.00  0.00     0.000 A 
ATOM     20  C   UNL d   1      56.145  48.204  49.727  0.00  0.00     0.000 A 
ATOM     21  C   UNL d   1      56.369  48.370  50.504  0.00  0.00     0.005 A 
ENDBRANCH  14  16
ENDBRANCH  12  13
ENDBRANCH  11  12
ENDBRANCH  10  11
ENDBRANCH   3  10
BRANCH   1  22
ATOM     22  C   UNL d   1      60.939  47.341  51.841  0.00  0.00     0.018 A 
ATOM     23  C   UNL d   1      61.256  47.583  52.566  0.00  0.00     0.004 A 
ATOM     24  C   UNL d   1      61.324  47.052  53.188  0.00  0.00     0.024 A 
ATOM     25  C   UNL d   1      61.075  46.274  53.089  0.00  0.00     0.094 A 
ATOM     26  C   UNL d   1      60.756  46.027  52.362  0.00  0.00     0.024 A 
ATOM     27  C   UNL d   1      60.688  46.557  51.740  0.00  0.00     0.004 A 
BRANCH  25  28
ATOM     28  O   UNL d   1      61.145  45.734  53.721  0.00  0.00    -0.328 OA
ATOM     29  C   UNL d   1      61.624  45.061  53.642  0.00  0.00     0.181 C 
ENDBRANCH  25  28
ENDBRANCH   1  22
TORSDOF 7
ENDMDL
