MODEL 1
REMARK VINA RESULT:      27.1      0.000      0.000
REMARK  3 active torsions:
REMARK  status: ('A' for Active; 'I' for Inactive)
REMARK    1  A    between atoms: C_5  and  N_1 
REMARK    2  A    between atoms: C_11  and  C_3 
REMARK    3  A    between atoms: C_7  and  C_5 
ROOT
ATOM      1  N   UNL d   1      44.907 -12.483  43.497  0.00  0.00    -0.286 N 
ATOM      2  N   UNL d   1      43.977 -12.230  42.552  0.00  0.00    -0.224 NA
ATOM      3  C   UNL d   1      44.094 -12.396  43.361  0.00  0.00     0.191 A 
ATOM      4  C   UNL d   1      45.304 -12.372  42.771  0.00  0.00     0.083 A 
ATOM      5  C   UNL d   1      44.728 -12.217  42.194  0.00  0.00     0.099 A 
ATOM      6  C   UNL d   1      46.110 -12.391  42.554  0.00  0.00     0.019 A 
ATOM      7  C   UNL d   1      44.953 -12.080  41.399  0.00  0.00     0.021 A 
ATOM      8  C   UNL d   1      46.333 -12.256  41.772  0.00  0.00     0.002 A 
ATOM      9  C   UNL d   1      45.756 -12.101  41.196  0.00  0.00     0.002 A 
ENDROOT
BRANCH   1  10
ATOM     10  C   UNL d   1      45.108 -12.649  44.279  0.00  0.00     0.082 C 
BRANCH  10  11
ATOM     11  C   UNL d   1      45.442 -13.373  44.473  0.00  0.00     0.018 A 
ATOM     12  C   UNL d   1      46.209 -13.410  44.755  0.00  0.00     0.001 A 
ATOM     13  C   UNL d   1      46.544 -14.134  44.950  0.00  0.00     0.000 A 
ATOM     14  C   UNL d   1      46.643 -12.714  44.841  0.00  0.00     0.000 C 
ATOM     15  C   UNL d   1      46.107 -14.829  44.862  0.00  0.00     0.000 A 
ATOM     16  C   UNL d   1      45.333 -14.793  44.579  0.00  0.00     0.000 A 
ATOM     17  C   UNL d   1      45.002 -14.065  44.384  0.00  0.00     0.002 A 
ATOM     18  C   UNL d   1      44.893 -15.486  44.490  0.00  0.00     0.000 C 
ENDBRANCH  10  11
ENDBRANCH   1  10
BRANCH   3  19
ATOM     19  C   UNL d   1      43.302 -12.376  43.567  0.00  0.00     0.271 C 
ATOM     20  O   UNL d   1      42.745 -12.775  43.107  0.00  0.00    -0.280 OA
ENDBRANCH   3  19
TORSDOF 3
ENDMDL
MODEL 2
REMARK VINA RESULT:      28.7      1.239      3.548
REMARK  3 active torsions:
REMARK  status: ('A' for Active; 'I' for Inactive)
REMARK    1  A    between atoms: C_5  and  N_1 
REMARK    2  A    between atoms: C_11  and  C_3 
REMARK    3  A    between atoms: C_7  and  C_5 
ROOT
ATOM      1  N   UNL d   1      45.198 -13.259  43.901  0.00  0.00    -0.286 N 
ATOM      2  N   UNL d   1      46.261 -13.858  44.480  0.00  0.00    -0.224 NA
ATOM      3  C   UNL d   1      45.962 -13.132  44.195  0.00  0.00     0.191 A 
ATOM      4  C   UNL d   1      45.014 -14.067  44.000  0.00  0.00     0.083 A 
ATOM      5  C   UNL d   1      45.670 -14.430  44.356  0.00  0.00     0.099 A 
ATOM      6  C   UNL d   1      44.340 -14.523  43.816  0.00  0.00     0.019 A 
ATOM      7  C   UNL d   1      45.656 -15.249  44.530  0.00  0.00     0.021 A 
ATOM      8  C   UNL d   1      44.324 -15.330  43.987  0.00  0.00     0.002 A 
ATOM      9  C   UNL d   1      44.981 -15.692  44.343  0.00  0.00     0.002 A 
ENDROOT
BRANCH   1  10
ATOM     10  C   UNL d   1      44.831 -12.586  43.599  0.00  0.00     0.082 C 
BRANCH  10  11
ATOM     11  C   UNL d   1      44.826 -12.447  42.791  0.00  0.00     0.018 A 
ATOM     12  C   UNL d   1      44.134 -12.228  42.414  0.00  0.00     0.001 A 
ATOM     13  C   UNL d   1      44.128 -12.089  41.605  0.00  0.00     0.000 A 
ATOM     14  C   UNL d   1      43.441 -12.149  42.856  0.00  0.00     0.000 C 
ATOM     15  C   UNL d   1      44.823 -12.168  41.167  0.00  0.00     0.000 A 
ATOM     16  C   UNL d   1      45.522 -12.389  41.545  0.00  0.00     0.000 A 
ATOM     17  C   UNL d   1      45.523 -12.527  42.356  0.00  0.00     0.002 A 
ATOM     18  C   UNL d   1      46.220 -12.470  41.110  0.00  0.00     0.000 C 
ENDBRANCH  10  11
ENDBRANCH   1  10
BRANCH   3  19
ATOM     19  C   UNL d   1      46.627 -12.690  44.378  0.00  0.00     0.271 C 
ATOM     20  O   UNL d   1      46.584 -12.091  44.943  0.00  0.00    -0.280 OA
ENDBRANCH   3  19
TORSDOF 3
ENDMDL
MODEL 3
REMARK VINA RESULT:      29.1      5.881      7.246
REMARK  3 active torsions:
REMARK  status: ('A' for Active; 'I' for Inactive)
REMARK    1  A    between atoms: C_5  and  N_1 
REMARK    2  A    between atoms: C_11  and  C_3 
REMARK    3  A    between atoms: C_7  and  C_5 
ROOT
ATOM      1  N   UNL d   1      44.292 -15.822  37.013  0.00  0.00    -0.286 N 
ATOM      2  N   UNL d   1      43.589 -16.488  37.953  0.00  0.00    -0.224 NA
ATOM      3  C   UNL d   1      44.356 -16.330  37.664  0.00  0.00     0.191 A 
ATOM      4  C   UNL d   1      43.483 -15.658  36.890  0.00  0.00     0.083 A 
ATOM      5  C   UNL d   1      43.055 -16.070  37.470  0.00  0.00     0.099 A 
ATOM      6  C   UNL d   1      43.075 -15.192  36.331  0.00  0.00     0.019 A 
ATOM      7  C   UNL d   1      42.220 -16.017  37.495  0.00  0.00     0.021 A 
ATOM      8  C   UNL d   1      42.252 -15.139  36.354  0.00  0.00     0.002 A 
ATOM      9  C   UNL d   1      41.826 -15.551  36.935  0.00  0.00     0.002 A 
ENDROOT
BRANCH   1  10
ATOM     10  C   UNL d   1      45.012 -15.617  36.666  0.00  0.00     0.082 C 
BRANCH  10  11
ATOM     11  C   UNL d   1      45.429 -14.967  36.940  0.00  0.00     0.018 A 
ATOM     12  C   UNL d   1      46.227 -14.890  36.774  0.00  0.00     0.001 A 
ATOM     13  C   UNL d   1      46.646 -14.239  37.048  0.00  0.00     0.000 A 
ATOM     14  C   UNL d   1      46.606 -15.474  36.330  0.00  0.00     0.000 C 
ATOM     15  C   UNL d   1      46.264 -13.658  37.491  0.00  0.00     0.000 A 
ATOM     16  C   UNL d   1      45.460 -13.733  37.659  0.00  0.00     0.000 A 
ATOM     17  C   UNL d   1      45.044 -14.388  37.383  0.00  0.00     0.002 A 
ATOM     18  C   UNL d   1      45.074 -13.153  38.103  0.00  0.00     0.000 C 
ENDBRANCH  10  11
ENDBRANCH   1  10
BRANCH   3  19
ATOM     19  C   UNL d   1      44.749 -16.790  38.216  0.00  0.00     0.271 C 
ATOM     20  O   UNL d   1      44.324 -17.272  38.733  0.00  0.00    -0.280 OA
ENDBRANCH   3  19
TORSDOF 3
ENDMDL
