MODEL 1
REMARK VINA RESULT:      -7.8      0.000      0.000
REMARK  3 active torsions:
REMARK  status: ('A' for Active; 'I' for Inactive)
REMARK    1  A    between atoms: S_6  and  C_2 
REMARK    2  A    between atoms: C_9  and  S_6 
REMARK    3  A    between atoms: C_7  and  C_9 
ROOT
ATOM      1  N   UNL d   1      52.709  32.016  52.648  0.00  0.00    -0.243 NA
ATOM      2  C   UNL d   1      53.510  32.210  53.689  0.00  0.00     0.046 A 
ATOM      3  C   UNL d   1      53.385  31.399  53.607  0.00  0.00     0.025 A 
ATOM      4  C   UNL d   1      53.094  32.589  53.099  0.00  0.00     0.105 A 
ATOM      5  C   UNL d   1      52.887  31.276  52.960  0.00  0.00     0.082 A 
ATOM      6  C   UNL d   1      53.660  30.755  54.038  0.00  0.00     0.002 A 
ATOM      7  C   UNL d   1      52.664  30.506  52.744  0.00  0.00     0.019 A 
ATOM      8  C   UNL d   1      53.440  29.970  53.827  0.00  0.00     0.000 A 
ATOM      9  C   UNL d   1      52.946  29.855  53.184  0.00  0.00     0.002 A 
ENDROOT
BRANCH   2  10
ATOM     10  S   UNL d   1      53.975  32.586  54.266  0.00  0.00    -0.101 SA
BRANCH  10  11
ATOM     11  C   UNL d   1      54.030  33.413  54.283  0.00  0.00     0.160 C 
BRANCH  11  12
ATOM     12  C   UNL d   1      54.425  33.798  54.898  0.00  0.00     0.197 C 
ATOM     13  O   UNL d   1      54.022  34.374  55.347  0.00  0.00    -0.647 OA
ATOM     14  O   UNL d   1      55.210  33.624  55.077  0.00  0.00    -0.647 OA
ENDBRANCH  11  12
ENDBRANCH  10  11
ENDBRANCH   2  10
TORSDOF 3
ENDMDL
MODEL 2
REMARK VINA RESULT:      -7.7      2.787      3.507
REMARK  3 active torsions:
REMARK  status: ('A' for Active; 'I' for Inactive)
REMARK    1  A    between atoms: S_6  and  C_2 
REMARK    2  A    between atoms: C_9  and  S_6 
REMARK    3  A    between atoms: C_7  and  C_9 
ROOT
ATOM      1  N   UNL d   1      53.526  34.969  54.678  0.00  0.00    -0.243 NA
ATOM      2  C   UNL d   1      52.784  34.199  53.892  0.00  0.00     0.046 A 
ATOM      3  C   UNL d   1      53.337  33.721  54.273  0.00  0.00     0.025 A 
ATOM      4  C   UNL d   1      52.901  34.966  54.141  0.00  0.00     0.105 A 
ATOM      5  C   UNL d   1      53.800  34.198  54.762  0.00  0.00     0.082 A 
ATOM      6  C   UNL d   1      53.480  32.912  54.237  0.00  0.00     0.002 A 
ATOM      7  C   UNL d   1      54.408  33.863  55.218  0.00  0.00     0.019 A 
ATOM      8  C   UNL d   1      54.094  32.563  54.696  0.00  0.00     0.000 A 
ATOM      9  C   UNL d   1      54.550  33.041  55.180  0.00  0.00     0.002 A 
ENDROOT
BRANCH   2  10
ATOM     10  S   UNL d   1      52.205  33.955  53.348  0.00  0.00    -0.101 SA
BRANCH  10  11
ATOM     11  C   UNL d   1      51.647  34.497  53.061  0.00  0.00     0.160 C 
BRANCH  11  12
ATOM     12  C   UNL d   1      51.068  34.261  52.521  0.00  0.00     0.197 C 
ATOM     13  O   UNL d   1      50.295  34.104  52.792  0.00  0.00    -0.647 OA
ATOM     14  O   UNL d   1      51.239  34.178  51.719  0.00  0.00    -0.647 OA
ENDBRANCH  11  12
ENDBRANCH  10  11
ENDBRANCH   2  10
TORSDOF 3
ENDMDL
MODEL 3
REMARK VINA RESULT:      -7.6      2.029      3.264
REMARK  3 active torsions:
REMARK  status: ('A' for Active; 'I' for Inactive)
REMARK    1  A    between atoms: S_6  and  C_2 
REMARK    2  A    between atoms: C_9  and  S_6 
REMARK    3  A    between atoms: C_7  and  C_9 
ROOT
ATOM      1  N   UNL d   1      52.922  33.324  53.238  0.00  0.00    -0.243 NA
ATOM      2  C   UNL d   1      53.329  32.123  53.632  0.00  0.00     0.046 A 
ATOM      3  C   UNL d   1      53.663  32.686  54.133  0.00  0.00     0.025 A 
ATOM      4  C   UNL d   1      52.873  32.515  53.082  0.00  0.00     0.105 A 
ATOM      5  C   UNL d   1      53.412  33.433  53.889  0.00  0.00     0.082 A 
ATOM      6  C   UNL d   1      54.166  32.615  54.780  0.00  0.00     0.002 A 
ATOM      7  C   UNL d   1      53.664  34.113  54.296  0.00  0.00     0.019 A 
ATOM      8  C   UNL d   1      54.426  33.298  55.199  0.00  0.00     0.000 A 
ATOM      9  C   UNL d   1      54.173  34.037  54.952  0.00  0.00     0.002 A 
ENDROOT
BRANCH   2  10
ATOM     10  S   UNL d   1      53.430  31.299  53.671  0.00  0.00    -0.101 SA
BRANCH  10  11
ATOM     11  C   UNL d   1      52.962  30.799  53.204  0.00  0.00     0.160 C 
BRANCH  11  12
ATOM     12  C   UNL d   1      52.961  29.982  53.329  0.00  0.00     0.197 C 
ATOM     13  O   UNL d   1      52.235  29.574  53.367  0.00  0.00    -0.647 OA
ATOM     14  O   UNL d   1      53.665  29.563  53.418  0.00  0.00    -0.647 OA
ENDBRANCH  11  12
ENDBRANCH  10  11
ENDBRANCH   2  10
TORSDOF 3
ENDMDL
MODEL 4
REMARK VINA RESULT:      -7.3      1.963      2.434
REMARK  3 active torsions:
REMARK  status: ('A' for Active; 'I' for Inactive)
REMARK    1  A    between atoms: S_6  and  C_2 
REMARK    2  A    between atoms: C_9  and  S_6 
REMARK    3  A    between atoms: C_7  and  C_9 
ROOT
ATOM      1  N   UNL d   1      53.949  32.390  53.853  0.00  0.00    -0.243 NA
ATOM      2  C   UNL d   1      52.797  32.595  53.225  0.00  0.00     0.046 A 
ATOM      3  C   UNL d   1      52.942  31.784  53.240  0.00  0.00     0.025 A 
ATOM      4  C   UNL d   1      53.416  32.968  53.603  0.00  0.00     0.105 A 
ATOM      5  C   UNL d   1      53.658  31.654  53.630  0.00  0.00     0.082 A 
ATOM      6  C   UNL d   1      52.515  31.145  52.947  0.00  0.00     0.002 A 
ATOM      7  C   UNL d   1      53.947  30.882  53.728  0.00  0.00     0.019 A 
ATOM      8  C   UNL d   1      52.800  30.358  53.042  0.00  0.00     0.000 A 
ATOM      9  C   UNL d   1      53.510  30.236  53.430  0.00  0.00     0.002 A 
ENDROOT
BRANCH   2  10
ATOM     10  S   UNL d   1      52.141  32.978  52.890  0.00  0.00    -0.101 SA
BRANCH  10  11
ATOM     11  C   UNL d   1      52.098  33.806  52.884  0.00  0.00     0.160 C 
BRANCH  11  12
ATOM     12  C   UNL d   1      51.440  34.193  52.568  0.00  0.00     0.197 C 
ATOM     13  O   UNL d   1      51.387  34.304  51.743  0.00  0.00    -0.647 OA
ATOM     14  O   UNL d   1      50.835  34.473  53.052  0.00  0.00    -0.647 OA
ENDBRANCH  11  12
ENDBRANCH  10  11
ENDBRANCH   2  10
TORSDOF 3
ENDMDL
MODEL 5
REMARK VINA RESULT:      -7.3      2.243      3.393
REMARK  3 active torsions:
REMARK  status: ('A' for Active; 'I' for Inactive)
REMARK    1  A    between atoms: S_6  and  C_2 
REMARK    2  A    between atoms: C_9  and  S_6 
REMARK    3  A    between atoms: C_7  and  C_9 
ROOT
ATOM      1  N   UNL d   1      53.842  33.513  53.653  0.00  0.00    -0.243 NA
ATOM      2  C   UNL d   1      53.132  32.435  53.341  0.00  0.00     0.046 A 
ATOM      3  C   UNL d   1      52.654  33.099  53.235  0.00  0.00     0.025 A 
ATOM      4  C   UNL d   1      53.863  32.690  53.597  0.00  0.00     0.105 A 
ATOM      5  C   UNL d   1      53.094  33.770  53.429  0.00  0.00     0.082 A 
ATOM      6  C   UNL d   1      51.874  33.179  52.988  0.00  0.00     0.002 A 
ATOM      7  C   UNL d   1      52.751  34.524  53.375  0.00  0.00     0.019 A 
ATOM      8  C   UNL d   1      51.518  33.939  52.930  0.00  0.00     0.000 A 
ATOM      9  C   UNL d   1      51.959  34.602  53.123  0.00  0.00     0.002 A 
ENDROOT
BRANCH   2  10
ATOM     10  S   UNL d   1      52.920  31.642  53.212  0.00  0.00    -0.101 SA
BRANCH  10  11
ATOM     11  C   UNL d   1      53.442  31.031  53.417  0.00  0.00     0.160 C 
BRANCH  11  12
ATOM     12  C   UNL d   1      53.214  30.240  53.350  0.00  0.00     0.197 C 
ATOM     13  O   UNL d   1      53.259  29.743  54.018  0.00  0.00    -0.647 OA
ATOM     14  O   UNL d   1      52.941  29.933  52.635  0.00  0.00    -0.647 OA
ENDBRANCH  11  12
ENDBRANCH  10  11
ENDBRANCH   2  10
TORSDOF 3
ENDMDL
MODEL 6
REMARK VINA RESULT:      -7.2      1.498      2.516
REMARK  3 active torsions:
REMARK  status: ('A' for Active; 'I' for Inactive)
REMARK    1  A    between atoms: S_6  and  C_2 
REMARK    2  A    between atoms: C_9  and  S_6 
REMARK    3  A    between atoms: C_7  and  C_9 
ROOT
ATOM      1  N   UNL d   1      52.695  32.485  52.750  0.00  0.00    -0.243 NA
ATOM      2  C   UNL d   1      53.182  33.284  53.692  0.00  0.00     0.046 A 
ATOM      3  C   UNL d   1      52.522  33.650  53.359  0.00  0.00     0.025 A 
ATOM      4  C   UNL d   1      53.288  32.568  53.317  0.00  0.00     0.105 A 
ATOM      5  C   UNL d   1      52.218  33.155  52.773  0.00  0.00     0.082 A 
ATOM      6  C   UNL d   1      52.159  34.371  53.513  0.00  0.00     0.002 A 
ATOM      7  C   UNL d   1      51.546  33.382  52.340  0.00  0.00     0.019 A 
ATOM      8  C   UNL d   1      51.477  34.611  53.080  0.00  0.00     0.000 A 
ATOM      9  C   UNL d   1      51.180  34.115  52.500  0.00  0.00     0.002 A 
ENDROOT
BRANCH   2  10
ATOM     10  S   UNL d   1      53.662  33.582  54.300  0.00  0.00    -0.101 SA
BRANCH  10  11
ATOM     11  C   UNL d   1      54.371  33.199  54.498  0.00  0.00     0.160 C 
BRANCH  11  12
ATOM     12  C   UNL d   1      54.816  33.443  55.150  0.00  0.00     0.197 C 
ATOM     13  O   UNL d   1      54.667  33.104  55.897  0.00  0.00    -0.647 OA
ATOM     14  O   UNL d   1      55.404  34.016  55.077  0.00  0.00    -0.647 OA
ENDBRANCH  11  12
ENDBRANCH  10  11
ENDBRANCH   2  10
TORSDOF 3
ENDMDL
