MODEL 1
REMARK VINA RESULT:      -6.1      0.000      0.000
REMARK  5 active torsions:
REMARK  status: ('A' for Active; 'I' for Inactive)
REMARK       I    between atoms: C_2  and  N_1 
REMARK    1  A    between atoms: C_4  and  N_1 
REMARK    2  A    between atoms: C_14  and  C_2 
REMARK       I    between atoms: C_3  and  N_6 
REMARK    3  A    between atoms: C_5  and  C_3 
REMARK    4  A    between atoms: N_8  and  C_4 
REMARK    5  A    between atoms: N_6  and  N_8 
ROOT
ATOM      1  C   UNL d   1     -41.392-122.567 -51.496  0.00  0.00     0.243 C 
ATOM      2  S   UNL d   1     -41.142-121.789 -51.529  0.00  0.00    -0.035 SA
ENDROOT
BRANCH   1   3
ATOM      3  N   UNL d   1     -41.505-122.939 -50.765  0.00  0.00    -0.177 NA
ATOM      4  C   UNL d   1     -42.108-122.684 -50.265  0.00  0.00     0.281 C 
ATOM      5  O   UNL d   1     -42.600-122.058 -50.495  0.00  0.00    -0.265 OA
BRANCH   4   6
ATOM      6  C   UNL d   1     -42.219-123.055 -49.540  0.00  0.00     0.058 A 
ATOM      7  C   UNL d   1     -41.594-123.124 -49.013  0.00  0.00     0.005 A 
ATOM      8  C   UNL d   1     -41.703-123.495 -48.285  0.00  0.00     0.000 A 
ATOM      9  C   UNL d   1     -42.445-123.797 -48.089  0.00  0.00     0.000 A 
ATOM     10  C   UNL d   1     -43.079-123.727 -48.623  0.00  0.00     0.000 A 
ATOM     11  C   UNL d   1     -42.963-123.355 -49.349  0.00  0.00     0.005 A 
ENDBRANCH   4   6
ENDBRANCH   1   3
BRANCH   1  12
ATOM     12  N   UNL d   1     -41.533-122.983 -52.194  0.00  0.00    -0.114 NA
BRANCH  12  13
ATOM     13  N   UNL d   1     -41.612-122.585 -52.909  0.00  0.00    -0.103 NA
ATOM     14  C   UNL d   1     -41.741-123.002 -53.609  0.00  0.00     0.303 C 
ATOM     15  O   UNL d   1     -41.791-123.817 -53.592  0.00  0.00    -0.263 OA
BRANCH  14  16
ATOM     16  C   UNL d   1     -41.818-122.594 -54.317  0.00  0.00     0.089 A 
ATOM     17  S   UNL d   1     -41.289-122.658 -54.996  0.00  0.00    -0.082 SA
ATOM     18  C   UNL d   1     -41.585-122.127 -55.620  0.00  0.00     0.036 A 
ATOM     19  C   UNL d   1     -42.295-121.739 -55.320  0.00  0.00     0.008 A 
ATOM     20  C   UNL d   1     -42.441-122.022 -54.522  0.00  0.00     0.012 A 
ENDBRANCH  14  16
ENDBRANCH  12  13
ENDBRANCH   1  12
TORSDOF 5
ENDMDL
MODEL 2
REMARK VINA RESULT:      -4.6      1.271      5.092
REMARK  5 active torsions:
REMARK  status: ('A' for Active; 'I' for Inactive)
REMARK       I    between atoms: C_2  and  N_1 
REMARK    1  A    between atoms: C_4  and  N_1 
REMARK    2  A    between atoms: C_14  and  C_2 
REMARK       I    between atoms: C_3  and  N_6 
REMARK    3  A    between atoms: C_5  and  C_3 
REMARK    4  A    between atoms: N_8  and  C_4 
REMARK    5  A    between atoms: N_6  and  N_8 
ROOT
ATOM      1  C   UNL d   1     -41.734-122.295 -51.541  0.00  0.00     0.243 C 
ATOM      2  S   UNL d   1     -41.122-121.796 -51.326  0.00  0.00    -0.035 SA
ENDROOT
BRANCH   1   3
ATOM      3  N   UNL d   1     -41.815-122.543 -52.326  0.00  0.00    -0.177 NA
ATOM      4  C   UNL d   1     -41.517-122.075 -52.936  0.00  0.00     0.281 C 
ATOM      5  O   UNL d   1     -41.138-121.359 -52.760  0.00  0.00    -0.265 OA
BRANCH   4   6
ATOM      6  C   UNL d   1     -41.597-122.323 -53.715  0.00  0.00     0.058 A 
ATOM      7  C   UNL d   1     -42.070-121.901 -54.235  0.00  0.00     0.005 A 
ATOM      8  C   UNL d   1     -42.153-122.148 -55.017  0.00  0.00     0.000 A 
ATOM      9  C   UNL d   1     -41.756-122.823 -55.274  0.00  0.00     0.000 A 
ATOM     10  C   UNL d   1     -41.276-123.252 -54.748  0.00  0.00     0.000 A 
ATOM     11  C   UNL d   1     -41.198-123.000 -53.966  0.00  0.00     0.005 A 
ENDBRANCH   4   6
ENDBRANCH   1   3
BRANCH   1  12
ATOM     12  N   UNL d   1     -42.274-122.551 -50.972  0.00  0.00    -0.114 NA
BRANCH  12  13
ATOM     13  N   UNL d   1     -42.018-122.772 -50.222  0.00  0.00    -0.103 NA
ATOM     14  C   UNL d   1     -42.557-123.033 -49.655  0.00  0.00     0.303 C 
ATOM     15  O   UNL d   1     -43.352-123.073 -49.839  0.00  0.00    -0.263 OA
BRANCH  14  16
ATOM     16  C   UNL d   1     -42.289-123.251 -48.910  0.00  0.00     0.089 A 
ATOM     17  S   UNL d   1     -42.659-123.037 -48.160  0.00  0.00    -0.082 SA
ATOM     18  C   UNL d   1     -42.187-123.388 -47.517  0.00  0.00     0.036 A 
ATOM     19  C   UNL d   1     -41.530-123.817 -47.877  0.00  0.00     0.008 A 
ATOM     20  C   UNL d   1     -41.589-123.735 -48.730  0.00  0.00     0.012 A 
ENDBRANCH  14  16
ENDBRANCH  12  13
ENDBRANCH   1  12
TORSDOF 5
ENDMDL
