MODEL 1
REMARK VINA RESULT:      47.9      0.000      0.000
REMARK  6 active torsions:
REMARK  status: ('A' for Active; 'I' for Inactive)
REMARK    1  A    between atoms: C_6  and  C_1 
REMARK    2  A    between atoms: C_10  and  N_3 
REMARK    3  A    between atoms: O_7  and  C_6 
REMARK    4  A    between atoms: C_8  and  O_7 
REMARK    5  A    between atoms: O_11  and  C_9 
REMARK    6  A    between atoms: C_17  and  C_10 
ROOT
ATOM      1  C   UNL d   1      59.589  49.150  50.696  0.00  0.00     0.173 A 
ATOM      2  N   UNL d   1      59.638  49.630  51.379  0.00  0.00    -0.225 NA
ATOM      3  N   UNL d   1      60.248  48.652  50.725  0.00  0.00    -0.287 N 
ATOM      4  C   UNL d   1      60.689  48.810  51.392  0.00  0.00     0.083 A 
ATOM      5  C   UNL d   1      60.303  49.429  51.805  0.00  0.00     0.099 A 
ATOM      6  C   UNL d   1      61.396  48.486  51.700  0.00  0.00     0.019 A 
ATOM      7  C   UNL d   1      60.641  49.694  52.507  0.00  0.00     0.021 A 
ATOM      8  C   UNL d   1      61.696  48.772  52.391  0.00  0.00     0.002 A 
ATOM      9  C   UNL d   1      61.310  49.391  52.804  0.00  0.00     0.002 A 
ENDROOT
BRANCH   1  10
ATOM     10  C   UNL d   1      58.933  49.336  50.258  0.00  0.00     0.160 C 
BRANCH  10  11
ATOM     11  O   UNL d   1      58.165  49.274  50.592  0.00  0.00    -0.300 OA
BRANCH  11  12
ATOM     12  C   UNL d   1      57.477  49.370  50.120  0.00  0.00     0.122 A 
ATOM     13  C   UNL d   1      56.731  49.281  50.462  0.00  0.00     0.117 A 
ATOM     14  C   UNL d   1      56.036  49.372  50.011  0.00  0.00     0.026 A 
ATOM     15  C   UNL d   1      56.122  49.554  49.215  0.00  0.00     0.002 A 
ATOM     16  C   UNL d   1      56.870  49.643  48.871  0.00  0.00     0.002 A 
ATOM     17  C   UNL d   1      57.561  49.552  49.320  0.00  0.00     0.027 A 
BRANCH  13  18
ATOM     18  O   UNL d   1      56.669  49.096  51.275  0.00  0.00    -0.326 OA
ATOM     19  C   UNL d   1      56.386  49.669  51.830  0.00  0.00     0.181 C 
ENDBRANCH  13  18
ENDBRANCH  11  12
ENDBRANCH  10  11
ENDBRANCH   1  10
BRANCH   3  20
ATOM     20  C   UNL d   1      60.292  48.148  50.107  0.00  0.00     0.082 C 
BRANCH  20  21
ATOM     21  C   UNL d   1      60.703  47.433  50.146  0.00  0.00     0.019 C 
ATOM     22  C   UNL d   1      61.229  47.181  49.567  0.00  0.00     0.002 C 
ENDBRANCH  20  21
ENDBRANCH   3  20
TORSDOF 6
ENDMDL
MODEL 2
REMARK VINA RESULT:      48.6      1.208      4.418
REMARK  6 active torsions:
REMARK  status: ('A' for Active; 'I' for Inactive)
REMARK    1  A    between atoms: C_6  and  C_1 
REMARK    2  A    between atoms: C_10  and  N_3 
REMARK    3  A    between atoms: O_7  and  C_6 
REMARK    4  A    between atoms: C_8  and  O_7 
REMARK    5  A    between atoms: O_11  and  C_9 
REMARK    6  A    between atoms: C_17  and  C_10 
ROOT
ATOM      1  C   UNL d   1      58.600  49.652  50.544  0.00  0.00     0.173 A 
ATOM      2  N   UNL d   1      58.482  49.691  49.718  0.00  0.00    -0.225 NA
ATOM      3  N   UNL d   1      57.846  49.570  50.874  0.00  0.00    -0.287 N 
ATOM      4  C   UNL d   1      57.283  49.558  50.285  0.00  0.00     0.083 A 
ATOM      5  C   UNL d   1      57.685  49.634  49.554  0.00  0.00     0.099 A 
ATOM      6  C   UNL d   1      56.450  49.488  50.293  0.00  0.00     0.019 A 
ATOM      7  C   UNL d   1      57.236  49.638  48.865  0.00  0.00     0.021 A 
ATOM      8  C   UNL d   1      56.044  49.495  49.596  0.00  0.00     0.002 A 
ATOM      9  C   UNL d   1      56.446  49.572  48.865  0.00  0.00     0.002 A 
ENDROOT
BRANCH   1  10
ATOM     10  C   UNL d   1      59.387  49.707  50.728  0.00  0.00     0.160 C 
BRANCH  10  11
ATOM     11  O   UNL d   1      59.756  49.124  51.208  0.00  0.00    -0.300 OA
BRANCH  11  12
ATOM     12  C   UNL d   1      60.584  48.995  51.176  0.00  0.00     0.122 A 
ATOM     13  C   UNL d   1      61.033  49.043  51.868  0.00  0.00     0.117 A 
ATOM     14  C   UNL d   1      61.857  48.919  51.857  0.00  0.00     0.026 A 
ATOM     15  C   UNL d   1      62.205  48.747  51.134  0.00  0.00     0.002 A 
ATOM     16  C   UNL d   1      61.756  48.698  50.439  0.00  0.00     0.002 A 
ATOM     17  C   UNL d   1      60.937  48.822  50.451  0.00  0.00     0.027 A 
BRANCH  13  18
ATOM     18  O   UNL d   1      60.655  49.220  52.592  0.00  0.00    -0.326 OA
ATOM     19  C   UNL d   1      61.041  49.695  53.178  0.00  0.00     0.181 C 
ENDBRANCH  13  18
ENDBRANCH  11  12
ENDBRANCH  10  11
ENDBRANCH   1  10
BRANCH   3  20
ATOM     20  C   UNL d   1      57.853  49.523  51.672  0.00  0.00     0.082 C 
BRANCH  20  21
ATOM     21  C   UNL d   1      57.219  49.215  52.103  0.00  0.00     0.019 C 
ATOM     22  C   UNL d   1      56.727  49.675  52.575  0.00  0.00     0.002 C 
ENDBRANCH  20  21
ENDBRANCH   3  20
TORSDOF 6
ENDMDL
