MODEL 1
REMARK VINA RESULT:      -3.4      0.000      0.000
REMARK  2 active torsions:
REMARK  status: ('A' for Active; 'I' for Inactive)
REMARK    1  A    between atoms: C_5  and  C_1 
REMARK    2  A    between atoms: C_7  and  C_5 
ROOT
ATOM      1  C   UNL d   1      30.306  16.911 -24.398  0.00  0.00     0.061 A 
ATOM      2  C   UNL d   1      29.919  17.544 -24.722  0.00  0.00     0.102 A 
ATOM      3  N   UNL d   1      29.120  17.509 -24.501  0.00  0.00    -0.244 NA
ATOM      4  C   UNL d   1      29.761  16.472 -23.973  0.00  0.00     0.022 A 
ATOM      5  C   UNL d   1      29.032  16.839 -24.036  0.00  0.00     0.082 A 
ATOM      6  C   UNL d   1      29.845  15.776 -23.532  0.00  0.00     0.002 A 
ATOM      7  C   UNL d   1      28.366  16.521 -23.661  0.00  0.00     0.019 A 
ATOM      8  C   UNL d   1      29.180  15.459 -23.159  0.00  0.00     0.000 A 
ATOM      9  C   UNL d   1      28.451  15.827 -23.222  0.00  0.00     0.002 A 
ENDROOT
BRANCH   1  10
ATOM     10  C   UNL d   1      31.133  16.745 -24.492  0.00  0.00     0.215 C 
ATOM     11  O   UNL d   1      31.372  16.030 -24.815  0.00  0.00    -0.285 OA
BRANCH  10  12
ATOM     12  C   UNL d   1      31.687  17.317 -24.252  0.00  0.00     0.120 A 
ATOM     13  N   UNL d   1      31.967  17.314 -23.476  0.00  0.00    -0.241 NA
ATOM     14  C   UNL d   1      32.516  17.888 -23.252  0.00  0.00     0.099 A 
ATOM     15  C   UNL d   1      32.777  18.453 -23.796  0.00  0.00     0.021 A 
ATOM     16  C   UNL d   1      32.491  18.445 -24.561  0.00  0.00     0.003 A 
ATOM     17  C   UNL d   1      31.950  17.883 -24.792  0.00  0.00     0.022 A 
ENDBRANCH  10  12
ENDBRANCH   1  10
TORSDOF 2
ENDMDL
MODEL 2
REMARK VINA RESULT:      -3.1      0.789      3.307
REMARK  2 active torsions:
REMARK  status: ('A' for Active; 'I' for Inactive)
REMARK    1  A    between atoms: C_5  and  C_1 
REMARK    2  A    between atoms: C_7  and  C_5 
ROOT
ATOM      1  C   UNL d   1      31.189  16.876 -24.249  0.00  0.00     0.061 A 
ATOM      2  C   UNL d   1      30.840  17.467 -24.679  0.00  0.00     0.102 A 
ATOM      3  N   UNL d   1      31.295  18.157 -24.599  0.00  0.00    -0.244 NA
ATOM      4  C   UNL d   1      31.861  17.182 -23.896  0.00  0.00     0.022 A 
ATOM      5  C   UNL d   1      31.927  17.970 -24.111  0.00  0.00     0.082 A 
ATOM      6  C   UNL d   1      32.425  16.833 -23.400  0.00  0.00     0.002 A 
ATOM      7  C   UNL d   1      32.558  18.430 -23.837  0.00  0.00     0.019 A 
ATOM      8  C   UNL d   1      33.054  17.293 -23.128  0.00  0.00     0.000 A 
ATOM      9  C   UNL d   1      33.119  18.081 -23.343  0.00  0.00     0.002 A 
ENDROOT
BRANCH   1  10
ATOM     10  C   UNL d   1      30.896  16.082 -24.185  0.00  0.00     0.215 C 
ATOM     11  O   UNL d   1      31.360  15.453 -24.431  0.00  0.00    -0.285 OA
BRANCH  10  12
ATOM     12  C   UNL d   1      30.135  15.960 -23.869  0.00  0.00     0.120 A 
ATOM     13  N   UNL d   1      29.471  16.094 -24.340  0.00  0.00    -0.241 NA
ATOM     14  C   UNL d   1      28.723  15.969 -24.014  0.00  0.00     0.099 A 
ATOM     15  C   UNL d   1      28.645  15.714 -23.232  0.00  0.00     0.021 A 
ATOM     16  C   UNL d   1      29.311  15.584 -22.776  0.00  0.00     0.003 A 
ATOM     17  C   UNL d   1      30.053  15.705 -23.088  0.00  0.00     0.022 A 
ENDBRANCH  10  12
ENDBRANCH   1  10
TORSDOF 2
ENDMDL
MODEL 3
REMARK VINA RESULT:      -2.4      1.364      3.902
REMARK  2 active torsions:
REMARK  status: ('A' for Active; 'I' for Inactive)
REMARK    1  A    between atoms: C_5  and  C_1 
REMARK    2  A    between atoms: C_7  and  C_5 
ROOT
ATOM      1  C   UNL d   1      32.812  18.026 -23.831  0.00  0.00     0.061 A 
ATOM      2  C   UNL d   1      32.852  18.094 -23.025  0.00  0.00     0.102 A 
ATOM      3  N   UNL d   1      33.012  18.885 -22.833  0.00  0.00    -0.244 NA
ATOM      4  C   UNL d   1      32.945  18.766 -24.155  0.00  0.00     0.022 A 
ATOM      5  C   UNL d   1      33.068  19.295 -23.541  0.00  0.00     0.082 A 
ATOM      6  C   UNL d   1      32.969  19.022 -24.942  0.00  0.00     0.002 A 
ATOM      7  C   UNL d   1      33.217  20.094 -23.698  0.00  0.00     0.019 A 
ATOM      8  C   UNL d   1      33.118  19.819 -25.096  0.00  0.00     0.000 A 
ATOM      9  C   UNL d   1      33.241  20.347 -24.483  0.00  0.00     0.002 A 
ENDROOT
BRANCH   1  10
ATOM     10  C   UNL d   1      32.659  17.305 -24.252  0.00  0.00     0.215 C 
ATOM     11  O   UNL d   1      33.197  17.033 -24.807  0.00  0.00    -0.285 OA
BRANCH  10  12
ATOM     12  C   UNL d   1      31.957  16.887 -24.090  0.00  0.00     0.120 A 
ATOM     13  N   UNL d   1      31.266  17.074 -24.499  0.00  0.00    -0.241 NA
ATOM     14  C   UNL d   1      30.578  16.652 -24.327  0.00  0.00     0.099 A 
ATOM     15  C   UNL d   1      30.586  16.054 -23.756  0.00  0.00     0.021 A 
ATOM     16  C   UNL d   1      31.278  15.879 -23.358  0.00  0.00     0.003 A 
ATOM     17  C   UNL d   1      31.961  16.290 -23.520  0.00  0.00     0.022 A 
ENDBRANCH  10  12
ENDBRANCH   1  10
TORSDOF 2
ENDMDL
MODEL 4
REMARK VINA RESULT:      -2.1      4.285      5.868
REMARK  2 active torsions:
REMARK  status: ('A' for Active; 'I' for Inactive)
REMARK    1  A    between atoms: C_5  and  C_1 
REMARK    2  A    between atoms: C_7  and  C_5 
ROOT
ATOM      1  C   UNL d   1      33.078  21.234 -21.977  0.00  0.00     0.061 A 
ATOM      2  C   UNL d   1      33.190  21.743 -22.596  0.00  0.00     0.102 A 
ATOM      3  N   UNL d   1      33.241  21.301 -23.298  0.00  0.00    -0.244 NA
ATOM      4  C   UNL d   1      33.058  20.471 -22.276  0.00  0.00     0.022 A 
ATOM      5  C   UNL d   1      33.158  20.513 -23.088  0.00  0.00     0.082 A 
ATOM      6  C   UNL d   1      32.959  19.740 -21.901  0.00  0.00     0.002 A 
ATOM      7  C   UNL d   1      33.162  19.824 -23.547  0.00  0.00     0.019 A 
ATOM      8  C   UNL d   1      32.963  19.054 -22.360  0.00  0.00     0.000 A 
ATOM      9  C   UNL d   1      33.063  19.095 -23.172  0.00  0.00     0.002 A 
ENDROOT
BRANCH   1  10
ATOM     10  C   UNL d   1      32.998  21.465 -21.164  0.00  0.00     0.215 C 
ATOM     11  O   UNL d   1      33.235  20.954 -20.568  0.00  0.00    -0.285 OA
BRANCH  10  12
ATOM     12  C   UNL d   1      32.678  22.213 -20.990  0.00  0.00     0.120 A 
ATOM     13  N   UNL d   1      31.860  22.311 -20.962  0.00  0.00    -0.241 NA
ATOM     14  C   UNL d   1      31.556  23.059 -20.788  0.00  0.00     0.099 A 
ATOM     15  C   UNL d   1      32.065  23.694 -20.646  0.00  0.00     0.021 A 
ATOM     16  C   UNL d   1      32.874  23.584 -20.677  0.00  0.00     0.003 A 
ATOM     17  C   UNL d   1      33.183  22.851 -20.848  0.00  0.00     0.022 A 
ENDBRANCH  10  12
ENDBRANCH   1  10
TORSDOF 2
ENDMDL
MODEL 5
REMARK VINA RESULT:      -2.0      1.388      3.432
REMARK  2 active torsions:
REMARK  status: ('A' for Active; 'I' for Inactive)
REMARK    1  A    between atoms: C_5  and  C_1 
REMARK    2  A    between atoms: C_7  and  C_5 
ROOT
ATOM      1  C   UNL d   1      30.281  15.814 -23.901  0.00  0.00     0.061 A 
ATOM      2  C   UNL d   1      30.382  15.487 -23.168  0.00  0.00     0.102 A 
ATOM      3  N   UNL d   1      31.193  15.481 -22.990  0.00  0.00    -0.244 NA
ATOM      4  C   UNL d   1      31.018  16.017 -24.193  0.00  0.00     0.022 A 
ATOM      5  C   UNL d   1      31.579  15.812 -23.632  0.00  0.00     0.082 A 
ATOM      6  C   UNL d   1      31.245  16.367 -24.908  0.00  0.00     0.002 A 
ATOM      7  C   UNL d   1      32.384  15.951 -23.772  0.00  0.00     0.019 A 
ATOM      8  C   UNL d   1      32.047  16.505 -25.045  0.00  0.00     0.000 A 
ATOM      9  C   UNL d   1      32.609  16.300 -24.485  0.00  0.00     0.002 A 
ENDROOT
BRANCH   1  10
ATOM     10  C   UNL d   1      29.532  15.922 -24.287  0.00  0.00     0.215 C 
ATOM     11  O   UNL d   1      29.415  15.626 -25.043  0.00  0.00    -0.285 OA
BRANCH  10  12
ATOM     12  C   UNL d   1      28.928  16.330 -23.885  0.00  0.00     0.120 A 
ATOM     13  N   UNL d   1      28.915  17.154 -23.894  0.00  0.00    -0.241 NA
ATOM     14  C   UNL d   1      28.311  17.545 -23.491  0.00  0.00     0.099 A 
ATOM     15  C   UNL d   1      27.732  17.115 -23.086  0.00  0.00     0.021 A 
ATOM     16  C   UNL d   1      27.757  16.299 -23.084  0.00  0.00     0.003 A 
ATOM     17  C   UNL d   1      28.348  15.904 -23.479  0.00  0.00     0.022 A 
ENDBRANCH  10  12
ENDBRANCH   1  10
TORSDOF 2
ENDMDL
MODEL 6
REMARK VINA RESULT:      -1.8      2.438      4.615
REMARK  2 active torsions:
REMARK  status: ('A' for Active; 'I' for Inactive)
REMARK    1  A    between atoms: C_5  and  C_1 
REMARK    2  A    between atoms: C_7  and  C_5 
ROOT
ATOM      1  C   UNL d   1      33.068  19.479 -22.701  0.00  0.00     0.061 A 
ATOM      2  C   UNL d   1      33.204  18.909 -22.143  0.00  0.00     0.102 A 
ATOM      3  N   UNL d   1      33.241  19.271 -21.397  0.00  0.00    -0.244 NA
ATOM      4  C   UNL d   1      33.017  20.201 -22.319  0.00  0.00     0.022 A 
ATOM      5  C   UNL d   1      33.124  20.074 -21.517  0.00  0.00     0.082 A 
ATOM      6  C   UNL d   1      32.886  20.965 -22.610  0.00  0.00     0.002 A 
ATOM      7  C   UNL d   1      33.102  20.706 -20.984  0.00  0.00     0.019 A 
ATOM      8  C   UNL d   1      32.864  21.595 -22.077  0.00  0.00     0.000 A 
ATOM      9  C   UNL d   1      32.970  21.467 -21.275  0.00  0.00     0.002 A 
ENDROOT
BRANCH   1  10
ATOM     10  C   UNL d   1      32.993  19.336 -23.535  0.00  0.00     0.215 C 
ATOM     11  O   UNL d   1      33.241  19.905 -24.071  0.00  0.00    -0.285 OA
BRANCH  10  12
ATOM     12  C   UNL d   1      32.665  18.615 -23.790  0.00  0.00     0.120 A 
ATOM     13  N   UNL d   1      31.848  18.544 -23.872  0.00  0.00    -0.241 NA
ATOM     14  C   UNL d   1      31.537  17.823 -24.126  0.00  0.00     0.099 A 
ATOM     15  C   UNL d   1      32.037  17.188 -24.294  0.00  0.00     0.021 A 
ATOM     16  C   UNL d   1      32.846  17.271 -24.209  0.00  0.00     0.003 A 
ATOM     17  C   UNL d   1      33.162  17.978 -23.960  0.00  0.00     0.022 A 
ENDBRANCH  10  12
ENDBRANCH   1  10
TORSDOF 2
ENDMDL
MODEL 7
REMARK VINA RESULT:      -1.0      2.588      3.785
REMARK  2 active torsions:
REMARK  status: ('A' for Active; 'I' for Inactive)
REMARK    1  A    between atoms: C_5  and  C_1 
REMARK    2  A    between atoms: C_7  and  C_5 
ROOT
ATOM      1  C   UNL d   1      32.849  19.106 -23.442  0.00  0.00     0.061 A 
ATOM      2  C   UNL d   1      32.933  19.651 -24.035  0.00  0.00     0.102 A 
ATOM      3  N   UNL d   1      32.713  19.298 -24.753  0.00  0.00    -0.244 NA
ATOM      4  C   UNL d   1      32.577  18.409 -23.775  0.00  0.00     0.022 A 
ATOM      5  C   UNL d   1      32.494  18.527 -24.582  0.00  0.00     0.082 A 
ATOM      6  C   UNL d   1      32.395  17.676 -23.436  0.00  0.00     0.002 A 
ATOM      7  C   UNL d   1      32.226  17.915 -25.071  0.00  0.00     0.019 A 
ATOM      8  C   UNL d   1      32.128  17.067 -23.926  0.00  0.00     0.000 A 
ATOM      9  C   UNL d   1      32.045  17.185 -24.732  0.00  0.00     0.002 A 
ENDROOT
BRANCH   1  10
ATOM     10  C   UNL d   1      33.017  19.247 -22.622  0.00  0.00     0.215 C 
ATOM     11  O   UNL d   1      33.236  18.625 -22.136  0.00  0.00    -0.285 OA
BRANCH  10  12
ATOM     12  C   UNL d   1      32.955  20.024 -22.329  0.00  0.00     0.120 A 
ATOM     13  N   UNL d   1      33.241  20.654 -22.776  0.00  0.00    -0.241 NA
ATOM     14  C   UNL d   1      33.173  21.418 -22.473  0.00  0.00     0.099 A 
ATOM     15  C   UNL d   1      32.824  21.545 -21.734  0.00  0.00     0.021 A 
ATOM     16  C   UNL d   1      32.544  20.912 -21.300  0.00  0.00     0.003 A 
ATOM     17  C   UNL d   1      32.607  20.155 -21.591  0.00  0.00     0.022 A 
ENDBRANCH  10  12
ENDBRANCH   1  10
TORSDOF 2
ENDMDL
MODEL 8
REMARK VINA RESULT:      -0.8      3.854      5.707
REMARK  2 active torsions:
REMARK  status: ('A' for Active; 'I' for Inactive)
REMARK    1  A    between atoms: C_5  and  C_1 
REMARK    2  A    between atoms: C_7  and  C_5 
ROOT
ATOM      1  C   UNL d   1      32.695  21.149 -21.867  0.00  0.00     0.061 A 
ATOM      2  C   UNL d   1      32.407  20.733 -21.236  0.00  0.00     0.102 A 
ATOM      3  N   UNL d   1      32.188  21.270 -20.641  0.00  0.00    -0.244 NA
ATOM      4  C   UNL d   1      32.662  21.946 -21.682  0.00  0.00     0.022 A 
ATOM      5  C   UNL d   1      32.351  22.020 -20.928  0.00  0.00     0.082 A 
ATOM      6  C   UNL d   1      32.882  22.617 -22.114  0.00  0.00     0.002 A 
ATOM      7  C   UNL d   1      32.249  22.767 -20.586  0.00  0.00     0.019 A 
ATOM      8  C   UNL d   1      32.780  23.361 -21.772  0.00  0.00     0.000 A 
ATOM      9  C   UNL d   1      32.468  23.435 -21.018  0.00  0.00     0.002 A 
ENDROOT
BRANCH   1  10
ATOM     10  C   UNL d   1      32.978  20.805 -22.590  0.00  0.00     0.215 C 
ATOM     11  O   UNL d   1      33.241  21.288 -23.197  0.00  0.00    -0.285 OA
BRANCH  10  12
ATOM     12  C   UNL d   1      32.983  19.976 -22.664  0.00  0.00     0.120 A 
ATOM     13  N   UNL d   1      33.241  19.511 -22.034  0.00  0.00    -0.241 NA
ATOM     14  C   UNL d   1      33.240  18.690 -22.122  0.00  0.00     0.099 A 
ATOM     15  C   UNL d   1      32.984  18.345 -22.828  0.00  0.00     0.021 A 
ATOM     16  C   UNL d   1      32.731  18.818 -23.445  0.00  0.00     0.003 A 
ATOM     17  C   UNL d   1      32.728  19.628 -23.368  0.00  0.00     0.022 A 
ENDBRANCH  10  12
ENDBRANCH   1  10
TORSDOF 2
ENDMDL
