MODEL 1
REMARK VINA RESULT:      77.6      0.000      0.000
REMARK  4 active torsions:
REMARK  status: ('A' for Active; 'I' for Inactive)
REMARK    1  A    between atoms: C_10  and  N_1 
REMARK    2  A    between atoms: C_14  and  C_10 
REMARK    3  A    between atoms: O_16  and  C_12 
REMARK    4  A    between atoms: C_19  and  O_16 
ROOT
ATOM      1  N   UNL d   1     -51.626  26.132  34.525  0.00  0.00    -0.260 N 
ATOM      2  C   UNL d   1     -51.885  25.996  35.268  0.00  0.00     0.174 A 
ATOM      3  C   UNL d   1     -51.026  26.549  34.198  0.00  0.00     0.348 A 
ATOM      4  O   UNL d   1     -51.652  26.220  36.001  0.00  0.00    -0.314 OA
ATOM      5  N   UNL d   1     -50.440  27.000  34.484  0.00  0.00    -0.216 NA
ATOM      6  C   UNL d   1     -50.204  27.227  35.220  0.00  0.00     0.137 A 
ATOM      7  C   UNL d   1     -51.004  26.616  34.890  0.00  0.00     0.079 A 
ATOM      8  C   UNL d   1     -51.057  26.677  36.282  0.00  0.00     0.116 A 
ATOM      9  C   UNL d   1     -50.463  27.090  35.958  0.00  0.00     0.025 A 
ATOM     10  O   UNL d   1     -51.018  26.499  33.408  0.00  0.00    -0.245 OA
ATOM     11  C   UNL d   1     -51.148  26.667  37.081  0.00  0.00     0.122 A 
ATOM     12  C   UNL d   1     -52.523  25.539  35.445  0.00  0.00     0.055 C 
ATOM     13  C   UNL d   1     -49.952  27.498  36.421  0.00  0.00    -0.000 A 
ATOM     14  C   UNL d   1     -50.044  27.488  37.216  0.00  0.00     0.002 A 
ATOM     15  C   UNL d   1     -50.644  27.071  37.547  0.00  0.00     0.027 A 
ENDROOT
BRANCH   1  16
ATOM     16  C   UNL d   1     -51.962  25.836  33.830  0.00  0.00     0.082 C 
BRANCH  16  17
ATOM     17  C   UNL d   1     -51.924  25.019  33.673  0.00  0.00     0.017 A 
ATOM     18  C   UNL d   1     -51.199  24.669  33.473  0.00  0.00     0.002 A 
ATOM     19  C   UNL d   1     -51.162  23.852  33.316  0.00  0.00     0.000 A 
ATOM     20  C   UNL d   1     -51.851  23.388  33.360  0.00  0.00     0.000 A 
ATOM     21  C   UNL d   1     -52.575  23.748  33.562  0.00  0.00     0.000 A 
ATOM     22  C   UNL d   1     -52.609  24.557  33.717  0.00  0.00     0.002 A 
ENDBRANCH  16  17
ENDBRANCH   1  16
BRANCH  11  23
ATOM     23  O   UNL d   1     -51.767  26.237  37.419  0.00  0.00    -0.303 OA
BRANCH  23  24
ATOM     24  C   UNL d   1     -51.915  26.296  38.228  0.00  0.00     0.123 C 
ATOM     25  C   UNL d   1     -52.360  25.706  38.607  0.00  0.00     0.029 C 
ENDBRANCH  23  24
ENDBRANCH  11  23
TORSDOF 4
ENDMDL
MODEL 2
REMARK VINA RESULT:      78.0      1.380      2.427
REMARK  4 active torsions:
REMARK  status: ('A' for Active; 'I' for Inactive)
REMARK    1  A    between atoms: C_10  and  N_1 
REMARK    2  A    between atoms: C_14  and  C_10 
REMARK    3  A    between atoms: O_16  and  C_12 
REMARK    4  A    between atoms: C_19  and  O_16 
ROOT
ATOM      1  N   UNL d   1     -50.683  26.292  33.958  0.00  0.00    -0.260 N 
ATOM      2  C   UNL d   1     -49.989  26.683  34.000  0.00  0.00     0.174 A 
ATOM      3  C   UNL d   1     -51.300  26.168  34.455  0.00  0.00     0.348 A 
ATOM      4  O   UNL d   1     -49.615  27.118  34.559  0.00  0.00    -0.314 OA
ATOM      5  N   UNL d   1     -51.469  26.388  35.197  0.00  0.00    -0.216 NA
ATOM      6  C   UNL d   1     -51.095  26.826  35.761  0.00  0.00     0.137 A 
ATOM      7  C   UNL d   1     -50.820  26.560  34.773  0.00  0.00     0.079 A 
ATOM      8  C   UNL d   1     -49.793  27.337  35.309  0.00  0.00     0.116 A 
ATOM      9  C   UNL d   1     -50.403  27.215  35.801  0.00  0.00     0.025 A 
ATOM     10  O   UNL d   1     -51.868  25.725  34.127  0.00  0.00    -0.245 OA
ATOM     11  C   UNL d   1     -49.166  27.776  35.552  0.00  0.00     0.122 A 
ATOM     12  C   UNL d   1     -49.455  26.718  33.399  0.00  0.00     0.055 C 
ATOM     13  C   UNL d   1     -50.399  27.526  36.539  0.00  0.00    -0.000 A 
ATOM     14  C   UNL d   1     -49.773  27.964  36.779  0.00  0.00     0.002 A 
ATOM     15  C   UNL d   1     -49.155  28.089  36.285  0.00  0.00     0.027 A 
ENDROOT
BRANCH   1  16
ATOM     16  C   UNL d   1     -50.965  25.867  33.307  0.00  0.00     0.082 C 
BRANCH  16  17
ATOM     17  C   UNL d   1     -50.985  25.036  33.337  0.00  0.00     0.017 A 
ATOM     18  C   UNL d   1     -50.277  24.604  33.309  0.00  0.00     0.002 A 
ATOM     19  C   UNL d   1     -50.297  23.772  33.339  0.00  0.00     0.000 A 
ATOM     20  C   UNL d   1     -51.026  23.376  33.398  0.00  0.00     0.000 A 
ATOM     21  C   UNL d   1     -51.732  23.817  33.426  0.00  0.00     0.000 A 
ATOM     22  C   UNL d   1     -51.710  24.640  33.396  0.00  0.00     0.002 A 
ENDBRANCH  16  17
ENDBRANCH   1  16
BRANCH  11  23
ATOM     23  O   UNL d   1     -48.530  27.904  35.040  0.00  0.00    -0.303 OA
BRANCH  23  24
ATOM     24  C   UNL d   1     -47.851  28.282  35.314  0.00  0.00     0.123 C 
ATOM     25  C   UNL d   1     -47.827  29.112  35.343  0.00  0.00     0.029 C 
ENDBRANCH  23  24
ENDBRANCH  11  23
TORSDOF 4
ENDMDL
