MODEL 1
REMARK VINA RESULT:      -1.1      0.000      0.000
REMARK  7 active torsions:
REMARK  status: ('A' for Active; 'I' for Inactive)
REMARK    1  A    between atoms: N_3  and  S_1 
REMARK    2  A    between atoms: C_8  and  S_1 
REMARK    3  A    between atoms: S_2  and  C_7 
REMARK    4  A    between atoms: N_9  and  S_2 
REMARK    5  A    between atoms: C_4  and  N_3 
REMARK       I    between atoms: C_5  and  N_10 
REMARK    6  A    between atoms: C_16  and  C_5 
REMARK    7  A    between atoms: N_10  and  C_24 
ROOT
ATOM      1  C   UNL d   1      33.051  22.418 -19.783  0.00  0.00     0.106 A 
ATOM      2  C   UNL d   1      32.840  21.642 -19.647  0.00  0.00     0.015 A 
ATOM      3  C   UNL d   1      33.203  22.688 -20.548  0.00  0.00     0.015 A 
ATOM      4  C   UNL d   1      32.926  21.382 -21.047  0.00  0.00     0.085 A 
ATOM      5  C   UNL d   1      33.139  22.166 -21.182  0.00  0.00     0.020 A 
ATOM      6  C   UNL d   1      32.776  21.120 -20.279  0.00  0.00     0.020 A 
ENDROOT
BRANCH   4   7
ATOM      7  N   UNL d   1      32.862  20.855 -21.692  0.00  0.00    -0.208 NA
ATOM      8  C   UNL d   1      32.888  20.040 -21.567  0.00  0.00     0.279 C 
ATOM      9  O   UNL d   1      32.977  19.752 -20.797  0.00  0.00    -0.265 OA
BRANCH   8  10
ATOM     10  C   UNL d   1      32.825  19.523 -22.204  0.00  0.00     0.058 A 
ATOM     11  C   UNL d   1      32.584  18.743 -22.086  0.00  0.00     0.005 A 
ATOM     12  C   UNL d   1      32.520  18.226 -22.719  0.00  0.00     0.013 A 
ATOM     13  C   UNL d   1      32.698  18.482 -23.490  0.00  0.00     0.104 A 
ATOM     14  C   UNL d   1      32.942  19.275 -23.607  0.00  0.00     0.013 A 
ATOM     15  C   UNL d   1      33.006  19.790 -22.977  0.00  0.00     0.005 A 
BRANCH  13  16
ATOM     16  S   UNL d   1      32.633  17.957 -24.131  0.00  0.00     0.271 S 
ATOM     17  O   UNL d   1      32.599  17.316 -23.605  0.00  0.00    -0.200 OA
ATOM     18  O   UNL d   1      32.668  18.601 -24.652  0.00  0.00    -0.200 OA
BRANCH  16  19
ATOM     19  N   UNL d   1      32.569  17.435 -24.767  0.00  0.00    -0.226 N 
ATOM     20  C   UNL d   1      31.818  17.249 -25.080  0.00  0.00     0.111 C 
ATOM     21  C   UNL d   1      33.240  17.097 -25.096  0.00  0.00     0.111 C 
ENDBRANCH  16  19
ENDBRANCH  13  16
ENDBRANCH   8  10
ENDBRANCH   4   7
BRANCH   1  22
ATOM     22  S   UNL d   1      33.115  22.940 -19.150  0.00  0.00     0.300 S 
ATOM     23  O   UNL d   1      32.990  23.582 -19.657  0.00  0.00    -0.198 OA
ATOM     24  O   UNL d   1      33.241  22.313 -18.633  0.00  0.00    -0.198 OA
BRANCH  22  25
ATOM     25  N   UNL d   1      33.179  23.470 -18.513  0.00  0.00     0.034 NA
BRANCH  25  26
ATOM     26  C   UNL d   1      32.777  23.321 -17.811  0.00  0.00     0.760 A 
ATOM     27  N   UNL d   1      33.196  23.060 -17.134  0.00  0.00    -0.059 NA
ATOM     28  C   UNL d   1      32.793  22.911 -16.431  0.00  0.00     0.102 A 
ATOM     29  C   UNL d   1      33.206  22.653 -15.765  0.00  0.00     0.021 C 
ATOM     30  C   UNL d   1      31.978  23.019 -16.396  0.00  0.00     0.041 A 
ATOM     31  C   UNL d   1      31.559  23.280 -17.072  0.00  0.00     0.120 A 
ATOM     32  N   UNL d   1      31.965  23.426 -17.767  0.00  0.00    -0.057 NA
ENDBRANCH  25  26
ENDBRANCH  22  25
ENDBRANCH   1  22
TORSDOF 7
ENDMDL
MODEL 2
REMARK VINA RESULT:      -0.1      0.978      7.064
REMARK  7 active torsions:
REMARK  status: ('A' for Active; 'I' for Inactive)
REMARK    1  A    between atoms: N_3  and  S_1 
REMARK    2  A    between atoms: C_8  and  S_1 
REMARK    3  A    between atoms: S_2  and  C_7 
REMARK    4  A    between atoms: N_9  and  S_2 
REMARK    5  A    between atoms: C_4  and  N_3 
REMARK       I    between atoms: C_5  and  N_10 
REMARK    6  A    between atoms: C_16  and  C_5 
REMARK    7  A    between atoms: N_10  and  C_24 
ROOT
ATOM      1  C   UNL d   1      32.655  19.076 -23.587  0.00  0.00     0.106 A 
ATOM      2  C   UNL d   1      32.842  19.855 -23.741  0.00  0.00     0.015 A 
ATOM      3  C   UNL d   1      32.522  18.817 -22.815  0.00  0.00     0.015 A 
ATOM      4  C   UNL d   1      32.767  20.140 -22.345  0.00  0.00     0.085 A 
ATOM      5  C   UNL d   1      32.578  19.353 -22.192  0.00  0.00     0.020 A 
ATOM      6  C   UNL d   1      32.899  20.390 -23.120  0.00  0.00     0.020 A 
ENDROOT
BRANCH   4   7
ATOM      7  N   UNL d   1      32.824  20.681 -21.712  0.00  0.00    -0.208 NA
ATOM      8  C   UNL d   1      32.216  20.737 -21.156  0.00  0.00     0.279 C 
ATOM      9  O   UNL d   1      31.552  20.251 -21.234  0.00  0.00    -0.265 OA
BRANCH   8  10
ATOM     10  C   UNL d   1      32.275  21.271 -20.534  0.00  0.00     0.058 A 
ATOM     11  C   UNL d   1      31.841  21.973 -20.544  0.00  0.00     0.005 A 
ATOM     12  C   UNL d   1      31.898  22.507 -19.924  0.00  0.00     0.013 A 
ATOM     13  C   UNL d   1      32.395  22.348 -19.276  0.00  0.00     0.104 A 
ATOM     14  C   UNL d   1      32.834  21.635 -19.269  0.00  0.00     0.013 A 
ATOM     15  C   UNL d   1      32.778  21.102 -19.885  0.00  0.00     0.005 A 
BRANCH  13  16
ATOM     16  S   UNL d   1      32.451  22.891 -18.649  0.00  0.00     0.271 S 
ATOM     17  O   UNL d   1      33.239  22.665 -18.521  0.00  0.00    -0.200 OA
ATOM     18  O   UNL d   1      31.663  23.113 -18.782  0.00  0.00    -0.200 OA
BRANCH  16  19
ATOM     19  N   UNL d   1      32.507  23.430 -18.027  0.00  0.00    -0.226 N 
ATOM     20  C   UNL d   1      31.817  23.701 -17.647  0.00  0.00     0.111 C 
ATOM     21  C   UNL d   1      33.241  23.701 -17.778  0.00  0.00     0.111 C 
ENDBRANCH  16  19
ENDBRANCH  13  16
ENDBRANCH   8  10
ENDBRANCH   4   7
BRANCH   1  22
ATOM     22  S   UNL d   1      32.598  18.539 -24.208  0.00  0.00     0.300 S 
ATOM     23  O   UNL d   1      33.013  17.974 -23.769  0.00  0.00    -0.198 OA
ATOM     24  O   UNL d   1      32.185  19.090 -24.658  0.00  0.00    -0.198 OA
BRANCH  22  25
ATOM     25  N   UNL d   1      32.543  17.995 -24.834  0.00  0.00     0.034 NA
BRANCH  25  26
ATOM     26  C   UNL d   1      31.945  17.430 -24.837  0.00  0.00     0.760 A 
ATOM     27  N   UNL d   1      31.144  17.665 -24.899  0.00  0.00    -0.059 NA
ATOM     28  C   UNL d   1      30.546  17.099 -24.902  0.00  0.00     0.102 A 
ATOM     29  C   UNL d   1      29.756  17.331 -24.962  0.00  0.00     0.021 C 
ATOM     30  C   UNL d   1      30.738  16.300 -24.844  0.00  0.00     0.041 A 
ATOM     31  C   UNL d   1      31.539  16.065 -24.783  0.00  0.00     0.120 A 
ATOM     32  N   UNL d   1      32.128  16.633 -24.781  0.00  0.00    -0.057 NA
ENDBRANCH  25  26
ENDBRANCH  22  25
ENDBRANCH   1  22
TORSDOF 7
ENDMDL
