MODEL 1
REMARK VINA RESULT:      -4.7      0.000      0.000
REMARK  3 active torsions:
REMARK  status: ('A' for Active; 'I' for Inactive)
REMARK    1  A    between atoms: C_7  and  C_1 
REMARK    2  A    between atoms: N_8  and  C_7 
REMARK    3  A    between atoms: C_11  and  N_8 
ROOT
ATOM      1  C   UNL d   1      58.262   0.538  30.825  0.00  0.00     0.145 A 
ATOM      2  C   UNL d   1      59.017   0.624  31.130  0.00  0.00     0.304 A 
ATOM      3  C   UNL d   1      58.152   0.481  30.010  0.00  0.00     0.304 A 
ATOM      4  O   UNL d   1      59.669   0.655  30.623  0.00  0.00    -0.277 OA
ATOM      5  O   UNL d   1      58.803   0.512  29.503  0.00  0.00    -0.277 OA
ATOM      6  C   UNL d   1      59.562   0.599  29.813  0.00  0.00     0.203 A 
ATOM      7  O   UNL d   1      59.119   0.682  31.971  0.00  0.00    -0.259 OA
ATOM      8  O   UNL d   1      57.365   0.391  29.700  0.00  0.00    -0.259 OA
ATOM      9  C   UNL d   1      59.666   0.561  28.983  0.00  0.00     0.062 C 
ATOM     10  C   UNL d   1      60.377   0.682  29.955  0.00  0.00     0.062 C 
ENDROOT
BRANCH   1  11
ATOM     11  C   UNL d   1      57.606   0.507  31.336  0.00  0.00     0.111 C 
BRANCH  11  12
ATOM     12  N   UNL d   1      57.299  -0.223  31.568  0.00  0.00    -0.225 NA
BRANCH  12  13
ATOM     13  C   UNL d   1      56.674  -0.255  32.118  0.00  0.00     0.163 A 
ATOM     14  N   UNL d   1      56.321   0.440  32.380  0.00  0.00    -0.225 NA
ATOM     15  C   UNL d   1      55.698   0.408  32.928  0.00  0.00     0.101 A 
ATOM     16  C   UNL d   1      55.435  -0.319  33.208  0.00  0.00     0.021 A 
ATOM     17  C   UNL d   1      55.788  -1.016  32.946  0.00  0.00     0.005 A 
ATOM     18  C   UNL d   1      56.411  -0.984  32.398  0.00  0.00     0.039 A 
ENDBRANCH  12  13
ENDBRANCH  11  12
ENDBRANCH   1  11
TORSDOF 3
ENDMDL
MODEL 2
REMARK VINA RESULT:      -4.6      0.071      1.242
REMARK  3 active torsions:
REMARK  status: ('A' for Active; 'I' for Inactive)
REMARK    1  A    between atoms: C_7  and  C_1 
REMARK    2  A    between atoms: N_8  and  C_7 
REMARK    3  A    between atoms: C_11  and  N_8 
ROOT
ATOM      1  C   UNL d   1      58.267   0.561  30.874  0.00  0.00     0.145 A 
ATOM      2  C   UNL d   1      58.176   0.516  30.062  0.00  0.00     0.304 A 
ATOM      3  C   UNL d   1      59.021   0.632  31.200  0.00  0.00     0.304 A 
ATOM      4  O   UNL d   1      58.837   0.542  29.568  0.00  0.00    -0.277 OA
ATOM      5  O   UNL d   1      59.683   0.659  30.706  0.00  0.00    -0.277 OA
ATOM      6  C   UNL d   1      59.587   0.613  29.888  0.00  0.00     0.203 A 
ATOM      7  O   UNL d   1      57.394   0.442  29.737  0.00  0.00    -0.259 OA
ATOM      8  O   UNL d   1      59.108   0.679  32.045  0.00  0.00    -0.259 OA
ATOM      9  C   UNL d   1      60.413   0.681  30.011  0.00  0.00     0.062 C 
ATOM     10  C   UNL d   1      59.669   0.580  29.061  0.00  0.00     0.062 C 
ENDROOT
BRANCH   1  11
ATOM     11  C   UNL d   1      57.600   0.534  31.372  0.00  0.00     0.111 C 
BRANCH  11  12
ATOM     12  N   UNL d   1      57.210  -0.181  31.498  0.00  0.00    -0.225 NA
BRANCH  12  13
ATOM     13  C   UNL d   1      56.631  -0.239  32.095  0.00  0.00     0.163 A 
ATOM     14  N   UNL d   1      56.281   0.442  32.395  0.00  0.00    -0.225 NA
ATOM     15  C   UNL d   1      55.705   0.385  32.989  0.00  0.00     0.101 A 
ATOM     16  C   UNL d   1      55.484  -0.353  33.278  0.00  0.00     0.021 A 
ATOM     17  C   UNL d   1      55.834  -1.036  32.977  0.00  0.00     0.005 A 
ATOM     18  C   UNL d   1      56.410  -0.979  32.383  0.00  0.00     0.039 A 
ENDBRANCH  12  13
ENDBRANCH  11  12
ENDBRANCH   1  11
TORSDOF 3
ENDMDL
MODEL 3
REMARK VINA RESULT:      -4.4      1.689      4.124
REMARK  3 active torsions:
REMARK  status: ('A' for Active; 'I' for Inactive)
REMARK    1  A    between atoms: C_7  and  C_1 
REMARK    2  A    between atoms: N_8  and  C_7 
REMARK    3  A    between atoms: C_11  and  N_8 
ROOT
ATOM      1  C   UNL d   1      56.918  -0.425  32.213  0.00  0.00     0.145 A 
ATOM      2  C   UNL d   1      56.245  -0.875  32.332  0.00  0.00     0.304 A 
ATOM      3  C   UNL d   1      57.075   0.219  32.704  0.00  0.00     0.304 A 
ATOM      4  O   UNL d   1      55.722  -0.686  32.943  0.00  0.00    -0.277 OA
ATOM      5  O   UNL d   1      56.552   0.408  33.314  0.00  0.00    -0.277 OA
ATOM      6  C   UNL d   1      55.875  -0.047  33.432  0.00  0.00     0.203 A 
ATOM      7  O   UNL d   1      56.093  -1.536  31.821  0.00  0.00    -0.259 OA
ATOM      8  O   UNL d   1      57.776   0.682  32.573  0.00  0.00    -0.259 OA
ATOM      9  C   UNL d   1      55.848   0.545  34.023  0.00  0.00     0.062 C 
ATOM     10  C   UNL d   1      55.162  -0.393  33.684  0.00  0.00     0.062 C 
ENDROOT
BRANCH   1  11
ATOM     11  C   UNL d   1      57.445  -0.616  31.597  0.00  0.00     0.111 C 
BRANCH  11  12
ATOM     12  N   UNL d   1      57.323  -0.308  30.842  0.00  0.00    -0.225 NA
BRANCH  12  13
ATOM     13  C   UNL d   1      57.883  -0.449  30.241  0.00  0.00     0.163 A 
ATOM     14  N   UNL d   1      58.064  -1.220  30.021  0.00  0.00    -0.225 NA
ATOM     15  C   UNL d   1      58.621  -1.361  29.422  0.00  0.00     0.101 A 
ATOM     16  C   UNL d   1      58.992  -0.729  29.049  0.00  0.00     0.021 A 
ATOM     17  C   UNL d   1      58.811   0.045  29.268  0.00  0.00     0.005 A 
ATOM     18  C   UNL d   1      58.254   0.186  29.867  0.00  0.00     0.039 A 
ENDBRANCH  12  13
ENDBRANCH  11  12
ENDBRANCH   1  11
TORSDOF 3
ENDMDL
MODEL 4
REMARK VINA RESULT:      -3.9      1.294      1.541
REMARK  3 active torsions:
REMARK  status: ('A' for Active; 'I' for Inactive)
REMARK    1  A    between atoms: C_7  and  C_1 
REMARK    2  A    between atoms: N_8  and  C_7 
REMARK    3  A    between atoms: C_11  and  N_8 
ROOT
ATOM      1  C   UNL d   1      58.172  -0.693  30.164  0.00  0.00     0.145 A 
ATOM      2  C   UNL d   1      58.681  -0.064  30.038  0.00  0.00     0.304 A 
ATOM      3  C   UNL d   1      58.317  -1.419  29.801  0.00  0.00     0.304 A 
ATOM      4  O   UNL d   1      59.339  -0.155  29.547  0.00  0.00    -0.277 OA
ATOM      5  O   UNL d   1      58.975  -1.510  29.311  0.00  0.00    -0.277 OA
ATOM      6  C   UNL d   1      59.486  -0.875  29.185  0.00  0.00     0.203 A 
ATOM      7  O   UNL d   1      58.522   0.679  30.417  0.00  0.00    -0.259 OA
ATOM      8  O   UNL d   1      57.784  -2.068  29.938  0.00  0.00    -0.259 OA
ATOM      9  C   UNL d   1      59.804  -1.506  28.736  0.00  0.00     0.062 C 
ATOM     10  C   UNL d   1      60.089  -0.350  28.956  0.00  0.00     0.062 C 
ENDROOT
BRANCH   1  11
ATOM     11  C   UNL d   1      57.509  -0.601  30.659  0.00  0.00     0.111 C 
BRANCH  11  12
ATOM     12  N   UNL d   1      57.604  -0.599  31.478  0.00  0.00    -0.225 NA
BRANCH  12  13
ATOM     13  C   UNL d   1      56.935  -0.592  31.974  0.00  0.00     0.163 A 
ATOM     14  N   UNL d   1      56.609  -1.300  32.235  0.00  0.00    -0.225 NA
ATOM     15  C   UNL d   1      55.942  -1.293  32.729  0.00  0.00     0.101 A 
ATOM     16  C   UNL d   1      55.607  -0.578  32.957  0.00  0.00     0.021 A 
ATOM     17  C   UNL d   1      55.933   0.133  32.696  0.00  0.00     0.005 A 
ATOM     18  C   UNL d   1      56.600   0.126  32.202  0.00  0.00     0.039 A 
ENDBRANCH  12  13
ENDBRANCH  11  12
ENDBRANCH   1  11
TORSDOF 3
ENDMDL
MODEL 5
REMARK VINA RESULT:      -3.4      1.441      2.312
REMARK  3 active torsions:
REMARK  status: ('A' for Active; 'I' for Inactive)
REMARK    1  A    between atoms: C_7  and  C_1 
REMARK    2  A    between atoms: N_8  and  C_7 
REMARK    3  A    between atoms: C_11  and  N_8 
ROOT
ATOM      1  C   UNL d   1      57.179  -0.353  32.032  0.00  0.00     0.145 A 
ATOM      2  C   UNL d   1      56.914  -0.927  31.510  0.00  0.00     0.304 A 
ATOM      3  C   UNL d   1      57.851   0.089  31.851  0.00  0.00     0.304 A 
ATOM      4  O   UNL d   1      57.320  -1.063  30.804  0.00  0.00    -0.277 OA
ATOM      5  O   UNL d   1      58.257  -0.048  31.145  0.00  0.00    -0.277 OA
ATOM      6  C   UNL d   1      57.988  -0.626  30.622  0.00  0.00     0.203 A 
ATOM      7  O   UNL d   1      56.221  -1.376  31.707  0.00  0.00    -0.259 OA
ATOM      8  O   UNL d   1      58.120   0.682  32.398  0.00  0.00    -0.259 OA
ATOM      9  C   UNL d   1      58.668  -0.300  30.260  0.00  0.00     0.062 C 
ATOM     10  C   UNL d   1      57.856  -1.159  29.996  0.00  0.00     0.062 C 
ENDROOT
BRANCH   1  11
ATOM     11  C   UNL d   1      56.770  -0.215  32.744  0.00  0.00     0.111 C 
BRANCH  11  12
ATOM     12  N   UNL d   1      56.213   0.391  32.788  0.00  0.00    -0.225 NA
BRANCH  12  13
ATOM     13  C   UNL d   1      55.757   0.487  33.478  0.00  0.00     0.163 A 
ATOM     14  N   UNL d   1      56.128   0.571  34.207  0.00  0.00    -0.225 NA
ATOM     15  C   UNL d   1      55.673   0.667  34.895  0.00  0.00     0.101 A 
ATOM     16  C   UNL d   1      54.853   0.678  34.847  0.00  0.00     0.021 A 
ATOM     17  C   UNL d   1      54.479   0.594  34.117  0.00  0.00     0.005 A 
ATOM     18  C   UNL d   1      54.934   0.498  33.429  0.00  0.00     0.039 A 
ENDBRANCH  12  13
ENDBRANCH  11  12
ENDBRANCH   1  11
TORSDOF 3
ENDMDL
MODEL 6
REMARK VINA RESULT:      -3.4      2.296      4.438
REMARK  3 active torsions:
REMARK  status: ('A' for Active; 'I' for Inactive)
REMARK    1  A    between atoms: C_7  and  C_1 
REMARK    2  A    between atoms: N_8  and  C_7 
REMARK    3  A    between atoms: C_11  and  N_8 
ROOT
ATOM      1  C   UNL d   1      56.036   0.674  33.532  0.00  0.00     0.145 A 
ATOM      2  C   UNL d   1      56.467   0.678  34.228  0.00  0.00     0.304 A 
ATOM      3  C   UNL d   1      55.211   0.672  33.558  0.00  0.00     0.304 A 
ATOM      4  O   UNL d   1      56.078   0.679  34.957  0.00  0.00    -0.277 OA
ATOM      5  O   UNL d   1      54.822   0.674  34.287  0.00  0.00    -0.277 OA
ATOM      6  C   UNL d   1      55.260   0.677  34.986  0.00  0.00     0.203 A 
ATOM      7  O   UNL d   1      57.315   0.680  34.189  0.00  0.00    -0.259 OA
ATOM      8  O   UNL d   1      54.771   0.669  32.831  0.00  0.00    -0.259 OA
ATOM      9  C   UNL d   1      54.458   0.676  35.227  0.00  0.00     0.062 C 
ATOM     10  C   UNL d   1      55.540   0.680  35.769  0.00  0.00     0.062 C 
ENDROOT
BRANCH   1  11
ATOM     11  C   UNL d   1      56.428   0.673  32.797  0.00  0.00     0.111 C 
BRANCH  11  12
ATOM     12  N   UNL d   1      56.465  -0.021  32.352  0.00  0.00    -0.225 NA
BRANCH  12  13
ATOM     13  C   UNL d   1      56.944  -0.052  31.672  0.00  0.00     0.163 A 
ATOM     14  N   UNL d   1      57.150   0.641  31.281  0.00  0.00    -0.225 NA
ATOM     15  C   UNL d   1      57.627   0.610  30.603  0.00  0.00     0.101 A 
ATOM     16  C   UNL d   1      57.895  -0.115  30.322  0.00  0.00     0.021 A 
ATOM     17  C   UNL d   1      57.690  -0.812  30.713  0.00  0.00     0.005 A 
ATOM     18  C   UNL d   1      57.212  -0.780  31.391  0.00  0.00     0.039 A 
ENDBRANCH  12  13
ENDBRANCH  11  12
ENDBRANCH   1  11
TORSDOF 3
ENDMDL
MODEL 7
REMARK VINA RESULT:      -3.2      1.652      3.735
REMARK  3 active torsions:
REMARK  status: ('A' for Active; 'I' for Inactive)
REMARK    1  A    between atoms: C_7  and  C_1 
REMARK    2  A    between atoms: N_8  and  C_7 
REMARK    3  A    between atoms: C_11  and  N_8 
ROOT
ATOM      1  C   UNL d   1      57.224   0.647  32.175  0.00  0.00     0.145 A 
ATOM      2  C   UNL d   1      57.715   0.667  32.829  0.00  0.00     0.304 A 
ATOM      3  C   UNL d   1      56.405   0.634  32.275  0.00  0.00     0.304 A 
ATOM      4  O   UNL d   1      57.393   0.675  33.589  0.00  0.00    -0.277 OA
ATOM      5  O   UNL d   1      56.083   0.642  33.035  0.00  0.00    -0.277 OA
ATOM      6  C   UNL d   1      56.581   0.662  33.692  0.00  0.00     0.203 A 
ATOM      7  O   UNL d   1      58.557   0.680  32.714  0.00  0.00    -0.259 OA
ATOM      8  O   UNL d   1      55.901   0.613  31.590  0.00  0.00    -0.259 OA
ATOM      9  C   UNL d   1      55.804   0.654  34.004  0.00  0.00     0.062 C 
ATOM     10  C   UNL d   1      56.931   0.682  34.447  0.00  0.00     0.062 C 
ENDROOT
BRANCH   1  11
ATOM     11  C   UNL d   1      57.548   0.639  31.408  0.00  0.00     0.111 C 
BRANCH  11  12
ATOM     12  N   UNL d   1      57.438  -0.018  30.921  0.00  0.00    -0.225 NA
BRANCH  12  13
ATOM     13  C   UNL d   1      57.855  -0.077  30.202  0.00  0.00     0.163 A 
ATOM     14  N   UNL d   1      57.813   0.532  29.652  0.00  0.00    -0.225 NA
ATOM     15  C   UNL d   1      58.229   0.473  28.936  0.00  0.00     0.101 A 
ATOM     16  C   UNL d   1      58.682  -0.194  28.777  0.00  0.00     0.021 A 
ATOM     17  C   UNL d   1      58.724  -0.806  29.328  0.00  0.00     0.005 A 
ATOM     18  C   UNL d   1      58.309  -0.747  30.044  0.00  0.00     0.039 A 
ENDBRANCH  12  13
ENDBRANCH  11  12
ENDBRANCH   1  11
TORSDOF 3
ENDMDL
