MODEL 1
REMARK VINA RESULT:       8.4      0.000      0.000
REMARK  9 active torsions:
REMARK  status: ('A' for Active; 'I' for Inactive)
REMARK    1  A    between atoms: N_4  and  C_1 
REMARK       I    between atoms: C_7  and  N_4 
REMARK    2  A    between atoms: C_13  and  C_7 
REMARK    3  A    between atoms: C_8  and  C_14 
REMARK    4  A    between atoms: O_12  and  C_8 
REMARK    5  A    between atoms: S_11  and  C_13 
REMARK    6  A    between atoms: C_14  and  S_11 
REMARK    7  A    between atoms: C_16  and  O_12 
REMARK    8  A    between atoms: C_17  and  C_16 
REMARK    9  A    between atoms: C_18  and  C_17 
ROOT
ATOM      1  C   UNL d   1      46.114 -17.626  43.705  0.00  0.00     0.127 C 
ENDROOT
BRANCH   1   2
ATOM      2  S   UNL d   1      45.734 -16.919  43.896  0.00  0.00    -0.089 SA
BRANCH   2   3
ATOM      3  C   UNL d   1      45.789 -16.616  44.661  0.00  0.00     0.103 C 
BRANCH   3   4
ATOM      4  C   UNL d   1      45.432 -15.900  44.849  0.00  0.00     0.307 C 
ATOM      5  O   UNL d   1      44.618 -15.856  44.939  0.00  0.00    -0.258 OA
BRANCH   4   6
ATOM      6  O   UNL d   1      45.895 -15.232  44.944  0.00  0.00    -0.271 OA
BRANCH   6   7
ATOM      7  C   UNL d   1      45.551 -14.482  44.932  0.00  0.00     0.126 C 
BRANCH   7   8
ATOM      8  C   UNL d   1      46.030 -13.810  44.940  0.00  0.00     0.027 C 
BRANCH   8   9
ATOM      9  C   UNL d   1      45.727 -13.086  44.684  0.00  0.00     0.002 C 
ATOM     10  C   UNL d   1      46.181 -12.412  44.720  0.00  0.00     0.000 C 
ENDBRANCH   8   9
ENDBRANCH   7   8
ENDBRANCH   6   7
ENDBRANCH   4   6
ENDBRANCH   3   4
ENDBRANCH   2   3
ENDBRANCH   1   2
BRANCH   1  11
ATOM     11  C   UNL d   1      46.454 -17.725  42.959  0.00  0.00     0.275 C 
ATOM     12  N   UNL d   1      46.624 -18.476  42.687  0.00  0.00    -0.187 NA
ATOM     13  O   UNL d   1      46.620 -17.065  42.492  0.00  0.00    -0.266 OA
BRANCH  12  14
ATOM     14  C   UNL d   1      46.457 -19.136  43.154  0.00  0.00     0.194 A 
ATOM     15  N   UNL d   1      46.069 -19.818  42.903  0.00  0.00    -0.107 NA
ATOM     16  O   UNL d   1      46.022 -20.330  43.548  0.00  0.00    -0.210 OA
ATOM     17  C   UNL d   1      46.375 -19.978  44.194  0.00  0.00     0.128 A 
ATOM     18  C   UNL d   1      46.647 -19.235  43.955  0.00  0.00     0.068 A 
ATOM     19  C   UNL d   1      46.444 -20.312  44.954  0.00  0.00     0.029 C 
ENDBRANCH  12  14
ENDBRANCH   1  11
TORSDOF 9
ENDMDL
MODEL 2
REMARK VINA RESULT:       9.1      2.070      5.221
REMARK  9 active torsions:
REMARK  status: ('A' for Active; 'I' for Inactive)
REMARK    1  A    between atoms: N_4  and  C_1 
REMARK       I    between atoms: C_7  and  N_4 
REMARK    2  A    between atoms: C_13  and  C_7 
REMARK    3  A    between atoms: C_8  and  C_14 
REMARK    4  A    between atoms: O_12  and  C_8 
REMARK    5  A    between atoms: S_11  and  C_13 
REMARK    6  A    between atoms: C_14  and  S_11 
REMARK    7  A    between atoms: C_16  and  O_12 
REMARK    8  A    between atoms: C_17  and  C_16 
REMARK    9  A    between atoms: C_18  and  C_17 
ROOT
ATOM      1  C   UNL d   1      45.491 -15.614  44.496  0.00  0.00     0.127 C 
ENDROOT
BRANCH   1   2
ATOM      2  S   UNL d   1      45.733 -16.397  44.593  0.00  0.00    -0.089 SA
BRANCH   2   3
ATOM      3  C   UNL d   1      46.285 -16.725  44.075  0.00  0.00     0.103 C 
BRANCH   3   4
ATOM      4  C   UNL d   1      46.383 -17.539  44.038  0.00  0.00     0.307 C 
ATOM      5  O   UNL d   1      46.297 -17.996  44.713  0.00  0.00    -0.258 OA
BRANCH   4   6
ATOM      6  O   UNL d   1      46.568 -17.890  43.322  0.00  0.00    -0.271 OA
BRANCH   6   7
ATOM      7  C   UNL d   1      46.205 -18.596  43.098  0.00  0.00     0.126 C 
BRANCH   7   8
ATOM      8  C   UNL d   1      46.461 -18.995  42.423  0.00  0.00     0.027 C 
BRANCH   8   9
ATOM      9  C   UNL d   1      46.287 -19.796  42.327  0.00  0.00     0.002 C 
ATOM     10  C   UNL d   1      46.273 -20.296  42.968  0.00  0.00     0.000 C 
ENDBRANCH   8   9
ENDBRANCH   7   8
ENDBRANCH   6   7
ENDBRANCH   4   6
ENDBRANCH   3   4
ENDBRANCH   2   3
ENDBRANCH   1   2
BRANCH   1  11
ATOM     11  C   UNL d   1      44.736 -15.382  44.736  0.00  0.00     0.275 C 
ATOM     12  N   UNL d   1      44.543 -14.588  44.756  0.00  0.00    -0.187 NA
ATOM     13  O   UNL d   1      44.180 -15.951  44.954  0.00  0.00    -0.266 OA
BRANCH  12  14
ATOM     14  C   UNL d   1      45.099 -14.019  44.537  0.00  0.00     0.194 A 
ATOM     15  N   UNL d   1      45.859 -13.945  44.847  0.00  0.00    -0.107 NA
ATOM     16  O   UNL d   1      46.220 -13.306  44.472  0.00  0.00    -0.210 OA
ATOM     17  C   UNL d   1      45.699 -12.981  43.936  0.00  0.00     0.128 A 
ATOM     18  C   UNL d   1      44.999 -13.421  43.972  0.00  0.00     0.068 A 
ATOM     19  C   UNL d   1      45.848 -12.326  43.444  0.00  0.00     0.029 C 
ENDBRANCH  12  14
ENDBRANCH   1  11
TORSDOF 9
ENDMDL
MODEL 3
REMARK VINA RESULT:      11.0      2.872      5.645
REMARK  9 active torsions:
REMARK  status: ('A' for Active; 'I' for Inactive)
REMARK    1  A    between atoms: N_4  and  C_1 
REMARK       I    between atoms: C_7  and  N_4 
REMARK    2  A    between atoms: C_13  and  C_7 
REMARK    3  A    between atoms: C_8  and  C_14 
REMARK    4  A    between atoms: O_12  and  C_8 
REMARK    5  A    between atoms: S_11  and  C_13 
REMARK    6  A    between atoms: C_14  and  S_11 
REMARK    7  A    between atoms: C_16  and  O_12 
REMARK    8  A    between atoms: C_17  and  C_16 
REMARK    9  A    between atoms: C_18  and  C_17 
ROOT
ATOM      1  C   UNL d   1      45.653 -13.468  44.198  0.00  0.00     0.127 C 
ENDROOT
BRANCH   1   2
ATOM      2  S   UNL d   1      45.424 -13.973  44.809  0.00  0.00    -0.089 SA
BRANCH   2   3
ATOM      3  C   UNL d   1      45.832 -14.679  44.935  0.00  0.00     0.103 C 
BRANCH   3   4
ATOM      4  C   UNL d   1      45.551 -15.381  44.612  0.00  0.00     0.307 C 
ATOM      5  O   UNL d   1      44.811 -15.406  44.261  0.00  0.00    -0.258 OA
BRANCH   4   6
ATOM      6  O   UNL d   1      46.016 -16.053  44.644  0.00  0.00    -0.271 OA
BRANCH   6   7
ATOM      7  C   UNL d   1      45.956 -16.629  44.056  0.00  0.00     0.126 C 
BRANCH   7   8
ATOM      8  C   UNL d   1      46.292 -17.374  44.174  0.00  0.00     0.027 C 
BRANCH   8   9
ATOM      9  C   UNL d   1      45.918 -18.046  43.875  0.00  0.00     0.002 C 
ATOM     10  C   UNL d   1      46.330 -18.742  43.784  0.00  0.00     0.000 C 
ENDBRANCH   8   9
ENDBRANCH   7   8
ENDBRANCH   6   7
ENDBRANCH   4   6
ENDBRANCH   3   4
ENDBRANCH   2   3
ENDBRANCH   1   2
BRANCH   1  11
ATOM     11  C   UNL d   1      46.057 -12.769  44.367  0.00  0.00     0.275 C 
ATOM     12  N   UNL d   1      45.875 -12.085  43.959  0.00  0.00    -0.187 NA
ATOM     13  O   UNL d   1      46.643 -12.763  44.948  0.00  0.00    -0.266 OA
BRANCH  12  14
ATOM     14  C   UNL d   1      45.289 -12.092  43.378  0.00  0.00     0.194 A 
ATOM     15  N   UNL d   1      44.476 -12.099  43.514  0.00  0.00    -0.107 NA
ATOM     16  O   UNL d   1      44.101 -12.103  42.780  0.00  0.00    -0.210 OA
ATOM     17  C   UNL d   1      44.664 -12.099  42.191  0.00  0.00     0.128 A 
ATOM     18  C   UNL d   1      45.406 -12.092  42.557  0.00  0.00     0.068 A 
ATOM     19  C   UNL d   1      44.515 -12.102  41.372  0.00  0.00     0.029 C 
ENDBRANCH  12  14
ENDBRANCH   1  11
TORSDOF 9
ENDMDL
