MODEL 1
REMARK VINA RESULT:      -7.9      0.000      0.000
REMARK  6 active torsions:
REMARK  status: ('A' for Active; 'I' for Inactive)
REMARK    1  A    between atoms: C_10  and  C_2 
REMARK    2  A    between atoms: S_12  and  C_7 
REMARK    3  A    between atoms: C_11  and  C_14 
REMARK    4  A    between atoms: O_15  and  C_11 
REMARK    5  A    between atoms: C_14  and  S_12 
REMARK    6  A    between atoms: C_18  and  O_15 
ROOT
ATOM      1  N   UNL d   1     -48.044  13.737  22.746  0.00  0.00    -0.191 N 
ATOM      2  C   UNL d   1     -48.794  13.932  22.480  0.00  0.00     0.187 A 
ATOM      3  N   UNL d   1     -48.783  14.721  22.255  0.00  0.00    -0.127 NA
ATOM      4  C   UNL d   1     -47.559  14.395  22.691  0.00  0.00     0.187 A 
ATOM      5  N   UNL d   1     -47.728  13.018  23.041  0.00  0.00    -0.156 NA
ATOM      6  N   UNL d   1     -48.022  15.015  22.383  0.00  0.00    -0.127 NA
ATOM      7  C   UNL d   1     -46.937  12.978  23.274  0.00  0.00     0.131 A 
ATOM      8  C   UNL d   1     -46.769  14.355  22.923  0.00  0.00     0.043 A 
ATOM      9  C   UNL d   1     -46.458  13.648  23.214  0.00  0.00     0.031 A 
ENDROOT
BRANCH   7  10
ATOM     10  S   UNL d   1     -46.626  12.271  23.565  0.00  0.00    -0.060 SA
BRANCH  10  11
ATOM     11  C   UNL d   1     -45.932  11.965  23.244  0.00  0.00     0.105 C 
BRANCH  11  12
ATOM     12  C   UNL d   1     -45.676  11.222  23.461  0.00  0.00     0.307 C 
ATOM     13  O   UNL d   1     -46.221  10.646  23.693  0.00  0.00    -0.258 OA
BRANCH  12  14
ATOM     14  O   UNL d   1     -44.872  11.050  23.449  0.00  0.00    -0.271 OA
BRANCH  14  15
ATOM     15  C   UNL d   1     -44.603  10.302  23.696  0.00  0.00     0.126 C 
ATOM     16  C   UNL d   1     -43.804  10.142  23.697  0.00  0.00     0.029 C 
ENDBRANCH  14  15
ENDBRANCH  12  14
ENDBRANCH  11  12
ENDBRANCH  10  11
ENDBRANCH   7  10
BRANCH   2  17
ATOM     17  C   UNL d   1     -49.444  13.435  22.442  0.00  0.00     0.038 A 
ATOM     18  C   UNL d   1     -50.031  13.474  23.012  0.00  0.00     0.003 A 
ATOM     19  C   UNL d   1     -50.688  12.973  22.976  0.00  0.00     0.000 A 
ATOM     20  C   UNL d   1     -50.748  12.429  22.355  0.00  0.00     0.000 A 
ATOM     21  C   UNL d   1     -50.160  12.385  21.779  0.00  0.00     0.000 A 
ATOM     22  C   UNL d   1     -49.504  12.890  21.821  0.00  0.00     0.003 A 
ENDBRANCH   2  17
TORSDOF 6
ENDMDL
MODEL 2
REMARK VINA RESULT:      -7.7      1.786      2.496
REMARK  6 active torsions:
REMARK  status: ('A' for Active; 'I' for Inactive)
REMARK    1  A    between atoms: C_10  and  C_2 
REMARK    2  A    between atoms: S_12  and  C_7 
REMARK    3  A    between atoms: C_11  and  C_14 
REMARK    4  A    between atoms: O_15  and  C_11 
REMARK    5  A    between atoms: C_14  and  S_12 
REMARK    6  A    between atoms: C_18  and  O_15 
ROOT
ATOM      1  N   UNL d   1     -49.164  12.460  23.340  0.00  0.00    -0.191 N 
ATOM      2  C   UNL d   1     -49.951  12.666  23.239  0.00  0.00     0.187 A 
ATOM      3  N   UNL d   1     -50.406  12.003  23.397  0.00  0.00    -0.127 NA
ATOM      4  C   UNL d   1     -49.118  11.672  23.559  0.00  0.00     0.187 A 
ATOM      5  N   UNL d   1     -48.457  12.904  23.256  0.00  0.00    -0.156 NA
ATOM      6  N   UNL d   1     -49.898  11.382  23.596  0.00  0.00    -0.127 NA
ATOM      7  C   UNL d   1     -47.726  12.549  23.395  0.00  0.00     0.131 A 
ATOM      8  C   UNL d   1     -48.387  11.317  23.698  0.00  0.00     0.043 A 
ATOM      9  C   UNL d   1     -47.691  11.754  23.616  0.00  0.00     0.031 A 
ENDROOT
BRANCH   7  10
ATOM     10  S   UNL d   1     -47.030  12.987  23.312  0.00  0.00    -0.060 SA
BRANCH  10  11
ATOM     11  C   UNL d   1     -46.524  12.837  22.680  0.00  0.00     0.105 C 
BRANCH  11  12
ATOM     12  C   UNL d   1     -45.830  13.259  22.606  0.00  0.00     0.307 C 
ATOM     13  O   UNL d   1     -45.829  14.079  22.709  0.00  0.00    -0.258 OA
BRANCH  12  14
ATOM     14  O   UNL d   1     -45.132  12.863  22.428  0.00  0.00    -0.271 OA
BRANCH  14  15
ATOM     15  C   UNL d   1     -44.626  13.159  21.837  0.00  0.00     0.126 C 
ATOM     16  C   UNL d   1     -43.972  12.727  21.614  0.00  0.00     0.029 C 
ENDBRANCH  14  15
ENDBRANCH  12  14
ENDBRANCH  11  12
ENDBRANCH  10  11
ENDBRANCH   7  10
BRANCH   2  17
ATOM     17  C   UNL d   1     -50.240  13.401  23.021  0.00  0.00     0.038 A 
ATOM     18  C   UNL d   1     -50.355  13.584  22.230  0.00  0.00     0.003 A 
ATOM     19  C   UNL d   1     -50.646  14.325  22.007  0.00  0.00     0.000 A 
ATOM     20  C   UNL d   1     -50.822  14.883  22.592  0.00  0.00     0.000 A 
ATOM     21  C   UNL d   1     -50.707  14.704  23.390  0.00  0.00     0.000 A 
ATOM     22  C   UNL d   1     -50.415  13.960  23.606  0.00  0.00     0.003 A 
ENDBRANCH   2  17
TORSDOF 6
ENDMDL
MODEL 3
REMARK VINA RESULT:      -7.6      1.459      1.876
REMARK  6 active torsions:
REMARK  status: ('A' for Active; 'I' for Inactive)
REMARK    1  A    between atoms: C_10  and  C_2 
REMARK    2  A    between atoms: S_12  and  C_7 
REMARK    3  A    between atoms: C_11  and  C_14 
REMARK    4  A    between atoms: O_15  and  C_11 
REMARK    5  A    between atoms: C_14  and  S_12 
REMARK    6  A    between atoms: C_18  and  O_15 
ROOT
ATOM      1  N   UNL d   1     -48.937  14.345  22.599  0.00  0.00    -0.191 N 
ATOM      2  C   UNL d   1     -49.711  14.078  22.568  0.00  0.00     0.187 A 
ATOM      3  N   UNL d   1     -50.182  14.704  22.323  0.00  0.00    -0.127 NA
ATOM      4  C   UNL d   1     -48.915  15.133  22.376  0.00  0.00     0.187 A 
ATOM      5  N   UNL d   1     -48.223  13.958  22.810  0.00  0.00    -0.156 NA
ATOM      6  N   UNL d   1     -49.697  15.361  22.202  0.00  0.00    -0.127 NA
ATOM      7  C   UNL d   1     -47.508  14.369  22.791  0.00  0.00     0.131 A 
ATOM      8  C   UNL d   1     -48.199  15.544  22.358  0.00  0.00     0.043 A 
ATOM      9  C   UNL d   1     -47.497  15.162  22.565  0.00  0.00     0.031 A 
ENDROOT
BRANCH   7  10
ATOM     10  S   UNL d   1     -46.805  13.987  22.999  0.00  0.00    -0.060 SA
BRANCH  10  11
ATOM     11  C   UNL d   1     -46.358  13.608  22.420  0.00  0.00     0.105 C 
BRANCH  11  12
ATOM     12  C   UNL d   1     -45.676  13.213  22.627  0.00  0.00     0.307 C 
ATOM     13  O   UNL d   1     -45.689  12.651  23.233  0.00  0.00    -0.258 OA
BRANCH  12  14
ATOM     14  O   UNL d   1     -44.976  13.376  22.229  0.00  0.00    -0.271 OA
BRANCH  14  15
ATOM     15  C   UNL d   1     -44.570  12.766  21.835  0.00  0.00     0.126 C 
ATOM     16  C   UNL d   1     -43.855  12.923  21.476  0.00  0.00     0.029 C 
ENDBRANCH  14  15
ENDBRANCH  12  14
ENDBRANCH  11  12
ENDBRANCH  10  11
ENDBRANCH   7  10
BRANCH   2  17
ATOM     17  C   UNL d   1     -49.976  13.324  22.747  0.00  0.00     0.038 A 
ATOM     18  C   UNL d   1     -49.974  12.736  22.176  0.00  0.00     0.003 A 
ATOM     19  C   UNL d   1     -50.241  11.974  22.355  0.00  0.00     0.000 A 
ATOM     20  C   UNL d   1     -50.512  11.810  23.120  0.00  0.00     0.000 A 
ATOM     21  C   UNL d   1     -50.517  12.398  23.698  0.00  0.00     0.000 A 
ATOM     22  C   UNL d   1     -50.247  13.160  23.512  0.00  0.00     0.003 A 
ENDBRANCH   2  17
TORSDOF 6
ENDMDL
MODEL 4
REMARK VINA RESULT:      -5.9      2.519      4.625
REMARK  6 active torsions:
REMARK  status: ('A' for Active; 'I' for Inactive)
REMARK    1  A    between atoms: C_10  and  C_2 
REMARK    2  A    between atoms: S_12  and  C_7 
REMARK    3  A    between atoms: C_11  and  C_14 
REMARK    4  A    between atoms: O_15  and  C_11 
REMARK    5  A    between atoms: C_14  and  S_12 
REMARK    6  A    between atoms: C_18  and  O_15 
ROOT
ATOM      1  N   UNL d   1     -47.615  12.056  23.263  0.00  0.00    -0.191 N 
ATOM      2  C   UNL d   1     -46.811  12.212  23.237  0.00  0.00     0.187 A 
ATOM      3  N   UNL d   1     -46.418  11.544  23.505  0.00  0.00    -0.127 NA
ATOM      4  C   UNL d   1     -47.733  11.297  23.545  0.00  0.00     0.187 A 
ATOM      5  N   UNL d   1     -48.279  12.526  23.059  0.00  0.00    -0.156 NA
ATOM      6  N   UNL d   1     -46.982  10.972  23.698  0.00  0.00    -0.127 NA
ATOM      7  C   UNL d   1     -49.043  12.223  23.142  0.00  0.00     0.131 A 
ATOM      8  C   UNL d   1     -48.496  10.993  23.628  0.00  0.00     0.043 A 
ATOM      9  C   UNL d   1     -49.150  11.456  23.427  0.00  0.00     0.031 A 
ENDROOT
BRANCH   7  10
ATOM     10  S   UNL d   1     -49.696  12.686  22.941  0.00  0.00    -0.060 SA
BRANCH  10  11
ATOM     11  C   UNL d   1     -49.632  13.507  22.937  0.00  0.00     0.105 C 
BRANCH  11  12
ATOM     12  C   UNL d   1     -50.281  13.966  22.753  0.00  0.00     0.307 C 
ATOM     13  O   UNL d   1     -50.709  13.821  22.061  0.00  0.00    -0.258 OA
BRANCH  12  14
ATOM     14  O   UNL d   1     -50.506  14.572  23.259  0.00  0.00    -0.271 OA
BRANCH  14  15
ATOM     15  C   UNL d   1     -50.163  15.326  23.183  0.00  0.00     0.126 C 
ATOM     16  C   UNL d   1     -50.379  15.922  23.695  0.00  0.00     0.029 C 
ENDBRANCH  14  15
ENDBRANCH  12  14
ENDBRANCH  11  12
ENDBRANCH  10  11
ENDBRANCH   7  10
BRANCH   2  17
ATOM     17  C   UNL d   1     -46.455  12.907  22.990  0.00  0.00     0.038 A 
ATOM     18  C   UNL d   1     -46.020  12.927  22.296  0.00  0.00     0.003 A 
ATOM     19  C   UNL d   1     -45.659  13.627  22.044  0.00  0.00     0.000 A 
ATOM     20  C   UNL d   1     -45.743  14.312  22.501  0.00  0.00     0.000 A 
ATOM     21  C   UNL d   1     -46.180  14.298  23.201  0.00  0.00     0.000 A 
ATOM     22  C   UNL d   1     -46.538  13.592  23.447  0.00  0.00     0.003 A 
ENDBRANCH   2  17
TORSDOF 6
ENDMDL
MODEL 5
REMARK VINA RESULT:      -5.0      8.462      9.664
REMARK  6 active torsions:
REMARK  status: ('A' for Active; 'I' for Inactive)
REMARK    1  A    between atoms: C_10  and  C_2 
REMARK    2  A    between atoms: S_12  and  C_7 
REMARK    3  A    between atoms: C_11  and  C_14 
REMARK    4  A    between atoms: O_15  and  C_11 
REMARK    5  A    between atoms: C_14  and  S_12 
REMARK    6  A    between atoms: C_18  and  O_15 
ROOT
ATOM      1  N   UNL d   1     -40.152  15.355  20.146  0.00  0.00    -0.191 N 
ATOM      2  C   UNL d   1     -40.243  15.266  20.956  0.00  0.00     0.187 A 
ATOM      3  N   UNL d   1     -40.956  15.613  21.167  0.00  0.00    -0.127 NA
ATOM      4  C   UNL d   1     -40.800  15.756  19.845  0.00  0.00     0.187 A 
ATOM      5  N   UNL d   1     -39.539  15.114  19.626  0.00  0.00    -0.156 NA
ATOM      6  N   UNL d   1     -41.307  15.919  20.485  0.00  0.00    -0.127 NA
ATOM      7  C   UNL d   1     -39.592  15.281  18.820  0.00  0.00     0.131 A 
ATOM      8  C   UNL d   1     -40.852  15.922  19.038  0.00  0.00     0.043 A 
ATOM      9  C   UNL d   1     -40.249  15.685  18.526  0.00  0.00     0.031 A 
ENDROOT
BRANCH   7  10
ATOM     10  S   UNL d   1     -38.989  15.044  18.307  0.00  0.00    -0.060 SA
BRANCH  10  11
ATOM     11  C   UNL d   1     -39.153  14.517  17.696  0.00  0.00     0.105 C 
BRANCH  11  12
ATOM     12  C   UNL d   1     -38.543  14.149  17.300  0.00  0.00     0.307 C 
ATOM     13  O   UNL d   1     -37.943  13.769  17.723  0.00  0.00    -0.258 OA
BRANCH  12  14
ATOM     14  O   UNL d   1     -38.528  14.158  16.479  0.00  0.00    -0.271 OA
BRANCH  14  15
ATOM     15  C   UNL d   1     -37.982  13.683  16.068  0.00  0.00     0.126 C 
ATOM     16  C   UNL d   1     -37.983  13.680  15.253  0.00  0.00     0.029 C 
ENDBRANCH  14  15
ENDBRANCH  12  14
ENDBRANCH  11  12
ENDBRANCH  10  11
ENDBRANCH   7  10
BRANCH   2  17
ATOM     17  C   UNL d   1     -39.722  14.897  21.470  0.00  0.00     0.038 A 
ATOM     18  C   UNL d   1     -39.768  14.090  21.599  0.00  0.00     0.003 A 
ATOM     19  C   UNL d   1     -39.243  13.715  22.117  0.00  0.00     0.000 A 
ATOM     20  C   UNL d   1     -38.668  14.166  22.505  0.00  0.00     0.000 A 
ATOM     21  C   UNL d   1     -38.617  14.980  22.378  0.00  0.00     0.000 A 
ATOM     22  C   UNL d   1     -39.147  15.348  21.858  0.00  0.00     0.003 A 
ENDBRANCH   2  17
TORSDOF 6
ENDMDL
