MODEL 1
REMARK VINA RESULT:      -8.2      0.000      0.000
REMARK  5 active torsions:
REMARK  status: ('A' for Active; 'I' for Inactive)
REMARK       I    between atoms: N_2  and  C_1 
REMARK    1  A    between atoms: C_8  and  C_1 
REMARK    2  A    between atoms: C_4  and  N_2 
REMARK    3  A    between atoms: C_3  and  C_4 
REMARK    4  A    between atoms: C_5  and  C_3 
REMARK    5  A    between atoms: N_6  and  C_3 
ROOT
ATOM      1  C   UNL d   1      53.820  33.191  54.005  0.00  0.00     0.088 C 
ENDROOT
BRANCH   1   2
ATOM      2  C   UNL d   1      54.003  32.512  53.580  0.00  0.00     0.101 C 
ATOM      3  C   UNL d   1      54.599  32.531  53.021  0.00  0.00     0.022 C 
BRANCH   2   4
ATOM      4  N   UNL d   1      53.585  31.820  53.723  0.00  0.00    -0.206 NA
ATOM      5  C   UNL d   1      53.824  31.112  53.367  0.00  0.00     0.279 C 
ATOM      6  O   UNL d   1      54.480  31.109  52.873  0.00  0.00    -0.265 OA
BRANCH   5   7
ATOM      7  C   UNL d   1      53.406  30.421  53.510  0.00  0.00     0.058 A 
ATOM      8  C   UNL d   1      53.626  29.911  54.126  0.00  0.00     0.005 A 
ATOM      9  C   UNL d   1      53.201  29.213  54.268  0.00  0.00     0.000 A 
ATOM     10  C   UNL d   1      53.425  28.719  54.877  0.00  0.00     0.000 C 
ATOM     11  C   UNL d   1      52.552  29.031  53.785  0.00  0.00     0.000 A 
ATOM     12  C   UNL d   1      52.326  29.535  53.167  0.00  0.00     0.000 A 
ATOM     13  C   UNL d   1      52.753  30.224  53.034  0.00  0.00     0.005 A 
ENDBRANCH   5   7
ENDBRANCH   2   4
ENDBRANCH   1   2
BRANCH   1  14
ATOM     14  C   UNL d   1      54.272  33.404  54.658  0.00  0.00     0.047 A 
ATOM     15  S   UNL d   1      54.980  33.832  54.649  0.00  0.00    -0.085 SA
ATOM     16  C   UNL d   1      55.239  33.916  55.424  0.00  0.00     0.035 A 
ATOM     17  C   UNL d   1      54.699  33.544  55.926  0.00  0.00     0.007 A 
ATOM     18  C   UNL d   1      54.095  33.223  55.453  0.00  0.00     0.009 A 
ENDBRANCH   1  14
BRANCH   1  19
ATOM     19  N   UNL d   1      53.180  33.665  53.779  0.00  0.00    -0.299 N 
ATOM     20  C   UNL d   1      53.282  34.252  53.222  0.00  0.00     0.107 A 
ATOM     21  C   UNL d   1      52.652  34.726  52.992  0.00  0.00     0.142 A 
ATOM     22  O   UNL d   1      51.899  34.614  53.324  0.00  0.00    -0.300 OA
ATOM     23  C   UNL d   1      51.798  34.016  53.891  0.00  0.00     0.142 A 
ATOM     24  C   UNL d   1      52.436  33.544  54.116  0.00  0.00     0.107 A 
ENDBRANCH   1  19
TORSDOF 5
ENDMDL
MODEL 2
REMARK VINA RESULT:      -8.0      1.349      2.244
REMARK  5 active torsions:
REMARK  status: ('A' for Active; 'I' for Inactive)
REMARK       I    between atoms: N_2  and  C_1 
REMARK    1  A    between atoms: C_8  and  C_1 
REMARK    2  A    between atoms: C_4  and  N_2 
REMARK    3  A    between atoms: C_3  and  C_4 
REMARK    4  A    between atoms: C_5  and  C_3 
REMARK    5  A    between atoms: N_6  and  C_3 
ROOT
ATOM      1  C   UNL d   1      52.680  33.689  53.502  0.00  0.00     0.088 C 
ENDROOT
BRANCH   1   2
ATOM      2  C   UNL d   1      53.182  33.083  53.264  0.00  0.00     0.101 C 
ATOM      3  C   UNL d   1      53.902  33.263  52.923  0.00  0.00     0.022 C 
BRANCH   2   4
ATOM      4  N   UNL d   1      52.953  32.302  53.372  0.00  0.00    -0.206 NA
ATOM      5  C   UNL d   1      53.503  31.692  53.266  0.00  0.00     0.279 C 
ATOM      6  O   UNL d   1      54.274  31.876  53.052  0.00  0.00    -0.265 OA
BRANCH   5   7
ATOM      7  C   UNL d   1      53.274  30.911  53.374  0.00  0.00     0.058 A 
ATOM      8  C   UNL d   1      53.450  30.512  54.079  0.00  0.00     0.005 A 
ATOM      9  C   UNL d   1      53.217  29.723  54.186  0.00  0.00     0.000 A 
ATOM     10  C   UNL d   1      53.394  29.338  54.883  0.00  0.00     0.000 C 
ATOM     11  C   UNL d   1      52.806  29.339  53.577  0.00  0.00     0.000 A 
ATOM     12  C   UNL d   1      52.627  29.731  52.869  0.00  0.00     0.000 A 
ATOM     13  C   UNL d   1      52.862  30.512  52.773  0.00  0.00     0.005 A 
ENDBRANCH   5   7
ENDBRANCH   2   4
ENDBRANCH   1   2
BRANCH   1  14
ATOM     14  C   UNL d   1      51.942  33.775  53.150  0.00  0.00     0.047 A 
ATOM     15  S   UNL d   1      51.782  34.129  52.420  0.00  0.00    -0.085 SA
ATOM     16  C   UNL d   1      50.971  34.093  52.288  0.00  0.00     0.035 A 
ATOM     17  C   UNL d   1      50.615  33.717  52.931  0.00  0.00     0.007 A 
ATOM     18  C   UNL d   1      51.216  33.517  53.471  0.00  0.00     0.009 A 
ENDBRANCH   1  14
BRANCH   1  19
ATOM     19  N   UNL d   1      52.913  34.215  54.097  0.00  0.00    -0.299 N 
ATOM     20  C   UNL d   1      52.969  33.960  54.870  0.00  0.00     0.107 A 
ATOM     21  C   UNL d   1      53.201  34.476  55.466  0.00  0.00     0.142 A 
ATOM     22  O   UNL d   1      53.381  35.267  55.290  0.00  0.00    -0.300 OA
ATOM     23  C   UNL d   1      53.323  35.523  54.502  0.00  0.00     0.142 A 
ATOM     24  C   UNL d   1      53.090  34.999  53.909  0.00  0.00     0.107 A 
ENDBRANCH   1  19
TORSDOF 5
ENDMDL
MODEL 3
REMARK VINA RESULT:      -6.6      1.436      3.829
REMARK  5 active torsions:
REMARK  status: ('A' for Active; 'I' for Inactive)
REMARK       I    between atoms: N_2  and  C_1 
REMARK    1  A    between atoms: C_8  and  C_1 
REMARK    2  A    between atoms: C_4  and  N_2 
REMARK    3  A    between atoms: C_3  and  C_4 
REMARK    4  A    between atoms: C_5  and  C_3 
REMARK    5  A    between atoms: N_6  and  C_3 
ROOT
ATOM      1  C   UNL d   1      53.447  32.681  53.596  0.00  0.00     0.088 C 
ENDROOT
BRANCH   1   2
ATOM      2  C   UNL d   1      53.159  33.271  53.101  0.00  0.00     0.101 C 
ATOM      3  C   UNL d   1      53.672  33.677  52.611  0.00  0.00     0.022 C 
BRANCH   2   4
ATOM      4  N   UNL d   1      52.357  33.447  53.105  0.00  0.00    -0.206 NA
ATOM      5  C   UNL d   1      52.077  34.106  52.689  0.00  0.00     0.279 C 
ATOM      6  O   UNL d   1      52.606  34.578  52.276  0.00  0.00    -0.265 OA
BRANCH   5   7
ATOM      7  C   UNL d   1      51.275  34.281  52.693  0.00  0.00     0.058 A 
ATOM      8  C   UNL d   1      50.815  34.180  52.010  0.00  0.00     0.005 A 
ATOM      9  C   UNL d   1      50.005  34.358  52.017  0.00  0.00     0.000 A 
ATOM     10  C   UNL d   1      49.561  34.256  51.341  0.00  0.00     0.000 C 
ATOM     11  C   UNL d   1      49.661  34.638  52.718  0.00  0.00     0.000 A 
ATOM     12  C   UNL d   1      50.113  34.741  53.404  0.00  0.00     0.000 A 
ATOM     13  C   UNL d   1      50.914  34.563  53.387  0.00  0.00     0.005 A 
ENDBRANCH   5   7
ENDBRANCH   2   4
ENDBRANCH   1   2
BRANCH   1  14
ATOM     14  C   UNL d   1      53.861  32.881  54.278  0.00  0.00     0.047 A 
ATOM     15  S   UNL d   1      54.638  33.161  54.318  0.00  0.00    -0.085 SA
ATOM     16  C   UNL d   1      54.825  33.287  55.109  0.00  0.00     0.035 A 
ATOM     17  C   UNL d   1      54.170  33.088  55.571  0.00  0.00     0.007 A 
ATOM     18  C   UNL d   1      53.567  32.834  55.057  0.00  0.00     0.009 A 
ENDBRANCH   1  14
BRANCH   1  19
ATOM     19  N   UNL d   1      53.322  31.884  53.411  0.00  0.00    -0.299 N 
ATOM     20  C   UNL d   1      53.902  31.458  53.026  0.00  0.00     0.107 A 
ATOM     21  C   UNL d   1      53.785  30.666  52.840  0.00  0.00     0.142 A 
ATOM     22  O   UNL d   1      53.074  30.288  53.040  0.00  0.00    -0.300 OA
ATOM     23  C   UNL d   1      52.486  30.724  53.431  0.00  0.00     0.142 A 
ATOM     24  C   UNL d   1      52.611  31.519  53.615  0.00  0.00     0.107 A 
ENDBRANCH   1  19
TORSDOF 5
ENDMDL
MODEL 4
REMARK VINA RESULT:      -6.4      1.724      4.082
REMARK  5 active torsions:
REMARK  status: ('A' for Active; 'I' for Inactive)
REMARK       I    between atoms: N_2  and  C_1 
REMARK    1  A    between atoms: C_8  and  C_1 
REMARK    2  A    between atoms: C_4  and  N_2 
REMARK    3  A    between atoms: C_3  and  C_4 
REMARK    4  A    between atoms: C_5  and  C_3 
REMARK    5  A    between atoms: N_6  and  C_3 
ROOT
ATOM      1  C   UNL d   1      53.423  32.642  53.522  0.00  0.00     0.088 C 
ENDROOT
BRANCH   1   2
ATOM      2  C   UNL d   1      53.128  33.228  53.026  0.00  0.00     0.101 C 
ATOM      3  C   UNL d   1      53.632  33.622  52.519  0.00  0.00     0.022 C 
BRANCH   2   4
ATOM      4  N   UNL d   1      52.327  33.410  53.047  0.00  0.00    -0.206 NA
ATOM      5  C   UNL d   1      52.051  34.095  52.674  0.00  0.00     0.279 C 
ATOM      6  O   UNL d   1      52.581  34.587  52.286  0.00  0.00    -0.265 OA
BRANCH   5   7
ATOM      7  C   UNL d   1      51.250  34.277  52.695  0.00  0.00     0.058 A 
ATOM      8  C   UNL d   1      50.776  34.182  52.021  0.00  0.00     0.005 A 
ATOM      9  C   UNL d   1      49.968  34.367  52.045  0.00  0.00     0.000 A 
ATOM     10  C   UNL d   1      49.510  34.271  51.378  0.00  0.00     0.000 C 
ATOM     11  C   UNL d   1      49.640  34.649  52.753  0.00  0.00     0.000 A 
ATOM     12  C   UNL d   1      50.108  34.746  53.431  0.00  0.00     0.000 A 
ATOM     13  C   UNL d   1      50.906  34.560  53.397  0.00  0.00     0.005 A 
ENDBRANCH   5   7
ENDBRANCH   2   4
ENDBRANCH   1   2
BRANCH   1  14
ATOM     14  C   UNL d   1      53.265  31.851  53.365  0.00  0.00     0.047 A 
ATOM     15  S   UNL d   1      53.743  31.329  52.937  0.00  0.00    -0.085 SA
ATOM     16  C   UNL d   1      53.371  30.596  52.918  0.00  0.00     0.035 A 
ATOM     17  C   UNL d   1      52.659  30.650  53.332  0.00  0.00     0.007 A 
ATOM     18  C   UNL d   1      52.589  31.430  53.613  0.00  0.00     0.009 A 
ENDBRANCH   1  14
BRANCH   1  19
ATOM     19  N   UNL d   1      53.879  32.845  54.183  0.00  0.00    -0.299 N 
ATOM     20  C   UNL d   1      53.556  32.806  54.931  0.00  0.00     0.107 A 
ATOM     21  C   UNL d   1      54.003  33.007  55.591  0.00  0.00     0.142 A 
ATOM     22  O   UNL d   1      54.791  33.252  55.506  0.00  0.00    -0.300 OA
ATOM     23  C   UNL d   1      55.117  33.291  54.742  0.00  0.00     0.142 A 
ATOM     24  C   UNL d   1      54.662  33.088  54.085  0.00  0.00     0.107 A 
ENDBRANCH   1  19
TORSDOF 5
ENDMDL
