MODEL 1
REMARK VINA RESULT:      -8.9      0.000      0.000
REMARK  4 active torsions:
REMARK  status: ('A' for Active; 'I' for Inactive)
REMARK    1  A    between atoms: C_2  and  S_1 
REMARK    2  A    between atoms: N_5  and  S_1 
REMARK    3  A    between atoms: C_13  and  N_5 
REMARK    4  A    between atoms: C_11  and  C_13 
ROOT
ATOM      1  C   UNL d   1      52.952  33.180  53.643  0.00  0.00     0.105 A 
ATOM      2  C   UNL d   1      53.098  32.386  53.510  0.00  0.00     0.012 A 
ATOM      3  C   UNL d   1      53.416  33.594  54.187  0.00  0.00     0.012 A 
ATOM      4  C   UNL d   1      54.023  33.209  54.596  0.00  0.00     0.001 A 
ATOM      5  C   UNL d   1      53.700  31.996  53.913  0.00  0.00     0.001 A 
ATOM      6  C   UNL d   1      54.167  32.407  54.458  0.00  0.00     0.000 A 
ATOM      7  C   UNL d   1      52.635  31.972  52.968  0.00  0.00     0.001 C 
ATOM      8  C   UNL d   1      53.269  34.397  54.322  0.00  0.00     0.001 C 
ATOM      9  C   UNL d   1      53.848  31.196  53.780  0.00  0.00     0.000 C 
ATOM     10  C   UNL d   1      54.486  33.623  55.138  0.00  0.00     0.000 C 
ENDROOT
BRANCH   1  11
ATOM     11  S   UNL d   1      52.347  33.559  53.236  0.00  0.00     0.285 S 
ATOM     12  O   UNL d   1      52.888  33.759  52.636  0.00  0.00    -0.198 OA
ATOM     13  O   UNL d   1      51.824  33.359  53.826  0.00  0.00    -0.198 OA
BRANCH  11  14
ATOM     14  N   UNL d   1      51.750  33.941  52.818  0.00  0.00    -0.155 NA
BRANCH  14  15
ATOM     15  C   UNL d   1      50.991  33.993  53.134  0.00  0.00     0.137 C 
BRANCH  15  16
ATOM     16  C   UNL d   1      50.376  34.277  52.669  0.00  0.00     0.120 A 
ATOM     17  O   UNL d   1      50.092  34.280  51.897  0.00  0.00    -0.304 OA
ATOM     18  C   UNL d   1      49.394  34.721  51.882  0.00  0.00     0.123 A 
ATOM     19  C   UNL d   1      49.245  34.991  52.646  0.00  0.00     0.029 A 
ATOM     20  C   UNL d   1      49.853  34.717  53.134  0.00  0.00     0.028 A 
ENDBRANCH  15  16
ENDBRANCH  14  15
ENDBRANCH  11  14
ENDBRANCH   1  11
TORSDOF 4
ENDMDL
MODEL 2
REMARK VINA RESULT:      -8.3      1.584      3.900
REMARK  4 active torsions:
REMARK  status: ('A' for Active; 'I' for Inactive)
REMARK    1  A    between atoms: C_2  and  S_1 
REMARK    2  A    between atoms: N_5  and  S_1 
REMARK    3  A    between atoms: C_13  and  N_5 
REMARK    4  A    between atoms: C_11  and  C_13 
ROOT
ATOM      1  C   UNL d   1      52.890  33.492  53.592  0.00  0.00     0.105 A 
ATOM      2  C   UNL d   1      53.220  34.121  53.999  0.00  0.00     0.012 A 
ATOM      3  C   UNL d   1      52.268  33.628  53.066  0.00  0.00     0.012 A 
ATOM      4  C   UNL d   1      51.979  34.395  52.950  0.00  0.00     0.001 A 
ATOM      5  C   UNL d   1      52.938  34.886  53.889  0.00  0.00     0.001 A 
ATOM      6  C   UNL d   1      52.315  35.026  53.363  0.00  0.00     0.000 A 
ATOM      7  C   UNL d   1      53.840  33.985  54.524  0.00  0.00     0.001 C 
ATOM      8  C   UNL d   1      51.934  32.993  52.654  0.00  0.00     0.001 C 
ATOM      9  C   UNL d   1      53.270  35.520  54.299  0.00  0.00     0.000 C 
ATOM     10  C   UNL d   1      51.359  34.530  52.425  0.00  0.00     0.000 C 
ENDROOT
BRANCH   1  11
ATOM     11  S   UNL d   1      53.179  32.732  53.709  0.00  0.00     0.285 S 
ATOM     12  O   UNL d   1      52.671  32.648  54.362  0.00  0.00    -0.198 OA
ATOM     13  O   UNL d   1      53.674  32.821  53.069  0.00  0.00    -0.198 OA
BRANCH  11  14
ATOM     14  N   UNL d   1      53.461  31.969  53.837  0.00  0.00    -0.155 NA
BRANCH  14  15
ATOM     15  C   UNL d   1      53.173  31.340  53.389  0.00  0.00     0.137 C 
BRANCH  15  16
ATOM     16  C   UNL d   1      53.277  30.570  53.657  0.00  0.00     0.120 A 
ATOM     17  O   UNL d   1      53.611  30.134  54.268  0.00  0.00    -0.304 OA
ATOM     18  C   UNL d   1      53.465  29.333  54.122  0.00  0.00     0.123 A 
ATOM     19  C   UNL d   1      53.040  29.275  53.418  0.00  0.00     0.029 A 
ATOM     20  C   UNL d   1      52.923  30.041  53.129  0.00  0.00     0.028 A 
ENDBRANCH  15  16
ENDBRANCH  14  15
ENDBRANCH  11  14
ENDBRANCH   1  11
TORSDOF 4
ENDMDL
MODEL 3
REMARK VINA RESULT:      -8.3      1.584      3.660
REMARK  4 active torsions:
REMARK  status: ('A' for Active; 'I' for Inactive)
REMARK    1  A    between atoms: C_2  and  S_1 
REMARK    2  A    between atoms: N_5  and  S_1 
REMARK    3  A    between atoms: C_13  and  N_5 
REMARK    4  A    between atoms: C_11  and  C_13 
ROOT
ATOM      1  C   UNL d   1      52.895  33.480  53.582  0.00  0.00     0.105 A 
ATOM      2  C   UNL d   1      52.289  33.629  53.052  0.00  0.00     0.012 A 
ATOM      3  C   UNL d   1      53.216  34.103  54.020  0.00  0.00     0.012 A 
ATOM      4  C   UNL d   1      52.928  34.872  53.924  0.00  0.00     0.001 A 
ATOM      5  C   UNL d   1      51.998  34.392  52.951  0.00  0.00     0.001 A 
ATOM      6  C   UNL d   1      52.316  35.018  53.388  0.00  0.00     0.000 A 
ATOM      7  C   UNL d   1      51.969  33.008  52.614  0.00  0.00     0.001 C 
ATOM      8  C   UNL d   1      53.828  33.953  54.556  0.00  0.00     0.001 C 
ATOM      9  C   UNL d   1      51.388  34.543  52.417  0.00  0.00     0.000 C 
ATOM     10  C   UNL d   1      53.248  35.493  54.362  0.00  0.00     0.000 C 
ENDROOT
BRANCH   1  11
ATOM     11  S   UNL d   1      53.178  32.714  53.674  0.00  0.00     0.285 S 
ATOM     12  O   UNL d   1      53.723  32.851  53.062  0.00  0.00    -0.198 OA
ATOM     13  O   UNL d   1      52.642  32.588  54.273  0.00  0.00    -0.198 OA
BRANCH  11  14
ATOM     14  N   UNL d   1      53.471  31.949  53.757  0.00  0.00    -0.155 NA
BRANCH  14  15
ATOM     15  C   UNL d   1      53.076  31.315  53.409  0.00  0.00     0.137 C 
BRANCH  15  16
ATOM     16  C   UNL d   1      53.229  30.550  53.669  0.00  0.00     0.120 A 
ATOM     17  O   UNL d   1      53.612  30.130  54.263  0.00  0.00    -0.304 OA
ATOM     18  C   UNL d   1      53.497  29.323  54.121  0.00  0.00     0.123 A 
ATOM     19  C   UNL d   1      53.042  29.246  53.438  0.00  0.00     0.029 A 
ATOM     20  C   UNL d   1      52.876  30.005  53.157  0.00  0.00     0.028 A 
ENDBRANCH  15  16
ENDBRANCH  14  15
ENDBRANCH  11  14
ENDBRANCH   1  11
TORSDOF 4
ENDMDL
MODEL 4
REMARK VINA RESULT:      -6.2      2.123      3.016
REMARK  4 active torsions:
REMARK  status: ('A' for Active; 'I' for Inactive)
REMARK    1  A    between atoms: C_2  and  S_1 
REMARK    2  A    between atoms: N_5  and  S_1 
REMARK    3  A    between atoms: C_13  and  N_5 
REMARK    4  A    between atoms: C_11  and  C_13 
ROOT
ATOM      1  C   UNL d   1      53.344  31.220  53.810  0.00  0.00     0.105 A 
ATOM      2  C   UNL d   1      53.123  30.930  53.077  0.00  0.00     0.012 A 
ATOM      3  C   UNL d   1      53.433  30.698  54.444  0.00  0.00     0.012 A 
ATOM      4  C   UNL d   1      53.301  29.888  54.340  0.00  0.00     0.001 A 
ATOM      5  C   UNL d   1      52.990  30.126  52.965  0.00  0.00     0.001 A 
ATOM      6  C   UNL d   1      53.079  29.601  53.598  0.00  0.00     0.000 A 
ATOM      7  C   UNL d   1      53.034  31.451  52.444  0.00  0.00     0.001 C 
ATOM      8  C   UNL d   1      53.655  30.990  55.186  0.00  0.00     0.001 C 
ATOM      9  C   UNL d   1      52.768  29.834  52.227  0.00  0.00     0.000 C 
ATOM     10  C   UNL d   1      53.390  29.368  54.973  0.00  0.00     0.000 C 
ENDROOT
BRANCH   1  11
ATOM     11  S   UNL d   1      53.474  32.025  53.910  0.00  0.00     0.285 S 
ATOM     12  O   UNL d   1      54.280  31.907  53.746  0.00  0.00    -0.198 OA
ATOM     13  O   UNL d   1      52.683  32.133  54.068  0.00  0.00    -0.198 OA
BRANCH  11  14
ATOM     14  N   UNL d   1      53.617  32.830  54.007  0.00  0.00    -0.155 NA
BRANCH  14  15
ATOM     15  C   UNL d   1      52.987  33.360  54.055  0.00  0.00     0.137 C 
BRANCH  15  16
ATOM     16  C   UNL d   1      53.128  34.137  54.283  0.00  0.00     0.120 A 
ATOM     17  O   UNL d   1      53.565  34.590  54.812  0.00  0.00    -0.304 OA
ATOM     18  C   UNL d   1      53.381  35.385  54.681  0.00  0.00     0.123 A 
ATOM     19  C   UNL d   1      52.830  35.423  54.070  0.00  0.00     0.029 A 
ATOM     20  C   UNL d   1      52.673  34.650  53.823  0.00  0.00     0.028 A 
ENDBRANCH  15  16
ENDBRANCH  14  15
ENDBRANCH  11  14
ENDBRANCH   1  11
TORSDOF 4
ENDMDL
