MODEL 1
REMARK VINA RESULT:      33.4      0.000      0.000
REMARK  7 active torsions:
REMARK  status: ('A' for Active; 'I' for Inactive)
REMARK       I    between atoms: N_2  and  C_1 
REMARK    1  A    between atoms: C_5  and  N_2 
REMARK    2  A    between atoms: N_4  and  C_9 
REMARK    3  A    between atoms: C_16  and  N_4 
REMARK    4  A    between atoms: O_6  and  C_8 
REMARK    5  A    between atoms: C_10  and  O_6 
REMARK    6  A    between atoms: C_7  and  C_10 
REMARK    7  A    between atoms: C_9  and  C_7 
ROOT
ATOM      1  C   UNL d   1     -51.383  24.687  33.337  0.00  0.00     0.085 A 
ATOM      2  C   UNL d   1     -50.598  26.135  33.319  0.00  0.00     0.100 A 
ATOM      3  C   UNL d   1     -50.561  24.709  33.351  0.00  0.00     0.021 A 
ATOM      4  C   UNL d   1     -51.822  25.386  33.314  0.00  0.00     0.021 A 
ATOM      5  C   UNL d   1     -51.429  26.113  33.306  0.00  0.00     0.026 A 
ATOM      6  C   UNL d   1     -50.167  25.430  33.342  0.00  0.00     0.026 A 
ENDROOT
BRANCH   2   7
ATOM      7  O   UNL d   1     -50.205  26.856  33.311  0.00  0.00    -0.302 OA
BRANCH   7   8
ATOM      8  C   UNL d   1     -49.689  27.053  33.922  0.00  0.00     0.166 C 
BRANCH   8   9
ATOM      9  C   UNL d   1     -49.650  27.836  34.180  0.00  0.00     0.239 C 
ATOM     10  O   UNL d   1     -50.079  28.414  33.780  0.00  0.00    -0.283 OA
BRANCH   9  11
ATOM     11  C   UNL d   1     -49.189  28.041  34.828  0.00  0.00     0.143 C 
BRANCH  11  12
ATOM     12  N   UNL d   1     -48.659  28.672  34.777  0.00  0.00    -0.241 NA
BRANCH  12  13
ATOM     13  C   UNL d   1     -48.076  28.764  35.343  0.00  0.00     0.082 C 
ATOM     14  C   UNL d   1     -47.286  28.848  35.105  0.00  0.00     0.021 C 
ATOM     15  C   UNL d   1     -48.274  28.772  36.143  0.00  0.00     0.021 C 
ENDBRANCH  12  13
ENDBRANCH  11  12
ENDBRANCH   9  11
ENDBRANCH   8   9
ENDBRANCH   7   8
ENDBRANCH   2   7
BRANCH   1  16
ATOM     16  N   UNL d   1     -51.776  23.965  33.346  0.00  0.00    -0.208 NA
ATOM     17  C   UNL d   1     -52.576  23.928  33.573  0.00  0.00     0.279 C 
ATOM     18  O   UNL d   1     -52.966  24.614  33.787  0.00  0.00    -0.265 OA
ATOM     19  C   UNL d   1     -52.960  23.198  33.578  0.00  0.00     0.068 C 
ENDBRANCH   1  16
TORSDOF 7
ENDMDL
