MODEL 1
REMARK VINA RESULT:      22.0      0.000      0.000
REMARK  7 active torsions:
REMARK  status: ('A' for Active; 'I' for Inactive)
REMARK    1  A    between atoms: O_9  and  N_1 
REMARK    2  A    between atoms: C_8  and  O_11 
REMARK    3  A    between atoms: C_15  and  O_9 
REMARK    4  A    between atoms: O_11  and  C_16 
REMARK    5  A    between atoms: C_18  and  C_15 
REMARK    6  A    between atoms: C_16  and  C_17 
REMARK    7  A    between atoms: C_17  and  C_18 
ROOT
ATOM      1  N   UNL d   1      13.918  12.980  -2.494  0.00  0.00    -0.139 N 
ATOM      2  C   UNL d   1      13.422  12.326  -2.636  0.00  0.00     0.287 A 
ATOM      3  C   UNL d   1      14.069  13.352  -3.220  0.00  0.00     0.287 A 
ATOM      4  C   UNL d   1      13.270  12.299  -3.450  0.00  0.00     0.063 A 
ATOM      5  C   UNL d   1      13.668  12.930  -3.809  0.00  0.00     0.063 A 
ATOM      6  O   UNL d   1      14.528  14.022  -3.376  0.00  0.00    -0.265 OA
ATOM      7  O   UNL d   1      13.117  11.784  -2.104  0.00  0.00    -0.265 OA
ATOM      8  C   UNL d   1      13.615  13.041  -4.627  0.00  0.00     0.005 A 
ATOM      9  C   UNL d   1      12.821  11.779  -3.910  0.00  0.00     0.005 A 
ATOM     10  C   UNL d   1      13.167  12.522  -5.083  0.00  0.00     0.000 A 
ATOM     11  C   UNL d   1      12.769  11.891  -4.724  0.00  0.00     0.000 A 
ENDROOT
BRANCH   1  12
ATOM     12  O   UNL d   1      14.207  13.215  -1.759  0.00  0.00    -0.221 OA
BRANCH  12  13
ATOM     13  C   UNL d   1      14.850  13.348  -1.256  0.00  0.00     0.148 C 
BRANCH  13  14
ATOM     14  C   UNL d   1      14.727  13.726  -0.534  0.00  0.00     0.031 C 
BRANCH  14  15
ATOM     15  C   UNL d   1      15.372  13.945  -0.072  0.00  0.00     0.029 C 
BRANCH  15  16
ATOM     16  C   UNL d   1      15.586  14.738  -0.019  0.00  0.00     0.126 C 
BRANCH  16  17
ATOM     17  O   UNL d   1      15.059  15.320  -0.271  0.00  0.00    -0.271 OA
BRANCH  17  18
ATOM     18  C   UNL d   1      15.344  16.058  -0.494  0.00  0.00     0.300 C 
ATOM     19  O   UNL d   1      15.969  16.403  -0.079  0.00  0.00    -0.259 OA
ATOM     20  C   UNL d   1      15.007  16.453  -1.132  0.00  0.00     0.074 C 
ENDBRANCH  17  18
ENDBRANCH  16  17
ENDBRANCH  15  16
ENDBRANCH  14  15
ENDBRANCH  13  14
ENDBRANCH  12  13
ENDBRANCH   1  12
TORSDOF 7
ENDMDL
