MODEL 1
REMARK VINA RESULT:      43.1      0.000      0.000
REMARK  7 active torsions:
REMARK  status: ('A' for Active; 'I' for Inactive)
REMARK    1  A    between atoms: C_6  and  C_2 
REMARK    2  A    between atoms: S_7  and  C_4 
REMARK    3  A    between atoms: C_12  and  S_7 
REMARK    4  A    between atoms: C_8  and  C_12 
REMARK    5  A    between atoms: O_16  and  C_8 
REMARK    6  A    between atoms: O_17  and  C_13 
REMARK    7  A    between atoms: C_18  and  O_16 
ROOT
ATOM      1  N   UNL d   1     -49.407  27.406  34.122  0.00  0.00    -0.212 NA
ATOM      2  C   UNL d   1     -50.091  27.355  33.676  0.00  0.00     0.171 A 
ATOM      3  N   UNL d   1     -50.226  28.089  33.320  0.00  0.00    -0.188 NA
ATOM      4  C   UNL d   1     -49.105  28.172  34.052  0.00  0.00     0.160 A 
ATOM      5  S   UNL d   1     -49.616  28.595  33.552  0.00  0.00     0.041 SA
ENDROOT
BRANCH   2   6
ATOM      6  C   UNL d   1     -50.573  26.687  33.589  0.00  0.00     0.037 A 
ATOM      7  C   UNL d   1     -51.400  26.761  33.505  0.00  0.00     0.005 A 
ATOM      8  C   UNL d   1     -51.871  26.101  33.419  0.00  0.00     0.024 A 
ATOM      9  C   UNL d   1     -51.527  25.354  33.417  0.00  0.00     0.094 A 
ATOM     10  C   UNL d   1     -50.705  25.272  33.501  0.00  0.00     0.024 A 
ATOM     11  C   UNL d   1     -50.241  25.942  33.586  0.00  0.00     0.005 A 
BRANCH   9  12
ATOM     12  O   UNL d   1     -51.994  24.682  33.331  0.00  0.00    -0.328 OA
ATOM     13  C   UNL d   1     -51.644  23.941  33.311  0.00  0.00     0.181 C 
ENDBRANCH   9  12
ENDBRANCH   2   6
BRANCH   4  14
ATOM     14  S   UNL d   1     -48.420  28.470  34.409  0.00  0.00    -0.054 SA
BRANCH  14  15
ATOM     15  C   UNL d   1     -48.477  29.041  34.992  0.00  0.00     0.106 C 
BRANCH  15  16
ATOM     16  C   UNL d   1     -47.798  29.392  35.306  0.00  0.00     0.307 C 
ATOM     17  O   UNL d   1     -47.375  29.001  35.903  0.00  0.00    -0.258 OA
BRANCH  16  18
ATOM     18  O   UNL d   1     -47.540  30.127  35.030  0.00  0.00    -0.271 OA
BRANCH  18  19
ATOM     19  C   UNL d   1     -47.667  30.813  35.483  0.00  0.00     0.126 C 
ATOM     20  C   UNL d   1     -47.221  31.491  35.340  0.00  0.00     0.029 C 
ENDBRANCH  18  19
ENDBRANCH  16  18
ENDBRANCH  15  16
ENDBRANCH  14  15
ENDBRANCH   4  14
TORSDOF 7
ENDMDL
MODEL 2
REMARK VINA RESULT:      45.0      2.147      2.840
REMARK  7 active torsions:
REMARK  status: ('A' for Active; 'I' for Inactive)
REMARK    1  A    between atoms: C_6  and  C_2 
REMARK    2  A    between atoms: S_7  and  C_4 
REMARK    3  A    between atoms: C_12  and  S_7 
REMARK    4  A    between atoms: C_8  and  C_12 
REMARK    5  A    between atoms: O_16  and  C_8 
REMARK    6  A    between atoms: O_17  and  C_13 
REMARK    7  A    between atoms: C_18  and  O_16 
ROOT
ATOM      1  N   UNL d   1     -50.835  26.151  34.349  0.00  0.00    -0.212 NA
ATOM      2  C   UNL d   1     -50.826  25.573  33.769  0.00  0.00     0.171 A 
ATOM      3  N   UNL d   1     -50.147  25.678  33.308  0.00  0.00    -0.188 NA
ATOM      4  C   UNL d   1     -50.164  26.624  34.259  0.00  0.00     0.160 A 
ATOM      5  S   UNL d   1     -49.737  26.328  33.611  0.00  0.00     0.041 SA
ENDROOT
BRANCH   2   6
ATOM      6  C   UNL d   1     -51.393  24.981  33.655  0.00  0.00     0.037 A 
ATOM      7  C   UNL d   1     -51.204  24.177  33.771  0.00  0.00     0.005 A 
ATOM      8  C   UNL d   1     -51.766  23.597  33.658  0.00  0.00     0.024 A 
ATOM      9  C   UNL d   1     -52.527  23.807  33.426  0.00  0.00     0.094 A 
ATOM     10  C   UNL d   1     -52.722  24.606  33.308  0.00  0.00     0.024 A 
ATOM     11  C   UNL d   1     -52.150  25.180  33.425  0.00  0.00     0.005 A 
BRANCH   9  12
ATOM     12  O   UNL d   1     -53.101  23.229  33.309  0.00  0.00    -0.328 OA
ATOM     13  C   UNL d   1     -53.773  23.220  33.777  0.00  0.00     0.181 C 
ENDBRANCH   9  12
ENDBRANCH   2   6
BRANCH   4  14
ATOM     14  S   UNL d   1     -49.949  27.274  34.724  0.00  0.00    -0.054 SA
BRANCH  14  15
ATOM     15  C   UNL d   1     -50.279  27.375  35.466  0.00  0.00     0.106 C 
BRANCH  15  16
ATOM     16  C   UNL d   1     -49.802  27.541  36.120  0.00  0.00     0.307 C 
ATOM     17  O   UNL d   1     -49.161  28.059  36.038  0.00  0.00    -0.258 OA
BRANCH  16  18
ATOM     18  O   UNL d   1     -49.961  27.193  36.853  0.00  0.00    -0.271 OA
BRANCH  18  19
ATOM     19  C   UNL d   1     -50.545  27.514  37.352  0.00  0.00     0.126 C 
ATOM     20  C   UNL d   1     -50.782  27.105  38.027  0.00  0.00     0.029 C 
ENDBRANCH  18  19
ENDBRANCH  16  18
ENDBRANCH  15  16
ENDBRANCH  14  15
ENDBRANCH   4  14
TORSDOF 7
ENDMDL
MODEL 3
REMARK VINA RESULT:      45.5      1.974      5.671
REMARK  7 active torsions:
REMARK  status: ('A' for Active; 'I' for Inactive)
REMARK    1  A    between atoms: C_6  and  C_2 
REMARK    2  A    between atoms: S_7  and  C_4 
REMARK    3  A    between atoms: C_12  and  S_7 
REMARK    4  A    between atoms: C_8  and  C_12 
REMARK    5  A    between atoms: O_16  and  C_8 
REMARK    6  A    between atoms: O_17  and  C_13 
REMARK    7  A    between atoms: C_18  and  O_16 
ROOT
ATOM      1  N   UNL d   1     -48.217  29.653  34.768  0.00  0.00    -0.212 NA
ATOM      2  C   UNL d   1     -47.839  30.278  35.136  0.00  0.00     0.171 A 
ATOM      3  N   UNL d   1     -47.510  30.003  35.844  0.00  0.00    -0.188 NA
ATOM      4  C   UNL d   1     -48.132  28.980  35.239  0.00  0.00     0.160 A 
ATOM      5  S   UNL d   1     -47.692  29.200  35.908  0.00  0.00     0.041 SA
ENDROOT
BRANCH   2   6
ATOM      6  C   UNL d   1     -47.787  31.055  34.856  0.00  0.00     0.037 A 
ATOM      7  C   UNL d   1     -47.245  31.596  35.187  0.00  0.00     0.005 A 
ATOM      8  C   UNL d   1     -47.197  32.361  34.908  0.00  0.00     0.024 A 
ATOM      9  C   UNL d   1     -47.689  32.602  34.295  0.00  0.00     0.094 A 
ATOM     10  C   UNL d   1     -48.232  32.070  33.961  0.00  0.00     0.024 A 
ATOM     11  C   UNL d   1     -48.271  31.303  34.248  0.00  0.00     0.005 A 
BRANCH   9  12
ATOM     12  O   UNL d   1     -47.649  33.372  34.007  0.00  0.00    -0.328 OA
ATOM     13  C   UNL d   1     -48.029  33.567  33.308  0.00  0.00     0.181 C 
ENDBRANCH   9  12
ENDBRANCH   2   6
BRANCH   4  14
ATOM     14  S   UNL d   1     -48.426  28.222  35.082  0.00  0.00    -0.054 SA
BRANCH  14  15
ATOM     15  C   UNL d   1     -49.052  28.125  34.563  0.00  0.00     0.106 C 
BRANCH  15  16
ATOM     16  C   UNL d   1     -49.136  27.426  34.131  0.00  0.00     0.307 C 
ATOM     17  O   UNL d   1     -48.682  26.763  34.334  0.00  0.00    -0.258 OA
BRANCH  16  18
ATOM     18  O   UNL d   1     -49.669  27.384  33.501  0.00  0.00    -0.271 OA
BRANCH  18  19
ATOM     19  C   UNL d   1     -50.059  26.670  33.327  0.00  0.00     0.126 C 
ATOM     20  C   UNL d   1     -50.882  26.641  33.311  0.00  0.00     0.029 C 
ENDBRANCH  18  19
ENDBRANCH  16  18
ENDBRANCH  15  16
ENDBRANCH  14  15
ENDBRANCH   4  14
TORSDOF 7
ENDMDL
