MODEL 1
REMARK VINA RESULT:      78.4      0.000      0.000
REMARK  5 active torsions:
REMARK  status: ('A' for Active; 'I' for Inactive)
REMARK    1  A    between atoms: C_8  and  N_1 
REMARK    2  A    between atoms: C_6  and  C_2 
REMARK    3  A    between atoms: C_9  and  C_6 
REMARK    4  A    between atoms: C_7  and  C_9 
REMARK    5  A    between atoms: C_14  and  C_8 
ROOT
ATOM      1  N   UNL d   1      60.075  48.918  50.855  0.00  0.00    -0.289 N 
ATOM      2  C   UNL d   1      59.385  49.297  50.623  0.00  0.00     0.148 A 
ATOM      3  N   UNL d   1      59.531  49.647  49.864  0.00  0.00    -0.227 NA
ATOM      4  C   UNL d   1      60.664  49.012  50.271  0.00  0.00     0.083 A 
ATOM      5  C   UNL d   1      60.292  49.477  49.657  0.00  0.00     0.099 A 
ATOM      6  C   UNL d   1      61.445  48.755  50.213  0.00  0.00     0.019 A 
ATOM      7  C   UNL d   1      60.765  49.664  48.976  0.00  0.00     0.021 A 
ATOM      8  C   UNL d   1      61.867  48.945  49.562  0.00  0.00     0.002 A 
ATOM      9  C   UNL d   1      61.533  49.393  48.953  0.00  0.00     0.002 A 
ENDROOT
BRANCH   1  10
ATOM     10  C   UNL d   1      60.000  48.563  51.575  0.00  0.00     0.082 C 
BRANCH  10  11
ATOM     11  C   UNL d   1      60.445  48.842  52.200  0.00  0.00     0.018 A 
ATOM     12  C   UNL d   1      61.250  48.671  52.247  0.00  0.00     0.002 A 
ATOM     13  C   UNL d   1      61.698  48.970  52.906  0.00  0.00     0.000 A 
ATOM     14  C   UNL d   1      61.338  49.425  53.492  0.00  0.00     0.000 A 
ATOM     15  C   UNL d   1      60.533  49.595  53.445  0.00  0.00     0.000 A 
ATOM     16  C   UNL d   1      61.782  49.696  54.105  0.00  0.00     0.000 C 
ATOM     17  C   UNL d   1      60.087  49.312  52.812  0.00  0.00     0.002 A 
ENDBRANCH  10  11
ENDBRANCH   1  10
BRANCH   2  18
ATOM     18  C   UNL d   1      58.611  49.455  50.863  0.00  0.00     0.039 C 
BRANCH  18  19
ATOM     19  C   UNL d   1      58.038  49.615  50.304  0.00  0.00     0.028 C 
BRANCH  19  20
ATOM     20  C   UNL d   1      57.251  49.406  50.449  0.00  0.00     0.100 A 
ATOM     21  O   UNL d   1      56.785  48.891  50.003  0.00  0.00    -0.305 OA
ATOM     22  C   UNL d   1      56.039  48.854  50.358  0.00  0.00     0.123 A 
ATOM     23  C   UNL d   1      56.033  49.342  51.023  0.00  0.00     0.029 A 
ATOM     24  C   UNL d   1      56.798  49.683  51.071  0.00  0.00     0.027 A 
ENDBRANCH  19  20
ENDBRANCH  18  19
ENDBRANCH   2  18
TORSDOF 5
ENDMDL
