MODEL 1
REMARK VINA RESULT:      -3.5      0.000      0.000
REMARK  2 active torsions:
REMARK  status: ('A' for Active; 'I' for Inactive)
REMARK    1  A    between atoms: N_2  and  S_1 
REMARK    2  A    between atoms: C_4  and  S_1 
ROOT
ATOM      1  N   UNL d   1     -41.768-123.168 -51.060  0.00  0.00    -0.231 N 
ATOM      2  C   UNL d   1     -41.551-122.419 -51.343  0.00  0.00     0.075 A 
ATOM      3  C   UNL d   1     -41.364-122.317 -52.133  0.00  0.00     0.017 A 
ATOM      4  C   UNL d   1     -41.794-123.814 -51.582  0.00  0.00     0.092 A 
ATOM      5  C   UNL d   1     -41.525-121.773 -50.822  0.00  0.00     0.018 A 
ATOM      6  C   UNL d   1     -41.607-123.712 -52.371  0.00  0.00     0.020 A 
ATOM      7  C   UNL d   1     -41.390-122.962 -52.656  0.00  0.00     0.003 A 
ATOM      8  C   UNL d   1     -41.147-121.567 -52.418  0.00  0.00     0.002 A 
ATOM      9  C   UNL d   1     -41.310-121.035 -51.107  0.00  0.00     0.002 A 
ATOM     10  C   UNL d   1     -41.123-120.933 -51.897  0.00  0.00     0.000 A 
ENDROOT
BRANCH   1  11
ATOM     11  S   UNL d   1     -41.956-123.271 -50.269  0.00  0.00     0.271 S 
ATOM     12  O   UNL d   1     -42.931-122.909 -50.454  0.00  0.00    -0.200 OA
ATOM     13  O   UNL d   1     -41.123-123.579 -50.112  0.00  0.00    -0.200 OA
BRANCH  11  14
ATOM     14  C   UNL d   1     -42.145-123.374 -49.469  0.00  0.00     0.104 A 
ATOM     15  C   UNL d   1     -41.540-123.481 -48.919  0.00  0.00     0.014 A 
ATOM     16  C   UNL d   1     -41.723-123.583 -48.128  0.00  0.00     0.012 A 
ATOM     17  C   UNL d   1     -42.506-123.580 -47.880  0.00  0.00     0.058 A 
ATOM     18  C   UNL d   1     -43.111-123.474 -48.431  0.00  0.00     0.012 A 
ATOM     19 CL   UNL d   1     -42.695-123.684 -47.080  0.00  0.00    -0.082 Cl
ATOM     20  C   UNL d   1     -42.921-123.370 -49.232  0.00  0.00     0.014 A 
ENDBRANCH  11  14
ENDBRANCH   1  11
TORSDOF 2
ENDMDL
MODEL 2
REMARK VINA RESULT:      -2.7      0.639      1.612
REMARK  2 active torsions:
REMARK  status: ('A' for Active; 'I' for Inactive)
REMARK    1  A    between atoms: N_2  and  S_1 
REMARK    2  A    between atoms: C_4  and  S_1 
ROOT
ATOM      1  N   UNL d   1     -41.952-122.060 -50.920  0.00  0.00    -0.231 N 
ATOM      2  C   UNL d   1     -41.720-122.531 -51.563  0.00  0.00     0.075 A 
ATOM      3  C   UNL d   1     -41.524-122.184 -52.277  0.00  0.00     0.017 A 
ATOM      4  C   UNL d   1     -41.984-121.234 -51.005  0.00  0.00     0.092 A 
ATOM      5  C   UNL d   1     -41.689-123.356 -51.478  0.00  0.00     0.018 A 
ATOM      6  C   UNL d   1     -41.787-120.887 -51.719  0.00  0.00     0.020 A 
ATOM      7  C   UNL d   1     -41.555-121.358 -52.363  0.00  0.00     0.003 A 
ATOM      8  C   UNL d   1     -41.292-122.655 -52.921  0.00  0.00     0.002 A 
ATOM      9  C   UNL d   1     -41.459-123.817 -52.117  0.00  0.00     0.002 A 
ATOM     10  C   UNL d   1     -41.263-123.470 -52.831  0.00  0.00     0.000 A 
ENDROOT
BRANCH   1  11
ATOM     11  S   UNL d   1     -42.149-122.407 -50.205  0.00  0.00     0.271 S 
ATOM     12  O   UNL d   1     -41.124-122.465 -49.952  0.00  0.00    -0.200 OA
ATOM     13  O   UNL d   1     -43.023-122.358 -50.422  0.00  0.00    -0.200 OA
BRANCH  11  14
ATOM     14  C   UNL d   1     -42.348-122.759 -49.481  0.00  0.00     0.104 A 
ATOM     15  C   UNL d   1     -41.873-122.624 -48.820  0.00  0.00     0.014 A 
ATOM     16  C   UNL d   1     -42.066-122.969 -48.104  0.00  0.00     0.012 A 
ATOM     17  C   UNL d   1     -42.730-123.449 -48.041  0.00  0.00     0.058 A 
ATOM     18  C   UNL d   1     -43.204-123.584 -48.703  0.00  0.00     0.012 A 
ATOM     19 CL   UNL d   1     -42.929-123.801 -47.317  0.00  0.00    -0.082 Cl
ATOM     20  C   UNL d   1     -43.005-123.232 -49.427  0.00  0.00     0.014 A 
ENDBRANCH  11  14
ENDBRANCH   1  11
TORSDOF 2
ENDMDL
