MODEL 1
REMARK VINA RESULT:      84.2      0.000      0.000
REMARK  9 active torsions:
REMARK  status: ('A' for Active; 'I' for Inactive)
REMARK    1  A    between atoms: C_21  and  N_1 
REMARK    2  A    between atoms: S_7  and  C_2 
REMARK       I    between atoms: C_6  and  N_18 
REMARK    3  A    between atoms: C_15  and  C_6 
REMARK    4  A    between atoms: C_19  and  S_7 
REMARK    5  A    between atoms: C_8  and  C_19 
REMARK       I    between atoms: N_11  and  C_8 
REMARK    6  A    between atoms: C_9  and  C_20 
REMARK    7  A    between atoms: C_20  and  N_11 
REMARK    8  A    between atoms: N_18  and  C_23 
REMARK    9  A    between atoms: C_23  and  C_21 
ROOT
ATOM      1  N   UNL d   1      60.635  48.931  50.302  0.00  0.00    -0.302 N 
ATOM      2  C   UNL d   1      61.302  47.791  50.525  0.00  0.00     0.049 A 
ATOM      3  C   UNL d   1      60.888  48.212  49.955  0.00  0.00     0.087 A 
ATOM      4  C   UNL d   1      61.313  48.237  51.227  0.00  0.00     0.024 A 
ATOM      5  C   UNL d   1      60.900  48.939  51.085  0.00  0.00     0.065 A 
ATOM      6  C   UNL d   1      61.644  48.087  51.964  0.00  0.00     0.002 A 
ATOM      7  C   UNL d   1      60.822  49.490  51.689  0.00  0.00     0.018 A 
ATOM      8  C   UNL d   1      61.563  48.645  52.568  0.00  0.00     0.000 A 
ATOM      9  C   UNL d   1      61.153  49.347  52.435  0.00  0.00     0.002 A 
ENDROOT
BRANCH   1  10
ATOM     10  C   UNL d   1      60.200  49.527  49.935  0.00  0.00     0.101 C 
BRANCH  10  11
ATOM     11  C   UNL d   1      59.439  49.707  50.201  0.00  0.00     0.121 C 
BRANCH  11  12
ATOM     12  N   UNL d   1      58.779  49.436  49.774  0.00  0.00    -0.205 NA
ATOM     13  C   UNL d   1      58.031  49.426  50.132  0.00  0.00     0.279 C 
ATOM     14  O   UNL d   1      57.945  49.688  50.918  0.00  0.00    -0.265 OA
BRANCH  13  15
ATOM     15  C   UNL d   1      57.378  49.158  49.709  0.00  0.00     0.058 A 
ATOM     16  C   UNL d   1      57.208  48.367  49.676  0.00  0.00     0.005 A 
ATOM     17  C   UNL d   1      56.557  48.079  49.257  0.00  0.00     0.000 A 
ATOM     18  C   UNL d   1      56.063  48.612  48.858  0.00  0.00     0.000 A 
ATOM     19  C   UNL d   1      56.231  49.427  48.886  0.00  0.00     0.000 A 
ATOM     20  C   UNL d   1      56.888  49.698  49.312  0.00  0.00     0.005 A 
ENDBRANCH  13  15
ENDBRANCH  11  12
ENDBRANCH  10  11
ENDBRANCH   1  10
BRANCH   2  21
ATOM     21  S   UNL d   1      61.652  47.048  50.423  0.00  0.00    -0.080 SA
BRANCH  21  22
ATOM     22  C   UNL d   1      61.258  46.469  49.986  0.00  0.00     0.098 C 
BRANCH  22  23
ATOM     23  C   UNL d   1      61.666  45.827  49.679  0.00  0.00     0.286 C 
ATOM     24  N   UNL d   1      61.789  45.150  50.126  0.00  0.00    -0.204 NA
ATOM     25  O   UNL d   1      61.958  45.865  48.906  0.00  0.00    -0.265 OA
BRANCH  24  26
ATOM     26  C   UNL d   1      61.498  45.116  50.891  0.00  0.00     0.127 C 
BRANCH  26  27
ATOM     27  C   UNL d   1      61.400  44.384  51.261  0.00  0.00     0.119 A 
ATOM     28  O   UNL d   1      60.697  44.093  51.563  0.00  0.00    -0.304 OA
ATOM     29  C   UNL d   1      60.847  43.350  51.880  0.00  0.00     0.123 A 
ATOM     30  C   UNL d   1      61.638  43.183  51.776  0.00  0.00     0.029 A 
ATOM     31  C   UNL d   1      61.982  43.822  51.393  0.00  0.00     0.028 A 
ENDBRANCH  26  27
ENDBRANCH  24  26
ENDBRANCH  22  23
ENDBRANCH  21  22
ENDBRANCH   2  21
TORSDOF 9
ENDMDL
