MODEL 1
REMARK VINA RESULT:      40.8      0.000      0.000
REMARK  3 active torsions:
REMARK  status: ('A' for Active; 'I' for Inactive)
REMARK    1  A    between atoms: N_2  and  C_1 
REMARK       I    between atoms: C_5  and  N_2 
REMARK    2  A    between atoms: C_8  and  C_5 
REMARK    3  A    between atoms: O_17  and  C_13 
ROOT
ATOM      1  N   UNL d   1     -54.736-100.785 -41.913  0.00  0.00    -0.184 NA
ATOM      2  C   UNL d   1     -54.743-101.582 -41.696  0.00  0.00     0.281 C 
ATOM      3  O   UNL d   1     -54.759-102.152 -42.292  0.00  0.00    -0.265 OA
ENDROOT
BRANCH   1   4
ATOM      4  C   UNL d   1     -54.745-100.587 -42.719  0.00  0.00     0.182 A 
ATOM      5  N   UNL d   1     -54.784 -99.825 -43.073  0.00  0.00    -0.283 N 
ATOM      6  C   UNL d   1     -54.775 -99.968 -43.913  0.00  0.00     0.072 A 
ATOM      7  C   UNL d   1     -54.822 -99.130 -42.692  0.00  0.00     0.101 C 
ATOM      8  C   UNL d   1     -54.801 -99.449 -44.576  0.00  0.00     0.018 A 
ATOM      9  C   UNL d   1     -54.733-100.757 -44.018  0.00  0.00     0.048 A 
ATOM     10  C   UNL d   1     -54.782 -99.774 -45.357  0.00  0.00     0.002 A 
ATOM     11  C   UNL d   1     -54.739-100.576 -45.453  0.00  0.00     0.001 A 
ATOM     12  C   UNL d   1     -54.713-101.093 -44.797  0.00  0.00     0.008 A 
ATOM     13  S   UNL d   1     -54.714-101.141 -43.315  0.00  0.00    -0.048 SA
ENDBRANCH   1   4
BRANCH   2  14
ATOM     14  C   UNL d   1     -54.736-101.827 -40.925  0.00  0.00     0.058 A 
ATOM     15  C   UNL d   1     -54.719-101.276 -40.328  0.00  0.00     0.007 A 
ATOM     16  C   UNL d   1     -54.712-101.531 -39.543  0.00  0.00     0.024 A 
ATOM     17  C   UNL d   1     -54.721-102.329 -39.370  0.00  0.00     0.094 A 
ATOM     18  C   UNL d   1     -54.737-102.880 -39.968  0.00  0.00     0.024 A 
ATOM     19  C   UNL d   1     -54.745-102.644 -40.776  0.00  0.00     0.007 A 
BRANCH  17  20
ATOM     20  O   UNL d   1     -54.713-102.577 -38.578  0.00  0.00    -0.328 OA
ATOM     21  C   UNL d   1     -55.411-102.682 -38.053  0.00  0.00     0.181 C 
ENDBRANCH  17  20
ENDBRANCH   2  14
TORSDOF 3
ENDMDL
