MODEL 1
REMARK VINA RESULT:      35.7      0.000      0.000
REMARK  4 active torsions:
REMARK  status: ('A' for Active; 'I' for Inactive)
REMARK    1  A    between atoms: C_2  and  N_1 
REMARK    2  A    between atoms: C_12  and  C_5 
REMARK    3  A    between atoms: O_20  and  C_12 
REMARK    4  A    between atoms: C_22  and  O_20 
ROOT
ATOM      1  N   UNL d   1      45.717 -14.565  43.948  0.00  0.00    -0.237 N 
ATOM      2  C   UNL d   1      45.214 -15.087  44.355  0.00  0.00     0.263 A 
ATOM      3  C   UNL d   1      46.116 -14.987  43.362  0.00  0.00     0.263 A 
ATOM      4  C   UNL d   1      45.865 -15.779  43.399  0.00  0.00     0.039 A 
ATOM      5  C   UNL d   1      45.305 -15.835  44.017  0.00  0.00     0.039 A 
ATOM      6  C   UNL d   1      46.067 -16.451  42.958  0.00  0.00     0.049 A 
ATOM      7  C   UNL d   1      44.949 -16.567  44.192  0.00  0.00     0.049 A 
ATOM      8  C   UNL d   1      45.711 -17.183  43.133  0.00  0.00    -0.026 A 
ATOM      9  C   UNL d   1      45.153 -17.243  43.748  0.00  0.00    -0.026 A 
ATOM     10  C   UNL d   1      45.637 -16.152  43.541  0.00  0.00     0.018 A 
ATOM     11  O   UNL d   1      46.646 -14.692  42.852  0.00  0.00    -0.267 OA
ATOM     12  O   UNL d   1      44.736 -14.906  44.955  0.00  0.00    -0.267 OA
ENDROOT
BRANCH   1  13
ATOM     13  C   UNL d   1      45.797 -13.782  44.103  0.00  0.00     0.105 A 
ATOM     14  C   UNL d   1      45.345 -13.202  43.793  0.00  0.00     0.086 A 
ATOM     15  C   UNL d   1      45.606 -12.513  44.088  0.00  0.00     0.014 A 
ATOM     16  C   UNL d   1      46.215 -12.674  44.576  0.00  0.00     0.031 A 
ATOM     17  S   UNL d   1      46.332 -13.456  44.585  0.00  0.00    -0.069 SA
ATOM     18  C   UNL d   1      46.589 -12.082  44.954  0.00  0.00     0.007 C 
BRANCH  14  19
ATOM     19  C   UNL d   1      44.748 -13.297  43.286  0.00  0.00     0.302 C 
ATOM     20  O   UNL d   1      44.040 -13.545  43.544  0.00  0.00    -0.259 OA
BRANCH  19  21
ATOM     21  O   UNL d   1      44.853 -13.143  42.510  0.00  0.00    -0.271 OA
BRANCH  21  22
ATOM     22  C   UNL d   1      44.537 -12.449  42.280  0.00  0.00     0.126 C 
ATOM     23  C   UNL d   1      44.786 -12.106  41.611  0.00  0.00     0.029 C 
ENDBRANCH  21  22
ENDBRANCH  19  21
ENDBRANCH  14  19
ENDBRANCH   1  13
TORSDOF 4
ENDMDL
MODEL 2
REMARK VINA RESULT:      35.9      6.190      7.393
REMARK  4 active torsions:
REMARK  status: ('A' for Active; 'I' for Inactive)
REMARK    1  A    between atoms: C_2  and  N_1 
REMARK    2  A    between atoms: C_12  and  C_5 
REMARK    3  A    between atoms: O_20  and  C_12 
REMARK    4  A    between atoms: C_22  and  O_20 
ROOT
ATOM      1  N   UNL d   1      43.955 -15.525  36.812  0.00  0.00    -0.237 N 
ATOM      2  C   UNL d   1      43.595 -16.225  36.544  0.00  0.00     0.263 A 
ATOM      3  C   UNL d   1      43.366 -14.971  36.974  0.00  0.00     0.263 A 
ATOM      4  C   UNL d   1      42.630 -15.321  36.808  0.00  0.00     0.039 A 
ATOM      5  C   UNL d   1      42.778 -16.099  36.542  0.00  0.00     0.039 A 
ATOM      6  C   UNL d   1      41.852 -15.040  36.862  0.00  0.00     0.049 A 
ATOM      7  C   UNL d   1      42.144 -16.595  36.330  0.00  0.00     0.049 A 
ATOM      8  C   UNL d   1      41.218 -15.535  36.651  0.00  0.00    -0.026 A 
ATOM      9  C   UNL d   1      41.361 -16.312  36.385  0.00  0.00    -0.026 A 
ATOM     10  C   UNL d   1      42.324 -15.638  36.678  0.00  0.00     0.018 A 
ATOM     11  O   UNL d   1      43.479 -14.233  37.241  0.00  0.00    -0.267 OA
ATOM     12  O   UNL d   1      43.960 -16.889  36.331  0.00  0.00    -0.267 OA
ENDROOT
BRANCH   1  13
ATOM     13  C   UNL d   1      44.745 -15.413  36.897  0.00  0.00     0.105 A 
ATOM     14  C   UNL d   1      45.176 -15.628  37.532  0.00  0.00     0.086 A 
ATOM     15  C   UNL d   1      45.928 -15.419  37.393  0.00  0.00     0.014 A 
ATOM     16  C   UNL d   1      45.954 -15.077  36.674  0.00  0.00     0.031 A 
ATOM     17  S   UNL d   1      45.226 -15.073  36.369  0.00  0.00    -0.069 SA
ATOM     18  C   UNL d   1      46.647 -14.809  36.386  0.00  0.00     0.007 C 
BRANCH  14  19
ATOM     19  C   UNL d   1      44.902 -15.985  38.181  0.00  0.00     0.302 C 
ATOM     20  O   UNL d   1      44.406 -15.604  38.668  0.00  0.00    -0.259 OA
BRANCH  19  21
ATOM     21  O   UNL d   1      45.125 -16.732  38.351  0.00  0.00    -0.271 OA
BRANCH  21  22
ATOM     22  C   UNL d   1      44.880 -16.979  39.069  0.00  0.00     0.126 C 
ATOM     23  C   UNL d   1      45.244 -17.589  39.419  0.00  0.00     0.029 C 
ENDBRANCH  21  22
ENDBRANCH  19  21
ENDBRANCH  14  19
ENDBRANCH   1  13
TORSDOF 4
ENDMDL
MODEL 3
REMARK VINA RESULT:      36.1      2.526      4.649
REMARK  4 active torsions:
REMARK  status: ('A' for Active; 'I' for Inactive)
REMARK    1  A    between atoms: C_2  and  N_1 
REMARK    2  A    between atoms: C_12  and  C_5 
REMARK    3  A    between atoms: O_20  and  C_12 
REMARK    4  A    between atoms: C_22  and  O_20 
ROOT
ATOM      1  N   UNL d   1      45.888 -17.622  43.813  0.00  0.00    -0.237 N 
ATOM      2  C   UNL d   1      46.168 -16.965  43.388  0.00  0.00     0.263 A 
ATOM      3  C   UNL d   1      45.403 -17.354  44.423  0.00  0.00     0.263 A 
ATOM      4  C   UNL d   1      45.376 -16.525  44.386  0.00  0.00     0.039 A 
ATOM      5  C   UNL d   1      45.852 -16.288  43.741  0.00  0.00     0.039 A 
ATOM      6  C   UNL d   1      44.985 -15.956  44.846  0.00  0.00     0.049 A 
ATOM      7  C   UNL d   1      45.937 -15.480  43.559  0.00  0.00     0.049 A 
ATOM      8  C   UNL d   1      45.070 -15.148  44.664  0.00  0.00    -0.026 A 
ATOM      9  C   UNL d   1      45.544 -14.908  44.023  0.00  0.00    -0.026 A 
ATOM     10  C   UNL d   1      45.460 -16.097  44.238  0.00  0.00     0.018 A 
ATOM     11  O   UNL d   1      45.027 -17.807  44.955  0.00  0.00    -0.267 OA
ATOM     12  O   UNL d   1      46.647 -16.979  42.763  0.00  0.00    -0.267 OA
ENDROOT
BRANCH   1  13
ATOM     13  C   UNL d   1      46.063 -18.388  43.650  0.00  0.00     0.105 A 
ATOM     14  C   UNL d   1      46.027 -18.727  42.929  0.00  0.00     0.086 A 
ATOM     15  C   UNL d   1      46.244 -19.486  43.010  0.00  0.00     0.014 A 
ATOM     16  C   UNL d   1      46.411 -19.608  43.780  0.00  0.00     0.031 A 
ATOM     17  S   UNL d   1      46.300 -18.932  44.173  0.00  0.00    -0.069 SA
ATOM     18  C   UNL d   1      46.647 -20.328  44.026  0.00  0.00     0.007 C 
BRANCH  14  19
ATOM     19  C   UNL d   1      45.814 -18.371  42.257  0.00  0.00     0.302 C 
ATOM     20  O   UNL d   1      45.093 -18.050  42.186  0.00  0.00    -0.259 OA
BRANCH  19  21
ATOM     21  O   UNL d   1      46.324 -18.333  41.645  0.00  0.00    -0.271 OA
BRANCH  21  22
ATOM     22  C   UNL d   1      46.025 -18.626  40.967  0.00  0.00     0.126 C 
ATOM     23  C   UNL d   1      46.499 -18.727  40.340  0.00  0.00     0.029 C 
ENDBRANCH  21  22
ENDBRANCH  19  21
ENDBRANCH  14  19
ENDBRANCH   1  13
TORSDOF 4
ENDMDL
