MODEL 1
REMARK VINA RESULT:      34.6      0.000      0.000
REMARK  8 active torsions:
REMARK  status: ('A' for Active; 'I' for Inactive)
REMARK    1  A    between atoms: C_2  and  S_1 
REMARK    2  A    between atoms: N_6  and  S_1 
REMARK    3  A    between atoms: C_3  and  C_14 
REMARK       I    between atoms: N_7  and  C_3 
REMARK    4  A    between atoms: C_17  and  N_6 
REMARK    5  A    between atoms: C_14  and  C_19 
REMARK    6  A    between atoms: C_20  and  C_17 
REMARK    7  A    between atoms: C_19  and  C_21 
REMARK    8  A    between atoms: C_21  and  C_20 
ROOT
ATOM      1  N   UNL d   1     -55.705-102.164 -40.096  0.00  0.00    -0.157 NA
ENDROOT
BRANCH   1   2
ATOM      2  S   UNL d   1     -55.618-102.307 -39.285  0.00  0.00     0.285 S 
ATOM      3  O   UNL d   1     -55.249-101.653 -39.641  0.00  0.00    -0.198 OA
ATOM      4  O   UNL d   1     -56.075-102.817 -39.748  0.00  0.00    -0.198 OA
BRANCH   2   5
ATOM      5  C   UNL d   1     -55.530-102.450 -38.473  0.00  0.00     0.105 A 
ATOM      6  C   UNL d   1     -54.807-102.302 -38.101  0.00  0.00     0.013 A 
ATOM      7  C   UNL d   1     -54.721-102.443 -37.302  0.00  0.00     0.001 A 
ATOM      8  C   UNL d   1     -55.350-102.730 -36.870  0.00  0.00     0.000 A 
ATOM      9  C   UNL d   1     -56.074-102.880 -37.233  0.00  0.00     0.001 A 
ATOM     10  C   UNL d   1     -55.259-102.871 -36.059  0.00  0.00     0.000 C 
ATOM     11  C   UNL d   1     -56.160-102.739 -38.033  0.00  0.00     0.013 A 
ENDBRANCH   2   5
ENDBRANCH   1   2
BRANCH   1  12
ATOM     12  C   UNL d   1     -55.536-102.761 -40.643  0.00  0.00     0.112 C 
BRANCH  12  13
ATOM     13  C   UNL d   1     -54.818-102.750 -41.055  0.00  0.00     0.021 C 
BRANCH  13  14
ATOM     14  C   UNL d   1     -54.812-102.853 -41.880  0.00  0.00     0.002 C 
BRANCH  14  15
ATOM     15  C   UNL d   1     -54.712-102.208 -42.381  0.00  0.00     0.005 C 
BRANCH  15  16
ATOM     16  C   UNL d   1     -55.087-102.178 -43.112  0.00  0.00     0.061 C 
BRANCH  16  17
ATOM     17  C   UNL d   1     -55.307-101.452 -43.440  0.00  0.00     0.265 C 
ATOM     18  N   UNL d   1     -55.553-101.412 -44.227  0.00  0.00    -0.269 N 
ATOM     19  C   UNL d   1     -55.772-100.678 -44.552  0.00  0.00     0.102 C 
ATOM     20  C   UNL d   1     -55.581-102.100 -44.686  0.00  0.00     0.102 C 
ATOM     21  O   UNL d   1     -55.278-100.766 -42.978  0.00  0.00    -0.267 OA
ENDBRANCH  16  17
ENDBRANCH  15  16
ENDBRANCH  14  15
ENDBRANCH  13  14
ENDBRANCH  12  13
ENDBRANCH   1  12
TORSDOF 8
ENDMDL
MODEL 2
REMARK VINA RESULT:      36.7      3.090      4.704
REMARK  8 active torsions:
REMARK  status: ('A' for Active; 'I' for Inactive)
REMARK    1  A    between atoms: C_2  and  S_1 
REMARK    2  A    between atoms: N_6  and  S_1 
REMARK    3  A    between atoms: C_3  and  C_14 
REMARK       I    between atoms: N_7  and  C_3 
REMARK    4  A    between atoms: C_17  and  N_6 
REMARK    5  A    between atoms: C_14  and  C_19 
REMARK    6  A    between atoms: C_20  and  C_17 
REMARK    7  A    between atoms: C_19  and  C_21 
REMARK    8  A    between atoms: C_21  and  C_20 
ROOT
ATOM      1  N   UNL d   1     -54.909-100.525 -44.605  0.00  0.00    -0.157 NA
ENDROOT
BRANCH   1   2
ATOM      2  S   UNL d   1     -54.955-100.945 -43.893  0.00  0.00     0.285 S 
ATOM      3  O   UNL d   1     -54.982-101.344 -44.620  0.00  0.00    -0.198 OA
ATOM      4  O   UNL d   1     -54.882-100.121 -43.884  0.00  0.00    -0.198 OA
BRANCH   2   5
ATOM      5  C   UNL d   1     -55.002-101.365 -43.180  0.00  0.00     0.105 A 
ATOM      6  C   UNL d   1     -54.711-101.031 -42.481  0.00  0.00     0.013 A 
ATOM      7  C   UNL d   1     -54.757-101.445 -41.779  0.00  0.00     0.001 A 
ATOM      8  C   UNL d   1     -55.090-102.189 -41.768  0.00  0.00     0.000 A 
ATOM      9  C   UNL d   1     -55.381-102.529 -42.459  0.00  0.00     0.001 A 
ATOM     10  C   UNL d   1     -55.134-102.606 -41.053  0.00  0.00     0.000 C 
ATOM     11  C   UNL d   1     -55.335-102.115 -43.161  0.00  0.00     0.013 A 
ENDBRANCH   2   5
ENDBRANCH   1   2
BRANCH   1  12
ATOM     12  C   UNL d   1     -54.804 -99.704 -44.597  0.00  0.00     0.112 C 
BRANCH  12  13
ATOM     13  C   UNL d   1     -55.399 -99.216 -44.292  0.00  0.00     0.021 C 
BRANCH  13  14
ATOM     14  C   UNL d   1     -56.172 -99.269 -44.591  0.00  0.00     0.002 C 
BRANCH  14  15
ATOM     15  C   UNL d   1     -56.759 -98.758 -44.323  0.00  0.00     0.005 C 
BRANCH  15  16
ATOM     16  C   UNL d   1     -57.507 -98.756 -44.667  0.00  0.00     0.061 C 
BRANCH  16  17
ATOM     17  C   UNL d   1     -58.182 -98.849 -44.199  0.00  0.00     0.265 C 
ATOM     18  N   UNL d   1     -58.928 -98.878 -44.551  0.00  0.00    -0.269 N 
ATOM     19  C   UNL d   1     -59.603 -98.972 -44.075  0.00  0.00     0.102 C 
ATOM     20  C   UNL d   1     -58.998 -98.812 -45.373  0.00  0.00     0.102 C 
ATOM     21  O   UNL d   1     -58.107 -98.914 -43.377  0.00  0.00    -0.267 OA
ENDBRANCH  16  17
ENDBRANCH  15  16
ENDBRANCH  14  15
ENDBRANCH  13  14
ENDBRANCH  12  13
ENDBRANCH   1  12
TORSDOF 8
ENDMDL
