MODEL 1
REMARK VINA RESULT:      -7.6      0.000      0.000
REMARK  4 active torsions:
REMARK  status: ('A' for Active; 'I' for Inactive)
REMARK    1  A    between atoms: S_8  and  C_1 
REMARK    2  A    between atoms: C_2  and  S_7 
REMARK    3  A    between atoms: S_7  and  C_13 
REMARK    4  A    between atoms: C_13  and  S_8 
ROOT
ATOM      1  C   UNL d   1      50.966  34.239  52.919  0.00  0.00     0.128 C 
ENDROOT
BRANCH   1   2
ATOM      2  S   UNL d   1      50.331  34.182  52.396  0.00  0.00    -0.076 SA
BRANCH   2   3
ATOM      3  C   UNL d   1      49.692  34.662  52.526  0.00  0.00     0.137 A 
ATOM      4  N   UNL d   1      49.465  35.093  53.210  0.00  0.00    -0.232 NA
ATOM      5  C   UNL d   1      48.776  35.485  53.042  0.00  0.00     0.088 A 
ATOM      6  C   UNL d   1      48.290  35.988  53.477  0.00  0.00     0.020 A 
ATOM      7  C   UNL d   1      48.561  35.310  52.261  0.00  0.00     0.049 A 
ATOM      8  C   UNL d   1      47.620  36.305  53.157  0.00  0.00     0.002 A 
ATOM      9  C   UNL d   1      47.386  36.147  52.387  0.00  0.00     0.001 A 
ATOM     10  C   UNL d   1      47.875  35.635  51.934  0.00  0.00     0.008 A 
ATOM     11  S   UNL d   1      49.120  34.805  51.940  0.00  0.00    -0.060 SA
ENDBRANCH   2   3
ENDBRANCH   1   2
BRANCH   1  12
ATOM     12  S   UNL d   1      51.686  33.889  52.721  0.00  0.00    -0.076 SA
BRANCH  12  13
ATOM     13  C   UNL d   1      52.288  33.766  53.271  0.00  0.00     0.137 A 
ATOM     14  N   UNL d   1      52.587  34.320  53.758  0.00  0.00    -0.232 NA
ATOM     15  C   UNL d   1      53.166  33.959  54.202  0.00  0.00     0.088 A 
ATOM     16  C   UNL d   1      53.668  34.213  54.784  0.00  0.00     0.020 A 
ATOM     17  C   UNL d   1      53.196  33.172  53.958  0.00  0.00     0.049 A 
ATOM     18  C   UNL d   1      54.214  33.706  55.145  0.00  0.00     0.002 A 
ATOM     19  C   UNL d   1      54.245  32.897  54.893  0.00  0.00     0.001 A 
ATOM     20  C   UNL d   1      53.728  32.640  54.296  0.00  0.00     0.008 A 
ATOM     21  S   UNL d   1      52.635  33.062  53.367  0.00  0.00    -0.060 SA
ENDBRANCH  12  13
ENDBRANCH   1  12
TORSDOF 4
ENDMDL
MODEL 2
REMARK VINA RESULT:      -7.5      0.040      5.260
REMARK  4 active torsions:
REMARK  status: ('A' for Active; 'I' for Inactive)
REMARK    1  A    between atoms: S_8  and  C_1 
REMARK    2  A    between atoms: C_2  and  S_7 
REMARK    3  A    between atoms: S_7  and  C_13 
REMARK    4  A    between atoms: C_13  and  S_8 
ROOT
ATOM      1  C   UNL d   1      50.995  34.242  52.921  0.00  0.00     0.128 C 
ENDROOT
BRANCH   1   2
ATOM      2  S   UNL d   1      51.683  33.851  52.693  0.00  0.00    -0.076 SA
BRANCH   2   3
ATOM      3  C   UNL d   1      52.270  33.768  53.246  0.00  0.00     0.137 A 
ATOM      4  N   UNL d   1      52.583  34.320  53.796  0.00  0.00    -0.232 NA
ATOM      5  C   UNL d   1      53.164  33.950  54.221  0.00  0.00     0.088 A 
ATOM      6  C   UNL d   1      53.665  34.193  54.828  0.00  0.00     0.020 A 
ATOM      7  C   UNL d   1      53.226  33.169  53.950  0.00  0.00     0.049 A 
ATOM      8  C   UNL d   1      54.204  33.690  55.154  0.00  0.00     0.002 A 
ATOM      9  C   UNL d   1      54.284  32.912  54.904  0.00  0.00     0.001 A 
ATOM     10  C   UNL d   1      53.779  32.653  54.286  0.00  0.00     0.008 A 
ATOM     11  S   UNL d   1      52.679  33.052  53.352  0.00  0.00    -0.060 SA
ENDBRANCH   2   3
ENDBRANCH   1   2
BRANCH   1  12
ATOM     12  S   UNL d   1      50.317  34.173  52.456  0.00  0.00    -0.076 SA
BRANCH  12  13
ATOM     13  C   UNL d   1      49.664  34.669  52.544  0.00  0.00     0.137 A 
ATOM     14  N   UNL d   1      49.473  35.066  53.206  0.00  0.00    -0.232 NA
ATOM     15  C   UNL d   1      48.792  35.482  53.045  0.00  0.00     0.088 A 
ATOM     16  C   UNL d   1      48.324  35.983  53.476  0.00  0.00     0.020 A 
ATOM     17  C   UNL d   1      48.590  35.314  52.264  0.00  0.00     0.049 A 
ATOM     18  C   UNL d   1      47.646  36.334  53.157  0.00  0.00     0.002 A 
ATOM     19  C   UNL d   1      47.438  36.161  52.353  0.00  0.00     0.001 A 
ATOM     20  C   UNL d   1      47.920  35.647  51.914  0.00  0.00     0.008 A 
ATOM     21  S   UNL d   1      49.150  34.797  51.956  0.00  0.00    -0.060 SA
ENDBRANCH  12  13
ENDBRANCH   1  12
TORSDOF 4
ENDMDL
MODEL 3
REMARK VINA RESULT:      -7.1      1.665      5.509
REMARK  4 active torsions:
REMARK  status: ('A' for Active; 'I' for Inactive)
REMARK    1  A    between atoms: S_8  and  C_1 
REMARK    2  A    between atoms: C_2  and  S_7 
REMARK    3  A    between atoms: S_7  and  C_13 
REMARK    4  A    between atoms: C_13  and  S_8 
ROOT
ATOM      1  C   UNL d   1      51.666  33.334  52.821  0.00  0.00     0.128 C 
ENDROOT
BRANCH   1   2
ATOM      2  S   UNL d   1      52.465  33.135  52.865  0.00  0.00    -0.076 SA
BRANCH   2   3
ATOM      3  C   UNL d   1      52.652  32.357  52.994  0.00  0.00     0.137 A 
ATOM      4  N   UNL d   1      52.319  31.656  52.673  0.00  0.00    -0.232 NA
ATOM      5  C   UNL d   1      52.713  31.023  52.989  0.00  0.00     0.088 A 
ATOM      6  C   UNL d   1      52.645  30.208  52.893  0.00  0.00     0.020 A 
ATOM      7  C   UNL d   1      53.293  31.311  53.506  0.00  0.00     0.049 A 
ATOM      8  C   UNL d   1      53.127  29.697  53.291  0.00  0.00     0.002 A 
ATOM      9  C   UNL d   1      53.708  29.957  53.808  0.00  0.00     0.001 A 
ATOM     10  C   UNL d   1      53.787  30.786  53.913  0.00  0.00     0.008 A 
ATOM     11  S   UNL d   1      53.260  32.128  53.513  0.00  0.00    -0.060 SA
ENDBRANCH   2   3
ENDBRANCH   1   2
BRANCH   1  12
ATOM     12  S   UNL d   1      51.450  34.127  52.746  0.00  0.00    -0.076 SA
BRANCH  12  13
ATOM     13  C   UNL d   1      50.690  34.363  52.533  0.00  0.00     0.137 A 
ATOM     14  N   UNL d   1      50.359  34.259  51.817  0.00  0.00    -0.232 NA
ATOM     15  C   UNL d   1      49.609  34.575  51.854  0.00  0.00     0.088 A 
ATOM     16  C   UNL d   1      49.002  34.644  51.322  0.00  0.00     0.020 A 
ATOM     17  C   UNL d   1      49.513  34.868  52.618  0.00  0.00     0.049 A 
ATOM     18  C   UNL d   1      48.283  35.001  51.522  0.00  0.00     0.002 A 
ATOM     19  C   UNL d   1      48.184  35.303  52.308  0.00  0.00     0.001 A 
ATOM     20  C   UNL d   1      48.809  35.231  52.850  0.00  0.00     0.008 A 
ATOM     21  S   UNL d   1      50.204  34.729  53.040  0.00  0.00    -0.060 SA
ENDBRANCH  12  13
ENDBRANCH   1  12
TORSDOF 4
ENDMDL
MODEL 4
REMARK VINA RESULT:      -7.1      1.655      2.287
REMARK  4 active torsions:
REMARK  status: ('A' for Active; 'I' for Inactive)
REMARK    1  A    between atoms: S_8  and  C_1 
REMARK    2  A    between atoms: C_2  and  S_7 
REMARK    3  A    between atoms: S_7  and  C_13 
REMARK    4  A    between atoms: C_13  and  S_8 
ROOT
ATOM      1  C   UNL d   1      51.648  33.349  52.799  0.00  0.00     0.128 C 
ENDROOT
BRANCH   1   2
ATOM      2  S   UNL d   1      51.458  34.151  52.802  0.00  0.00    -0.076 SA
BRANCH   2   3
ATOM      3  C   UNL d   1      50.718  34.363  52.550  0.00  0.00     0.137 A 
ATOM      4  N   UNL d   1      50.344  34.258  51.806  0.00  0.00    -0.232 NA
ATOM      5  C   UNL d   1      49.600  34.574  51.852  0.00  0.00     0.088 A 
ATOM      6  C   UNL d   1      48.978  34.641  51.315  0.00  0.00     0.020 A 
ATOM      7  C   UNL d   1      49.494  34.879  52.615  0.00  0.00     0.049 A 
ATOM      8  C   UNL d   1      48.282  34.993  51.521  0.00  0.00     0.002 A 
ATOM      9  C   UNL d   1      48.152  35.302  52.270  0.00  0.00     0.001 A 
ATOM     10  C   UNL d   1      48.779  35.240  52.826  0.00  0.00     0.008 A 
ATOM     11  S   UNL d   1      50.176  34.752  53.048  0.00  0.00    -0.060 SA
ENDBRANCH   2   3
ENDBRANCH   1   2
BRANCH   1  12
ATOM     12  S   UNL d   1      52.437  33.119  52.867  0.00  0.00    -0.076 SA
BRANCH  12  13
ATOM     13  C   UNL d   1      52.664  32.339  53.008  0.00  0.00     0.137 A 
ATOM     14  N   UNL d   1      52.349  31.698  52.657  0.00  0.00    -0.232 NA
ATOM     15  C   UNL d   1      52.737  31.048  52.960  0.00  0.00     0.088 A 
ATOM     16  C   UNL d   1      52.679  30.250  52.833  0.00  0.00     0.020 A 
ATOM     17  C   UNL d   1      53.291  31.332  53.500  0.00  0.00     0.049 A 
ATOM     18  C   UNL d   1      53.160  29.707  53.231  0.00  0.00     0.002 A 
ATOM     19  C   UNL d   1      53.729  30.000  53.788  0.00  0.00     0.001 A 
ATOM     20  C   UNL d   1      53.786  30.818  53.914  0.00  0.00     0.008 A 
ATOM     21  S   UNL d   1      53.235  32.152  53.522  0.00  0.00    -0.060 SA
ENDBRANCH  12  13
ENDBRANCH   1  12
TORSDOF 4
ENDMDL
MODEL 5
REMARK VINA RESULT:      -5.9     10.221     10.898
REMARK  4 active torsions:
REMARK  status: ('A' for Active; 'I' for Inactive)
REMARK    1  A    between atoms: S_8  and  C_1 
REMARK    2  A    between atoms: C_2  and  S_7 
REMARK    3  A    between atoms: S_7  and  C_13 
REMARK    4  A    between atoms: C_13  and  S_8 
ROOT
ATOM      1  C   UNL d   1      44.785  29.931  59.658  0.00  0.00     0.128 C 
ENDROOT
BRANCH   1   2
ATOM      2  S   UNL d   1      44.481  30.634  59.963  0.00  0.00    -0.076 SA
BRANCH   2   3
ATOM      3  C   UNL d   1      44.455  30.714  60.769  0.00  0.00     0.137 A 
ATOM      4  N   UNL d   1      44.490  30.135  61.376  0.00  0.00    -0.232 NA
ATOM      5  C   UNL d   1      44.442  30.515  62.089  0.00  0.00     0.088 A 
ATOM      6  C   UNL d   1      44.446  30.256  62.871  0.00  0.00     0.020 A 
ATOM      7  C   UNL d   1      44.377  31.329  61.946  0.00  0.00     0.049 A 
ATOM      8  C   UNL d   1      44.388  30.775  63.486  0.00  0.00     0.002 A 
ATOM      9  C   UNL d   1      44.322  31.585  63.370  0.00  0.00     0.001 A 
ATOM     10  C   UNL d   1      44.317  31.861  62.577  0.00  0.00     0.008 A 
ATOM     11  S   UNL d   1      44.384  31.456  61.138  0.00  0.00    -0.060 SA
ENDBRANCH   2   3
ENDBRANCH   1   2
BRANCH   1  12
ATOM     12  S   UNL d   1      45.002  29.895  58.863  0.00  0.00    -0.076 SA
BRANCH  12  13
ATOM     13  C   UNL d   1      45.036  29.188  58.441  0.00  0.00     0.137 A 
ATOM     14  N   UNL d   1      45.165  28.469  58.758  0.00  0.00    -0.232 NA
ATOM     15  C   UNL d   1      45.154  27.934  58.144  0.00  0.00     0.088 A 
ATOM     16  C   UNL d   1      45.248  27.131  58.097  0.00  0.00     0.020 A 
ATOM     17  C   UNL d   1      45.014  28.365  57.456  0.00  0.00     0.049 A 
ATOM     18  C   UNL d   1      45.207  26.726  57.377  0.00  0.00     0.002 A 
ATOM     19  C   UNL d   1      45.063  27.170  56.668  0.00  0.00     0.001 A 
ATOM     20  C   UNL d   1      44.967  27.993  56.721  0.00  0.00     0.008 A 
ATOM     21  S   UNL d   1      44.941  29.159  57.656  0.00  0.00    -0.060 SA
ENDBRANCH  12  13
ENDBRANCH   1  12
TORSDOF 4
ENDMDL
MODEL 6
REMARK VINA RESULT:      -5.3     10.501     11.387
REMARK  4 active torsions:
REMARK  status: ('A' for Active; 'I' for Inactive)
REMARK    1  A    between atoms: S_8  and  C_1 
REMARK    2  A    between atoms: C_2  and  S_7 
REMARK    3  A    between atoms: S_7  and  C_13 
REMARK    4  A    between atoms: C_13  and  S_8 
ROOT
ATOM      1  C   UNL d   1      44.623  29.910  60.133  0.00  0.00     0.128 C 
ENDROOT
BRANCH   1   2
ATOM      2  S   UNL d   1      44.627  30.215  60.899  0.00  0.00    -0.076 SA
BRANCH   2   3
ATOM      3  C   UNL d   1      44.570  29.690  61.513  0.00  0.00     0.137 A 
ATOM      4  N   UNL d   1      44.513  28.853  61.511  0.00  0.00    -0.232 NA
ATOM      5  C   UNL d   1      44.469  28.601  62.279  0.00  0.00     0.088 A 
ATOM      6  C   UNL d   1      44.406  27.859  62.630  0.00  0.00     0.020 A 
ATOM      7  C   UNL d   1      44.496  29.267  62.772  0.00  0.00     0.049 A 
ATOM      8  C   UNL d   1      44.371  27.775  63.432  0.00  0.00     0.002 A 
ATOM      9  C   UNL d   1      44.396  28.419  63.941  0.00  0.00     0.001 A 
ATOM     10  C   UNL d   1      44.460  29.181  63.594  0.00  0.00     0.008 A 
ATOM     11  S   UNL d   1      44.557  29.938  62.307  0.00  0.00    -0.060 SA
ENDBRANCH   2   3
ENDBRANCH   1   2
BRANCH   1  12
ATOM     12  S   UNL d   1      44.598  30.428  59.491  0.00  0.00    -0.076 SA
BRANCH  12  13
ATOM     13  C   UNL d   1      44.665  30.173  58.710  0.00  0.00     0.137 A 
ATOM     14  N   UNL d   1      44.768  29.418  58.479  0.00  0.00    -0.232 NA
ATOM     15  C   UNL d   1      44.804  29.423  57.665  0.00  0.00     0.088 A 
ATOM     16  C   UNL d   1      44.900  28.846  57.105  0.00  0.00     0.020 A 
ATOM     17  C   UNL d   1      44.719  30.207  57.428  0.00  0.00     0.049 A 
ATOM     18  C   UNL d   1      44.916  29.019  56.296  0.00  0.00     0.002 A 
ATOM     19  C   UNL d   1      44.828  29.827  56.051  0.00  0.00     0.001 A 
ATOM     20  C   UNL d   1      44.730  30.414  56.629  0.00  0.00     0.008 A 
ATOM     21  S   UNL d   1      44.631  30.674  58.099  0.00  0.00    -0.060 SA
ENDBRANCH  12  13
ENDBRANCH   1  12
TORSDOF 4
ENDMDL
MODEL 7
REMARK VINA RESULT:      -5.2      0.939      5.425
REMARK  4 active torsions:
REMARK  status: ('A' for Active; 'I' for Inactive)
REMARK    1  A    between atoms: S_8  and  C_1 
REMARK    2  A    between atoms: C_2  and  S_7 
REMARK    3  A    between atoms: S_7  and  C_13 
REMARK    4  A    between atoms: C_13  and  S_8 
ROOT
ATOM      1  C   UNL d   1      49.690  34.610  52.412  0.00  0.00     0.128 C 
ENDROOT
BRANCH   1   2
ATOM      2  S   UNL d   1      50.361  34.241  52.108  0.00  0.00    -0.076 SA
BRANCH   2   3
ATOM      3  C   UNL d   1      51.017  34.202  52.581  0.00  0.00     0.137 A 
ATOM      4  N   UNL d   1      51.489  34.814  52.910  0.00  0.00    -0.232 NA
ATOM      5  C   UNL d   1      52.080  34.469  53.343  0.00  0.00     0.088 A 
ATOM      6  C   UNL d   1      52.705  34.770  53.788  0.00  0.00     0.020 A 
ATOM      7  C   UNL d   1      51.991  33.647  53.296  0.00  0.00     0.049 A 
ATOM      8  C   UNL d   1      53.221  34.280  54.170  0.00  0.00     0.002 A 
ATOM      9  C   UNL d   1      53.154  33.463  54.139  0.00  0.00     0.001 A 
ATOM     10  C   UNL d   1      52.520  33.146  53.688  0.00  0.00     0.008 A 
ATOM     11  S   UNL d   1      51.340  33.477  52.830  0.00  0.00    -0.060 SA
ENDBRANCH   2   3
ENDBRANCH   1   2
BRANCH   1  12
ATOM     12  S   UNL d   1      48.991  34.605  51.975  0.00  0.00    -0.076 SA
BRANCH  12  13
ATOM     13  C   UNL d   1      48.347  35.087  52.157  0.00  0.00     0.137 A 
ATOM     14  N   UNL d   1      47.746  35.257  51.664  0.00  0.00    -0.232 NA
ATOM     15  C   UNL d   1      47.239  35.748  52.070  0.00  0.00     0.088 A 
ATOM     16  C   UNL d   1      46.539  36.111  51.884  0.00  0.00     0.020 A 
ATOM     17  C   UNL d   1      47.564  35.860  52.819  0.00  0.00     0.049 A 
ATOM     18  C   UNL d   1      46.137  36.592  52.424  0.00  0.00     0.002 A 
ATOM     19  C   UNL d   1      46.472  36.706  53.194  0.00  0.00     0.001 A 
ATOM     20  C   UNL d   1      47.190  36.333  53.381  0.00  0.00     0.008 A 
ATOM     21  S   UNL d   1      48.267  35.435  52.863  0.00  0.00    -0.060 SA
ENDBRANCH  12  13
ENDBRANCH   1  12
TORSDOF 4
ENDMDL
MODEL 8
REMARK VINA RESULT:      -5.1     10.519     10.926
REMARK  4 active torsions:
REMARK  status: ('A' for Active; 'I' for Inactive)
REMARK    1  A    between atoms: S_8  and  C_1 
REMARK    2  A    between atoms: C_2  and  S_7 
REMARK    3  A    between atoms: S_7  and  C_13 
REMARK    4  A    between atoms: C_13  and  S_8 
ROOT
ATOM      1  C   UNL d   1      44.760  27.249  57.080  0.00  0.00     0.128 C 
ENDROOT
BRANCH   1   2
ATOM      2  S   UNL d   1      44.820  27.970  56.684  0.00  0.00    -0.076 SA
BRANCH   2   3
ATOM      3  C   UNL d   1      44.876  28.642  57.133  0.00  0.00     0.137 A 
ATOM      4  N   UNL d   1      45.142  28.750  57.922  0.00  0.00    -0.232 NA
ATOM      5  C   UNL d   1      45.083  29.538  58.101  0.00  0.00     0.088 A 
ATOM      6  C   UNL d   1      45.255  29.980  58.775  0.00  0.00     0.020 A 
ATOM      7  C   UNL d   1      44.783  29.934  57.438  0.00  0.00     0.049 A 
ATOM      8  C   UNL d   1      45.137  30.779  58.794  0.00  0.00     0.002 A 
ATOM      9  C   UNL d   1      44.841  31.193  58.150  0.00  0.00     0.001 A 
ATOM     10  C   UNL d   1      44.662  30.752  57.458  0.00  0.00     0.008 A 
ATOM     11  S   UNL d   1      44.654  29.389  56.841  0.00  0.00    -0.060 SA
ENDBRANCH   2   3
ENDBRANCH   1   2
BRANCH   1  12
ATOM     12  S   UNL d   1      44.583  26.566  56.654  0.00  0.00    -0.076 SA
BRANCH  12  13
ATOM     13  C   UNL d   1      44.528  25.823  57.005  0.00  0.00     0.137 A 
ATOM     14  N   UNL d   1      44.428  25.687  57.782  0.00  0.00    -0.232 NA
ATOM     15  C   UNL d   1      44.404  24.879  57.880  0.00  0.00     0.088 A 
ATOM     16  C   UNL d   1      44.316  24.394  58.523  0.00  0.00     0.020 A 
ATOM     17  C   UNL d   1      44.495  24.545  57.132  0.00  0.00     0.049 A 
ATOM     18  C   UNL d   1      44.314  23.569  58.453  0.00  0.00     0.002 A 
ATOM     19  C   UNL d   1      44.408  23.226  57.683  0.00  0.00     0.001 A 
ATOM     20  C   UNL d   1      44.498  23.727  57.027  0.00  0.00     0.008 A 
ATOM     21  S   UNL d   1      44.573  25.154  56.585  0.00  0.00    -0.060 SA
ENDBRANCH  12  13
ENDBRANCH   1  12
TORSDOF 4
ENDMDL
MODEL 9
REMARK VINA RESULT:      -4.8      2.961      4.361
REMARK  4 active torsions:
REMARK  status: ('A' for Active; 'I' for Inactive)
REMARK    1  A    between atoms: S_8  and  C_1 
REMARK    2  A    between atoms: C_2  and  S_7 
REMARK    3  A    between atoms: S_7  and  C_13 
REMARK    4  A    between atoms: C_13  and  S_8 
ROOT
ATOM      1  C   UNL d   1      53.078  31.864  53.188  0.00  0.00     0.128 C 
ENDROOT
BRANCH   1   2
ATOM      2  S   UNL d   1      52.659  32.529  52.936  0.00  0.00    -0.076 SA
BRANCH   2   3
ATOM      3  C   UNL d   1      52.778  33.222  53.337  0.00  0.00     0.137 A 
ATOM      4  N   UNL d   1      53.273  33.395  53.993  0.00  0.00    -0.232 NA
ATOM      5  C   UNL d   1      53.182  34.178  54.177  0.00  0.00     0.088 A 
ATOM      6  C   UNL d   1      53.511  34.667  54.753  0.00  0.00     0.020 A 
ATOM      7  C   UNL d   1      52.635  34.508  53.648  0.00  0.00     0.049 A 
ATOM      8  C   UNL d   1      53.311  35.447  54.805  0.00  0.00     0.002 A 
ATOM      9  C   UNL d   1      52.772  35.796  54.294  0.00  0.00     0.001 A 
ATOM     10  C   UNL d   1      52.430  35.307  53.703  0.00  0.00     0.008 A 
ATOM     11  S   UNL d   1      52.384  33.926  53.131  0.00  0.00    -0.060 SA
ENDBRANCH   2   3
ENDBRANCH   1   2
BRANCH   1  12
ATOM     12  S   UNL d   1      52.767  31.113  53.050  0.00  0.00    -0.076 SA
BRANCH  12  13
ATOM     13  C   UNL d   1      52.946  30.462  53.523  0.00  0.00     0.137 A 
ATOM     14  N   UNL d   1      52.749  30.383  54.290  0.00  0.00    -0.232 NA
ATOM     15  C   UNL d   1      53.034  29.660  54.534  0.00  0.00     0.088 A 
ATOM     16  C   UNL d   1      53.017  29.258  55.237  0.00  0.00     0.020 A 
ATOM     17  C   UNL d   1      53.405  29.319  53.882  0.00  0.00     0.049 A 
ATOM     18  C   UNL d   1      53.363  28.512  55.323  0.00  0.00     0.002 A 
ATOM     19  C   UNL d   1      53.745  28.160  54.653  0.00  0.00     0.001 A 
ATOM     20  C   UNL d   1      53.760  28.576  53.934  0.00  0.00     0.008 A 
ATOM     21  S   UNL d   1      53.343  29.836  53.247  0.00  0.00    -0.060 SA
ENDBRANCH  12  13
ENDBRANCH   1  12
TORSDOF 4
ENDMDL
