MODEL 1
REMARK VINA RESULT:      -7.8      0.000      0.000
REMARK  2 active torsions:
REMARK  status: ('A' for Active; 'I' for Inactive)
REMARK    1  A    between atoms: N_9  and  C_2 
REMARK    2  A    between atoms: C_11  and  N_9 
ROOT
ATOM      1  C   UNL d   1     -47.127  12.312  23.376  0.00  0.00     0.154 A 
ATOM      2  C   UNL d   1     -47.815  12.728  23.208  0.00  0.00     0.185 A 
ATOM      3  C   UNL d   1     -46.393  12.685  23.320  0.00  0.00     0.186 A 
ATOM      4  N   UNL d   1     -47.001  11.531  23.608  0.00  0.00    -0.218 NA
ATOM      5  N   UNL d   1     -45.815  12.133  23.519  0.00  0.00    -0.203 NA
ATOM      6  N   UNL d   1     -47.771  13.521  22.984  0.00  0.00    -0.203 NA
ATOM      7  N   UNL d   1     -46.347  13.474  23.098  0.00  0.00    -0.203 NA
ATOM      8  C   UNL d   1     -46.185  11.427  23.695  0.00  0.00     0.201 A 
ATOM      9  C   UNL d   1     -47.037  13.894  22.929  0.00  0.00     0.202 A 
ENDROOT
BRANCH   2  10
ATOM     10  N   UNL d   1     -48.548  12.355  23.263  0.00  0.00    -0.225 NA
BRANCH  10  11
ATOM     11  C   UNL d   1     -49.173  12.601  22.790  0.00  0.00     0.083 A 
ATOM     12  C   UNL d   1     -49.255  12.306  22.024  0.00  0.00     0.021 A 
ATOM     13  C   UNL d   1     -49.876  12.550  21.553  0.00  0.00     0.031 A 
ATOM     14  C   UNL d   1     -50.431  13.099  21.844  0.00  0.00     0.140 A 
ATOM     15  C   UNL d   1     -50.350  13.394  22.610  0.00  0.00     0.031 A 
ATOM     16  F   UNL d   1     -51.064  13.350  21.371  0.00  0.00    -0.204 F 
ATOM     17  C   UNL d   1     -49.721  13.145  23.084  0.00  0.00     0.021 A 
ENDBRANCH  10  11
ENDBRANCH   2  10
TORSDOF 2
ENDMDL
MODEL 2
REMARK VINA RESULT:      -7.5      1.905      3.518
REMARK  2 active torsions:
REMARK  status: ('A' for Active; 'I' for Inactive)
REMARK    1  A    between atoms: N_9  and  C_2 
REMARK    2  A    between atoms: C_11  and  N_9 
ROOT
ATOM      1  C   UNL d   1     -49.525  12.667  22.951  0.00  0.00     0.154 A 
ATOM      2  C   UNL d   1     -48.868  13.099  22.716  0.00  0.00     0.185 A 
ATOM      3  C   UNL d   1     -50.110  12.471  22.403  0.00  0.00     0.186 A 
ATOM      4  N   UNL d   1     -49.748  12.360  23.683  0.00  0.00    -0.218 NA
ATOM      5  N   UNL d   1     -50.692  12.043  22.797  0.00  0.00    -0.203 NA
ATOM      6  N   UNL d   1     -48.791  13.337  21.929  0.00  0.00    -0.203 NA
ATOM      7  N   UNL d   1     -50.037  12.707  21.619  0.00  0.00    -0.203 NA
ATOM      8  C   UNL d   1     -50.472  11.974  23.581  0.00  0.00     0.201 A 
ATOM      9  C   UNL d   1     -49.376  13.141  21.381  0.00  0.00     0.202 A 
ENDROOT
BRANCH   2  10
ATOM     10  N   UNL d   1     -48.283  13.295  23.264  0.00  0.00    -0.225 NA
BRANCH  10  11
ATOM     11  C   UNL d   1     -47.510  13.417  23.017  0.00  0.00     0.083 A 
ATOM     12  C   UNL d   1     -47.243  14.180  22.852  0.00  0.00     0.021 A 
ATOM     13  C   UNL d   1     -46.473  14.303  22.606  0.00  0.00     0.031 A 
ATOM     14  C   UNL d   1     -45.954  13.657  22.521  0.00  0.00     0.140 A 
ATOM     15  C   UNL d   1     -46.220  12.894  22.686  0.00  0.00     0.031 A 
ATOM     16  F   UNL d   1     -45.171  13.775  22.271  0.00  0.00    -0.204 F 
ATOM     17  C   UNL d   1     -46.999  12.774  22.934  0.00  0.00     0.021 A 
ENDBRANCH  10  11
ENDBRANCH   2  10
TORSDOF 2
ENDMDL
MODEL 3
REMARK VINA RESULT:      -7.5      2.120      3.857
REMARK  2 active torsions:
REMARK  status: ('A' for Active; 'I' for Inactive)
REMARK    1  A    between atoms: N_9  and  C_2 
REMARK    2  A    between atoms: C_11  and  N_9 
ROOT
ATOM      1  C   UNL d   1     -49.153  14.738  22.700  0.00  0.00     0.154 A 
ATOM      2  C   UNL d   1     -48.495  14.276  22.536  0.00  0.00     0.185 A 
ATOM      3  C   UNL d   1     -49.846  14.640  22.264  0.00  0.00     0.186 A 
ATOM      4  N   UNL d   1     -49.282  15.333  23.257  0.00  0.00    -0.218 NA
ATOM      5  N   UNL d   1     -50.403  15.175  22.552  0.00  0.00    -0.203 NA
ATOM      6  N   UNL d   1     -48.527  13.713  21.934  0.00  0.00    -0.203 NA
ATOM      7  N   UNL d   1     -49.882  14.080  21.664  0.00  0.00    -0.203 NA
ATOM      8  C   UNL d   1     -50.059  15.599  23.159  0.00  0.00     0.201 A 
ATOM      9  C   UNL d   1     -49.220  13.615  21.498  0.00  0.00     0.202 A 
ENDROOT
BRANCH   2  10
ATOM     10  N   UNL d   1     -47.801  14.374  22.972  0.00  0.00    -0.225 NA
BRANCH  10  11
ATOM     11  C   UNL d   1     -47.239  13.775  22.994  0.00  0.00     0.083 A 
ATOM     12  C   UNL d   1     -47.354  13.116  23.477  0.00  0.00     0.021 A 
ATOM     13  C   UNL d   1     -46.795  12.520  23.500  0.00  0.00     0.031 A 
ATOM     14  C   UNL d   1     -46.107  12.575  23.035  0.00  0.00     0.140 A 
ATOM     15  C   UNL d   1     -45.992  13.233  22.551  0.00  0.00     0.031 A 
ATOM     16  F   UNL d   1     -45.536  11.973  23.053  0.00  0.00    -0.204 F 
ATOM     17  C   UNL d   1     -46.558  13.834  22.531  0.00  0.00     0.021 A 
ENDBRANCH  10  11
ENDBRANCH   2  10
TORSDOF 2
ENDMDL
MODEL 4
REMARK VINA RESULT:      -5.2      8.462      9.696
REMARK  2 active torsions:
REMARK  status: ('A' for Active; 'I' for Inactive)
REMARK    1  A    between atoms: N_9  and  C_2 
REMARK    2  A    between atoms: C_11  and  N_9 
ROOT
ATOM      1  C   UNL d   1     -39.074  13.889  18.109  0.00  0.00     0.154 A 
ATOM      2  C   UNL d   1     -39.492  14.429  18.566  0.00  0.00     0.185 A 
ATOM      3  C   UNL d   1     -39.200  13.851  17.295  0.00  0.00     0.186 A 
ATOM      4  N   UNL d   1     -38.505  13.326  18.307  0.00  0.00    -0.218 NA
ATOM      5  N   UNL d   1     -38.708  13.265  16.991  0.00  0.00    -0.203 NA
ATOM      6  N   UNL d   1     -40.039  14.934  18.209  0.00  0.00    -0.203 NA
ATOM      7  N   UNL d   1     -39.744  14.353  16.937  0.00  0.00    -0.203 NA
ATOM      8  C   UNL d   1     -38.282  12.943  17.609  0.00  0.00     0.201 A 
ATOM      9  C   UNL d   1     -40.164  14.896  17.395  0.00  0.00     0.202 A 
ENDROOT
BRANCH   2  10
ATOM     10  N   UNL d   1     -39.366  14.467  19.380  0.00  0.00    -0.225 NA
BRANCH  10  11
ATOM     11  C   UNL d   1     -39.940  14.788  19.872  0.00  0.00     0.083 A 
ATOM     12  C   UNL d   1     -40.526  14.306  20.196  0.00  0.00     0.021 A 
ATOM     13  C   UNL d   1     -41.097  14.624  20.686  0.00  0.00     0.031 A 
ATOM     14  C   UNL d   1     -41.091  15.439  20.860  0.00  0.00     0.140 A 
ATOM     15  C   UNL d   1     -40.506  15.921  20.536  0.00  0.00     0.031 A 
ATOM     16  F   UNL d   1     -41.669  15.769  21.357  0.00  0.00    -0.204 F 
ATOM     17  C   UNL d   1     -39.930  15.596  20.042  0.00  0.00     0.021 A 
ENDBRANCH  10  11
ENDBRANCH   2  10
TORSDOF 2
ENDMDL
MODEL 5
REMARK VINA RESULT:      -5.1      8.798     10.102
REMARK  2 active torsions:
REMARK  status: ('A' for Active; 'I' for Inactive)
REMARK    1  A    between atoms: N_9  and  C_2 
REMARK    2  A    between atoms: C_11  and  N_9 
ROOT
ATOM      1  C   UNL d   1     -40.288  14.841  19.755  0.00  0.00     0.154 A 
ATOM      2  C   UNL d   1     -39.929  14.841  19.017  0.00  0.00     0.185 A 
ATOM      3  C   UNL d   1     -40.049  15.380  20.332  0.00  0.00     0.186 A 
ATOM      4  N   UNL d   1     -40.890  14.375  20.074  0.00  0.00    -0.218 NA
ATOM      5  N   UNL d   1     -40.504  15.247  21.005  0.00  0.00    -0.203 NA
ATOM      6  N   UNL d   1     -39.328  15.382  18.851  0.00  0.00    -0.203 NA
ATOM      7  N   UNL d   1     -39.452  15.921  20.170  0.00  0.00    -0.203 NA
ATOM      8  C   UNL d   1     -41.019  14.633  20.849  0.00  0.00     0.201 A 
ATOM      9  C   UNL d   1     -39.090  15.922  19.428  0.00  0.00     0.202 A 
ENDROOT
BRANCH   2  10
ATOM     10  N   UNL d   1     -40.167  14.301  18.441  0.00  0.00    -0.225 NA
BRANCH  10  11
ATOM     11  C   UNL d   1     -39.647  14.075  17.846  0.00  0.00     0.083 A 
ATOM     12  C   UNL d   1     -39.622  14.494  17.136  0.00  0.00     0.021 A 
ATOM     13  C   UNL d   1     -39.105  14.270  16.544  0.00  0.00     0.031 A 
ATOM     14  C   UNL d   1     -38.601  13.617  16.655  0.00  0.00     0.140 A 
ATOM     15  C   UNL d   1     -38.626  13.198  17.365  0.00  0.00     0.031 A 
ATOM     16  F   UNL d   1     -38.074  13.384  16.058  0.00  0.00    -0.204 F 
ATOM     17  C   UNL d   1     -39.149  13.427  17.961  0.00  0.00     0.021 A 
ENDBRANCH  10  11
ENDBRANCH   2  10
TORSDOF 2
ENDMDL
MODEL 6
REMARK VINA RESULT:      -5.0      8.215      9.269
REMARK  2 active torsions:
REMARK  status: ('A' for Active; 'I' for Inactive)
REMARK    1  A    between atoms: N_9  and  C_2 
REMARK    2  A    between atoms: C_11  and  N_9 
ROOT
ATOM      1  C   UNL d   1     -39.438  14.524  20.509  0.00  0.00     0.154 A 
ATOM      2  C   UNL d   1     -39.843  14.935  19.925  0.00  0.00     0.185 A 
ATOM      3  C   UNL d   1     -39.787  14.398  21.245  0.00  0.00     0.186 A 
ATOM      4  N   UNL d   1     -38.689  14.177  20.518  0.00  0.00    -0.218 NA
ATOM      5  N   UNL d   1     -39.254  13.974  21.709  0.00  0.00    -0.203 NA
ATOM      6  N   UNL d   1     -40.601  15.224  20.076  0.00  0.00    -0.203 NA
ATOM      7  N   UNL d   1     -40.542  14.684  21.399  0.00  0.00    -0.203 NA
ATOM      8  C   UNL d   1     -38.582  13.838  21.265  0.00  0.00     0.201 A 
ATOM      9  C   UNL d   1     -40.950  15.099  20.813  0.00  0.00     0.202 A 
ENDROOT
BRANCH   2  10
ATOM     10  N   UNL d   1     -39.493  15.061  19.189  0.00  0.00    -0.225 NA
BRANCH  10  11
ATOM     11  C   UNL d   1     -39.959  15.120  18.515  0.00  0.00     0.083 A 
ATOM     12  C   UNL d   1     -40.162  14.442  18.091  0.00  0.00     0.021 A 
ATOM     13  C   UNL d   1     -40.626  14.500  17.420  0.00  0.00     0.031 A 
ATOM     14  C   UNL d   1     -40.896  15.244  17.161  0.00  0.00     0.140 A 
ATOM     15  C   UNL d   1     -40.693  15.922  17.586  0.00  0.00     0.031 A 
ATOM     16  F   UNL d   1     -41.367  15.310  16.482  0.00  0.00    -0.204 F 
ATOM     17  C   UNL d   1     -40.224  15.860  18.263  0.00  0.00     0.021 A 
ENDBRANCH  10  11
ENDBRANCH   2  10
TORSDOF 2
ENDMDL
