MODEL 1
REMARK VINA RESULT:      49.5      0.000      0.000
REMARK  6 active torsions:
REMARK  status: ('A' for Active; 'I' for Inactive)
REMARK    1  A    between atoms: S_2  and  N_1 
REMARK    2  A    between atoms: C_11  and  S_2 
REMARK    3  A    between atoms: O_8  and  C_5 
REMARK    4  A    between atoms: C_7  and  O_8 
REMARK    5  A    between atoms: C_12  and  C_7 
REMARK    6  A    between atoms: O_20  and  C_17 
ROOT
ATOM      1  N   UNL d   1     -50.970  26.292  33.508  0.00  0.00    -0.130 N 
ATOM      2  N   UNL d   1     -50.159  26.359  33.636  0.00  0.00    -0.128 NA
ATOM      3  C   UNL d   1     -51.288  27.045  33.437  0.00  0.00     0.200 A 
ATOM      4  C   UNL d   1     -49.975  27.167  33.643  0.00  0.00     0.208 A 
ATOM      5  C   UNL d   1     -50.664  27.586  33.522  0.00  0.00     0.088 A 
ATOM      6  N   UNL d   1     -52.079  27.229  33.306  0.00  0.00    -0.126 N 
ENDROOT
BRANCH   4   7
ATOM      7  O   UNL d   1     -49.221  27.491  33.755  0.00  0.00    -0.253 OA
BRANCH   7   8
ATOM      8  C   UNL d   1     -48.884  27.503  34.508  0.00  0.00     0.301 C 
ATOM      9  O   UNL d   1     -48.882  26.824  34.972  0.00  0.00    -0.259 OA
BRANCH   8  10
ATOM     10  C   UNL d   1     -48.547  28.197  34.801  0.00  0.00     0.064 A 
ATOM     11  C   UNL d   1     -48.594  28.383  35.607  0.00  0.00     0.007 A 
ATOM     12  C   UNL d   1     -48.261  29.071  35.902  0.00  0.00     0.024 A 
ATOM     13  C   UNL d   1     -47.872  29.590  35.385  0.00  0.00     0.094 A 
ATOM     14  C   UNL d   1     -47.825  29.404  34.579  0.00  0.00     0.024 A 
ATOM     15  C   UNL d   1     -48.160  28.713  34.285  0.00  0.00     0.007 A 
BRANCH  13  16
ATOM     16  O   UNL d   1     -47.535  30.279  35.661  0.00  0.00    -0.328 OA
ATOM     17  C   UNL d   1     -47.250  30.859  35.151  0.00  0.00     0.181 C 
ENDBRANCH  13  16
ENDBRANCH   8  10
ENDBRANCH   7   8
ENDBRANCH   4   7
BRANCH   1  18
ATOM     18  S   UNL d   1     -51.391  25.585  33.460  0.00  0.00     0.287 S 
ATOM     19  O   UNL d   1     -52.113  25.980  33.611  0.00  0.00    -0.198 OA
ATOM     20  O   UNL d   1     -50.694  25.195  33.314  0.00  0.00    -0.198 OA
BRANCH  18  21
ATOM     21  C   UNL d   1     -51.797  24.870  33.409  0.00  0.00     0.105 A 
ATOM     22  C   UNL d   1     -51.381  24.155  33.411  0.00  0.00     0.013 A 
ATOM     23  C   UNL d   1     -51.792  23.441  33.360  0.00  0.00     0.001 A 
ATOM     24  C   UNL d   1     -52.612  23.438  33.307  0.00  0.00     0.000 A 
ATOM     25  C   UNL d   1     -53.025  24.151  33.306  0.00  0.00     0.001 A 
ATOM     26  C   UNL d   1     -52.625  24.871  33.356  0.00  0.00     0.013 A 
ENDBRANCH  18  21
ENDBRANCH   1  18
TORSDOF 6
ENDMDL
MODEL 2
REMARK VINA RESULT:      51.6      0.858      1.504
REMARK  6 active torsions:
REMARK  status: ('A' for Active; 'I' for Inactive)
REMARK    1  A    between atoms: S_2  and  N_1 
REMARK    2  A    between atoms: C_11  and  S_2 
REMARK    3  A    between atoms: O_8  and  C_5 
REMARK    4  A    between atoms: C_7  and  O_8 
REMARK    5  A    between atoms: C_12  and  C_7 
REMARK    6  A    between atoms: O_20  and  C_17 
ROOT
ATOM      1  N   UNL d   1     -50.960  25.389  33.557  0.00  0.00    -0.130 N 
ATOM      2  N   UNL d   1     -50.946  26.200  33.698  0.00  0.00    -0.128 NA
ATOM      3  C   UNL d   1     -50.188  25.123  33.469  0.00  0.00     0.200 A 
ATOM      4  C   UNL d   1     -50.152  26.438  33.698  0.00  0.00     0.208 A 
ATOM      5  C   UNL d   1     -49.690  25.780  33.558  0.00  0.00     0.088 A 
ATOM      6  N   UNL d   1     -49.954  24.348  33.320  0.00  0.00    -0.126 N 
ENDROOT
BRANCH   4   7
ATOM      7  O   UNL d   1     -49.877  27.209  33.819  0.00  0.00    -0.253 OA
BRANCH   7   8
ATOM      8  C   UNL d   1     -49.069  27.349  33.915  0.00  0.00     0.301 C 
ATOM      9  O   UNL d   1     -48.522  26.948  33.450  0.00  0.00    -0.259 OA
BRANCH   8  10
ATOM     10  C   UNL d   1     -48.806  27.892  34.478  0.00  0.00     0.064 A 
ATOM     11  C   UNL d   1     -48.479  28.617  34.246  0.00  0.00     0.007 A 
ATOM     12  C   UNL d   1     -48.217  29.159  34.801  0.00  0.00     0.024 A 
ATOM     13  C   UNL d   1     -48.280  28.979  35.608  0.00  0.00     0.094 A 
ATOM     14  C   UNL d   1     -48.607  28.254  35.840  0.00  0.00     0.024 A 
ATOM     15  C   UNL d   1     -48.869  27.712  35.281  0.00  0.00     0.007 A 
BRANCH  13  16
ATOM     16  O   UNL d   1     -48.024  29.507  36.174  0.00  0.00    -0.328 OA
ATOM     17  C   UNL d   1     -47.406  30.032  36.032  0.00  0.00     0.181 C 
ENDBRANCH  13  16
ENDBRANCH   8  10
ENDBRANCH   7   8
ENDBRANCH   4   7
BRANCH   1  18
ATOM     18  S   UNL d   1     -51.638  24.921  33.511  0.00  0.00     0.287 S 
ATOM     19  O   UNL d   1     -51.183  24.220  33.545  0.00  0.00    -0.198 OA
ATOM     20  O   UNL d   1     -52.086  25.598  33.477  0.00  0.00    -0.198 OA
BRANCH  18  21
ATOM     21  C   UNL d   1     -52.325  24.469  33.464  0.00  0.00     0.105 A 
ATOM     22  C   UNL d   1     -53.058  24.837  33.352  0.00  0.00     0.013 A 
ATOM     23  C   UNL d   1     -53.743  24.380  33.306  0.00  0.00     0.001 A 
ATOM     24  C   UNL d   1     -53.701  23.562  33.370  0.00  0.00     0.000 A 
ATOM     25  C   UNL d   1     -52.971  23.197  33.481  0.00  0.00     0.001 A 
ATOM     26  C   UNL d   1     -52.278  23.644  33.529  0.00  0.00     0.013 A 
ENDBRANCH  18  21
ENDBRANCH   1  18
TORSDOF 6
ENDMDL
