MODEL 1
REMARK VINA RESULT:      -8.9      0.000      0.000
REMARK  4 active torsions:
REMARK  status: ('A' for Active; 'I' for Inactive)
REMARK    1  A    between atoms: S_13  and  C_7 
REMARK       I    between atoms: N_10  and  C_12 
REMARK    2  A    between atoms: C_25  and  C_11 
REMARK    3  A    between atoms: C_12  and  C_16 
REMARK    4  A    between atoms: C_16  and  S_13 
ROOT
ATOM      1  N   UNL d   1      52.800  31.901  53.178  0.00  0.00    -0.224 N 
ATOM      2  N   UNL d   1      53.715  32.762  53.878  0.00  0.00    -0.241 N 
ATOM      3  C   UNL d   1      53.511  32.012  53.600  0.00  0.00     0.343 A 
ATOM      4  C   UNL d   1      53.207  33.401  53.733  0.00  0.00     0.160 A 
ATOM      5  C   UNL d   1      52.298  32.541  53.037  0.00  0.00     0.273 A 
ATOM      6  C   UNL d   1      52.502  33.291  53.315  0.00  0.00     0.115 A 
ATOM      7  C   UNL d   1      52.000  33.931  53.174  0.00  0.00     0.120 A 
ATOM      8  N   UNL d   1      53.408  34.158  54.011  0.00  0.00    -0.209 NA
ATOM      9  N   UNL d   1      52.200  34.680  53.449  0.00  0.00    -0.220 NA
ATOM     10  C   UNL d   1      52.907  34.798  53.871  0.00  0.00     0.165 A 
ATOM     11  O   UNL d   1      54.013  31.368  53.740  0.00  0.00    -0.245 OA
ATOM     12  O   UNL d   1      51.595  32.427  52.618  0.00  0.00    -0.266 OA
ATOM     13  C   UNL d   1      52.604  31.152  52.904  0.00  0.00     0.107 C 
ATOM     14  C   UNL d   1      54.419  32.871  54.296  0.00  0.00     0.105 C 
ENDROOT
BRANCH   7  15
ATOM     15  S   UNL d   1      51.297  33.817  52.755  0.00  0.00    -0.062 SA
BRANCH  15  16
ATOM     16  C   UNL d   1      50.686  34.372  52.813  0.00  0.00     0.098 C 
BRANCH  16  17
ATOM     17  C   UNL d   1      50.119  34.429  52.217  0.00  0.00     0.271 C 
ATOM     18  N   UNL d   1      49.424  34.847  52.344  0.00  0.00    -0.272 N 
ATOM     19  C   UNL d   1      49.302  35.205  53.060  0.00  0.00     0.083 A 
ATOM     20  C   UNL d   1      48.856  34.906  51.752  0.00  0.00     0.083 A 
ATOM     21  C   UNL d   1      48.597  35.632  53.196  0.00  0.00     0.019 A 
ATOM     22  C   UNL d   1      48.026  35.690  52.598  0.00  0.00     0.003 A 
ATOM     23  C   UNL d   1      48.162  35.321  51.871  0.00  0.00     0.019 A 
ATOM     24  C   UNL d   1      47.334  36.110  52.731  0.00  0.00     0.000 C 
ATOM     25  O   UNL d   1      50.250  34.058  51.480  0.00  0.00    -0.266 OA
ENDBRANCH  16  17
ENDBRANCH  15  16
ENDBRANCH   7  15
BRANCH  10  26
ATOM     26  C   UNL d   1      53.106  35.552  54.147  0.00  0.00     0.039 C 
ATOM     27  C   UNL d   1      52.886  35.789  54.906  0.00  0.00     0.003 C 
ENDBRANCH  10  26
TORSDOF 4
ENDMDL
MODEL 2
REMARK VINA RESULT:      -8.4      1.786      4.792
REMARK  4 active torsions:
REMARK  status: ('A' for Active; 'I' for Inactive)
REMARK    1  A    between atoms: S_13  and  C_7 
REMARK       I    between atoms: N_10  and  C_12 
REMARK    2  A    between atoms: C_25  and  C_11 
REMARK    3  A    between atoms: C_12  and  C_16 
REMARK    4  A    between atoms: C_16  and  S_13 
ROOT
ATOM      1  N   UNL d   1      51.642  34.226  53.256  0.00  0.00    -0.224 N 
ATOM      2  N   UNL d   1      52.596  34.971  54.032  0.00  0.00    -0.241 N 
ATOM      3  C   UNL d   1      51.868  34.929  53.645  0.00  0.00     0.343 A 
ATOM      4  C   UNL d   1      53.097  34.311  54.030  0.00  0.00     0.160 A 
ATOM      5  C   UNL d   1      52.145  33.572  53.257  0.00  0.00     0.273 A 
ATOM      6  C   UNL d   1      52.873  33.614  53.644  0.00  0.00     0.115 A 
ATOM      7  C   UNL d   1      53.376  32.960  53.645  0.00  0.00     0.120 A 
ATOM      8  N   UNL d   1      53.831  34.349  54.419  0.00  0.00    -0.209 NA
ATOM      9  N   UNL d   1      54.102  32.999  54.030  0.00  0.00    -0.220 NA
ATOM     10  C   UNL d   1      54.334  33.696  54.420  0.00  0.00     0.165 A 
ATOM     11  O   UNL d   1      51.362  35.584  53.642  0.00  0.00    -0.245 OA
ATOM     12  O   UNL d   1      51.918  32.878  52.870  0.00  0.00    -0.266 OA
ATOM     13  C   UNL d   1      50.917  34.191  52.872  0.00  0.00     0.107 C 
ATOM     14  C   UNL d   1      52.820  35.667  54.418  0.00  0.00     0.105 C 
ENDROOT
BRANCH   7  15
ATOM     15  S   UNL d   1      53.148  32.266  53.259  0.00  0.00    -0.062 SA
BRANCH  15  16
ATOM     16  C   UNL d   1      53.504  31.546  53.457  0.00  0.00     0.098 C 
BRANCH  16  17
ATOM     17  C   UNL d   1      53.201  30.839  53.161  0.00  0.00     0.271 C 
ATOM     18  N   UNL d   1      53.227  30.154  53.614  0.00  0.00    -0.272 N 
ATOM     19  C   UNL d   1      53.554  30.181  54.354  0.00  0.00     0.083 A 
ATOM     20  C   UNL d   1      52.926  29.446  53.321  0.00  0.00     0.083 A 
ATOM     21  C   UNL d   1      53.584  29.488  54.820  0.00  0.00     0.019 A 
ATOM     22  C   UNL d   1      53.280  28.776  54.524  0.00  0.00     0.003 A 
ATOM     23  C   UNL d   1      52.949  28.761  53.767  0.00  0.00     0.019 A 
ATOM     24  C   UNL d   1      53.309  28.096  54.981  0.00  0.00     0.000 C 
ATOM     25  O   UNL d   1      52.865  30.816  52.397  0.00  0.00    -0.266 OA
ENDBRANCH  16  17
ENDBRANCH  15  16
ENDBRANCH   7  15
BRANCH  10  26
ATOM     26  C   UNL d   1      55.065  33.732  54.807  0.00  0.00     0.039 C 
ATOM     27  C   UNL d   1      55.101  33.715  55.631  0.00  0.00     0.003 C 
ENDBRANCH  10  26
TORSDOF 4
ENDMDL
MODEL 3
REMARK VINA RESULT:      -7.6      1.252      2.390
REMARK  4 active torsions:
REMARK  status: ('A' for Active; 'I' for Inactive)
REMARK    1  A    between atoms: S_13  and  C_7 
REMARK       I    between atoms: N_10  and  C_12 
REMARK    2  A    between atoms: C_25  and  C_11 
REMARK    3  A    between atoms: C_12  and  C_16 
REMARK    4  A    between atoms: C_16  and  S_13 
ROOT
ATOM      1  N   UNL d   1      53.735  34.506  54.655  0.00  0.00    -0.224 N 
ATOM      2  N   UNL d   1      54.218  33.202  54.292  0.00  0.00    -0.241 N 
ATOM      3  C   UNL d   1      54.319  33.911  54.700  0.00  0.00     0.343 A 
ATOM      4  C   UNL d   1      53.534  33.087  53.837  0.00  0.00     0.160 A 
ATOM      5  C   UNL d   1      53.056  34.387  54.200  0.00  0.00     0.273 A 
ATOM      6  C   UNL d   1      52.956  33.677  53.792  0.00  0.00     0.115 A 
ATOM      7  C   UNL d   1      52.277  33.558  53.338  0.00  0.00     0.120 A 
ATOM      8  N   UNL d   1      53.429  32.373  53.424  0.00  0.00    -0.209 NA
ATOM      9  N   UNL d   1      52.174  32.851  52.929  0.00  0.00    -0.220 NA
ATOM     10  C   UNL d   1      52.750  32.253  52.970  0.00  0.00     0.165 A 
ATOM     11  O   UNL d   1      54.999  34.033  55.157  0.00  0.00    -0.245 OA
ATOM     12  O   UNL d   1      52.482  34.979  54.158  0.00  0.00    -0.266 OA
ATOM     13  C   UNL d   1      53.842  35.210  55.064  0.00  0.00     0.107 C 
ATOM     14  C   UNL d   1      54.795  32.612  54.337  0.00  0.00     0.105 C 
ENDROOT
BRANCH   7  15
ATOM     15  S   UNL d   1      51.702  34.149  53.295  0.00  0.00    -0.062 SA
BRANCH  15  16
ATOM     16  C   UNL d   1      51.007  34.021  52.865  0.00  0.00     0.098 C 
BRANCH  16  17
ATOM     17  C   UNL d   1      50.344  34.492  52.999  0.00  0.00     0.271 C 
ATOM     18  N   UNL d   1      49.767  34.572  52.420  0.00  0.00    -0.272 N 
ATOM     19  C   UNL d   1      49.858  34.184  51.714  0.00  0.00     0.083 A 
ATOM     20  C   UNL d   1      49.104  35.040  52.551  0.00  0.00     0.083 A 
ATOM     21  C   UNL d   1      49.276  34.261  51.121  0.00  0.00     0.019 A 
ATOM     22  C   UNL d   1      48.608  34.733  51.254  0.00  0.00     0.003 A 
ATOM     23  C   UNL d   1      48.527  35.124  51.978  0.00  0.00     0.019 A 
ATOM     24  C   UNL d   1      48.036  34.809  50.672  0.00  0.00     0.000 C 
ATOM     25  O   UNL d   1      50.255  34.889  53.728  0.00  0.00    -0.266 OA
ENDBRANCH  16  17
ENDBRANCH  15  16
ENDBRANCH   7  15
BRANCH  10  26
ATOM     26  C   UNL d   1      52.644  31.544  52.558  0.00  0.00     0.039 C 
ATOM     27  C   UNL d   1      52.569  30.832  52.968  0.00  0.00     0.003 C 
ENDBRANCH  10  26
TORSDOF 4
ENDMDL
MODEL 4
REMARK VINA RESULT:      -7.5      1.812      4.738
REMARK  4 active torsions:
REMARK  status: ('A' for Active; 'I' for Inactive)
REMARK    1  A    between atoms: S_13  and  C_7 
REMARK       I    between atoms: N_10  and  C_12 
REMARK    2  A    between atoms: C_25  and  C_11 
REMARK    3  A    between atoms: C_12  and  C_16 
REMARK    4  A    between atoms: C_16  and  S_13 
ROOT
ATOM      1  N   UNL d   1      54.181  33.954  54.641  0.00  0.00    -0.224 N 
ATOM      2  N   UNL d   1      53.144  34.898  54.324  0.00  0.00    -0.241 N 
ATOM      3  C   UNL d   1      53.836  34.709  54.731  0.00  0.00     0.343 A 
ATOM      4  C   UNL d   1      52.797  34.333  53.826  0.00  0.00     0.160 A 
ATOM      5  C   UNL d   1      53.832  33.396  54.144  0.00  0.00     0.273 A 
ATOM      6  C   UNL d   1      53.139  33.585  53.737  0.00  0.00     0.115 A 
ATOM      7  C   UNL d   1      52.790  33.027  53.240  0.00  0.00     0.120 A 
ATOM      8  N   UNL d   1      52.100  34.520  53.413  0.00  0.00    -0.209 NA
ATOM      9  N   UNL d   1      52.100  33.212  52.832  0.00  0.00    -0.220 NA
ATOM     10  C   UNL d   1      51.750  33.962  52.917  0.00  0.00     0.165 A 
ATOM     11  O   UNL d   1      54.189  35.268  55.230  0.00  0.00    -0.245 OA
ATOM     12  O   UNL d   1      54.176  32.650  54.058  0.00  0.00    -0.266 OA
ATOM     13  C   UNL d   1      54.870  33.773  55.050  0.00  0.00     0.107 C 
ATOM     14  C   UNL d   1      52.802  35.646  54.413  0.00  0.00     0.105 C 
ENDROOT
BRANCH   7  15
ATOM     15  S   UNL d   1      53.134  32.281  53.154  0.00  0.00    -0.062 SA
BRANCH  15  16
ATOM     16  C   UNL d   1      52.689  31.599  53.300  0.00  0.00     0.098 C 
BRANCH  16  17
ATOM     17  C   UNL d   1      52.929  30.873  52.993  0.00  0.00     0.271 C 
ATOM     18  N   UNL d   1      53.049  30.230  53.490  0.00  0.00    -0.272 N 
ATOM     19  C   UNL d   1      52.929  30.318  54.287  0.00  0.00     0.083 A 
ATOM     20  C   UNL d   1      53.289  29.504  53.187  0.00  0.00     0.083 A 
ATOM     21  C   UNL d   1      53.049  29.669  54.798  0.00  0.00     0.019 A 
ATOM     22  C   UNL d   1      53.290  28.938  54.491  0.00  0.00     0.003 A 
ATOM     23  C   UNL d   1      53.409  28.861  53.676  0.00  0.00     0.019 A 
ATOM     24  C   UNL d   1      53.408  28.300  54.993  0.00  0.00     0.000 C 
ATOM     25  O   UNL d   1      53.052  30.788  52.171  0.00  0.00    -0.266 OA
ENDBRANCH  16  17
ENDBRANCH  15  16
ENDBRANCH   7  15
BRANCH  10  26
ATOM     26  C   UNL d   1      51.056  34.146  52.506  0.00  0.00     0.039 C 
ATOM     27  C   UNL d   1      50.330  34.154  52.898  0.00  0.00     0.003 C 
ENDBRANCH  10  26
TORSDOF 4
ENDMDL
MODEL 5
REMARK VINA RESULT:      -7.3      9.600     10.699
REMARK  4 active torsions:
REMARK  status: ('A' for Active; 'I' for Inactive)
REMARK    1  A    between atoms: S_13  and  C_7 
REMARK       I    between atoms: N_10  and  C_12 
REMARK    2  A    between atoms: C_25  and  C_11 
REMARK    3  A    between atoms: C_12  and  C_16 
REMARK    4  A    between atoms: C_16  and  S_13 
ROOT
ATOM      1  N   UNL d   1      44.491  31.351  57.041  0.00  0.00    -0.224 N 
ATOM      2  N   UNL d   1      44.695  30.086  56.389  0.00  0.00    -0.241 N 
ATOM      3  C   UNL d   1      44.518  30.891  56.345  0.00  0.00     0.343 A 
ATOM      4  C   UNL d   1      44.846  29.742  57.128  0.00  0.00     0.160 A 
ATOM      5  C   UNL d   1      44.641  31.003  57.774  0.00  0.00     0.273 A 
ATOM      6  C   UNL d   1      44.819  30.198  57.817  0.00  0.00     0.115 A 
ATOM      7  C   UNL d   1      44.969  29.850  58.550  0.00  0.00     0.120 A 
ATOM      8  N   UNL d   1      45.025  28.931  57.176  0.00  0.00    -0.209 NA
ATOM      9  N   UNL d   1      45.146  29.048  58.597  0.00  0.00    -0.220 NA
ATOM     10  C   UNL d   1      45.175  28.582  57.908  0.00  0.00     0.165 A 
ATOM     11  O   UNL d   1      44.367  31.243  55.611  0.00  0.00    -0.245 OA
ATOM     12  O   UNL d   1      44.613  31.462  58.461  0.00  0.00    -0.266 OA
ATOM     13  C   UNL d   1      44.314  32.151  56.991  0.00  0.00     0.107 C 
ATOM     14  C   UNL d   1      44.722  29.630  55.700  0.00  0.00     0.105 C 
ENDROOT
BRANCH   7  15
ATOM     15  S   UNL d   1      44.941  30.309  59.237  0.00  0.00    -0.062 SA
BRANCH  15  16
ATOM     16  C   UNL d   1      44.848  29.946  59.974  0.00  0.00     0.098 C 
BRANCH  16  17
ATOM     17  C   UNL d   1      44.834  30.401  60.662  0.00  0.00     0.271 C 
ATOM     18  N   UNL d   1      44.704  30.047  61.391  0.00  0.00    -0.272 N 
ATOM     19  C   UNL d   1      44.591  29.245  61.428  0.00  0.00     0.083 A 
ATOM     20  C   UNL d   1      44.689  30.497  62.079  0.00  0.00     0.083 A 
ATOM     21  C   UNL d   1      44.459  28.879  62.167  0.00  0.00     0.019 A 
ATOM     22  C   UNL d   1      44.444  29.334  62.859  0.00  0.00     0.003 A 
ATOM     23  C   UNL d   1      44.560  30.151  62.808  0.00  0.00     0.019 A 
ATOM     24  C   UNL d   1      44.314  28.975  63.584  0.00  0.00     0.000 C 
ATOM     25  O   UNL d   1      44.950  31.226  60.618  0.00  0.00    -0.266 OA
ENDBRANCH  16  17
ENDBRANCH  15  16
ENDBRANCH   7  15
BRANCH  10  26
ATOM     26  C   UNL d   1      45.353  27.776  57.958  0.00  0.00     0.039 C 
ATOM     27  C   UNL d   1      44.748  27.215  57.949  0.00  0.00     0.003 C 
ENDBRANCH  10  26
TORSDOF 4
ENDMDL
MODEL 6
REMARK VINA RESULT:      -6.5     10.066     10.870
REMARK  4 active torsions:
REMARK  status: ('A' for Active; 'I' for Inactive)
REMARK    1  A    between atoms: S_13  and  C_7 
REMARK       I    between atoms: N_10  and  C_12 
REMARK    2  A    between atoms: C_25  and  C_11 
REMARK    3  A    between atoms: C_12  and  C_16 
REMARK    4  A    between atoms: C_16  and  S_13 
ROOT
ATOM      1  N   UNL d   1      45.173  27.298  58.038  0.00  0.00    -0.224 N 
ATOM      2  N   UNL d   1      45.036  28.268  56.986  0.00  0.00    -0.241 N 
ATOM      3  C   UNL d   1      45.197  27.496  57.228  0.00  0.00     0.343 A 
ATOM      4  C   UNL d   1      44.850  28.842  57.554  0.00  0.00     0.160 A 
ATOM      5  C   UNL d   1      44.988  27.874  58.600  0.00  0.00     0.273 A 
ATOM      6  C   UNL d   1      44.826  28.646  58.357  0.00  0.00     0.115 A 
ATOM      7  C   UNL d   1      44.641  29.222  58.918  0.00  0.00     0.120 A 
ATOM      8  N   UNL d   1      44.687  29.622  57.314  0.00  0.00    -0.209 NA
ATOM      9  N   UNL d   1      44.479  29.993  58.681  0.00  0.00    -0.220 NA
ATOM     10  C   UNL d   1      44.501  30.198  57.874  0.00  0.00     0.165 A 
ATOM     11  O   UNL d   1      45.384  26.916  56.666  0.00  0.00    -0.245 OA
ATOM     12  O   UNL d   1      44.965  27.675  59.401  0.00  0.00    -0.266 OA
ATOM     13  C   UNL d   1      45.335  26.528  58.272  0.00  0.00     0.107 C 
ATOM     14  C   UNL d   1      45.060  28.464  56.183  0.00  0.00     0.105 C 
ENDROOT
BRANCH   7  15
ATOM     15  S   UNL d   1      44.618  29.023  59.720  0.00  0.00    -0.062 SA
BRANCH  15  16
ATOM     16  C   UNL d   1      44.403  29.590  60.282  0.00  0.00     0.098 C 
BRANCH  16  17
ATOM     17  C   UNL d   1      44.372  29.391  61.081  0.00  0.00     0.271 C 
ATOM     18  N   UNL d   1      44.358  29.978  61.656  0.00  0.00    -0.272 N 
ATOM     19  C   UNL d   1      44.377  30.755  61.428  0.00  0.00     0.083 A 
ATOM     20  C   UNL d   1      44.327  29.783  62.454  0.00  0.00     0.083 A 
ATOM     21  C   UNL d   1      44.364  31.357  62.006  0.00  0.00     0.019 A 
ATOM     22  C   UNL d   1      44.332  31.159  62.811  0.00  0.00     0.003 A 
ATOM     23  C   UNL d   1      44.314  30.362  63.030  0.00  0.00     0.019 A 
ATOM     24  C   UNL d   1      44.319  31.750  63.379  0.00  0.00     0.000 C 
ATOM     25  O   UNL d   1      44.353  28.588  61.311  0.00  0.00    -0.266 OA
ENDBRANCH  16  17
ENDBRANCH  15  16
ENDBRANCH   7  15
BRANCH  10  26
ATOM     26  C   UNL d   1      44.339  30.974  57.638  0.00  0.00     0.039 C 
ATOM     27  C   UNL d   1      44.953  31.478  57.414  0.00  0.00     0.003 C 
ENDBRANCH  10  26
TORSDOF 4
ENDMDL
MODEL 7
REMARK VINA RESULT:      -6.0      2.458      6.091
REMARK  4 active torsions:
REMARK  status: ('A' for Active; 'I' for Inactive)
REMARK    1  A    between atoms: S_13  and  C_7 
REMARK       I    between atoms: N_10  and  C_12 
REMARK    2  A    between atoms: C_25  and  C_11 
REMARK    3  A    between atoms: C_12  and  C_16 
REMARK    4  A    between atoms: C_16  and  S_13 
ROOT
ATOM      1  N   UNL d   1      45.751  35.680  51.438  0.00  0.00    -0.224 N 
ATOM      2  N   UNL d   1      45.438  36.332  52.680  0.00  0.00    -0.241 N 
ATOM      3  C   UNL d   1      45.200  36.056  51.940  0.00  0.00     0.343 A 
ATOM      4  C   UNL d   1      46.226  36.232  52.919  0.00  0.00     0.160 A 
ATOM      5  C   UNL d   1      46.534  35.583  51.680  0.00  0.00     0.273 A 
ATOM      6  C   UNL d   1      46.771  35.859  52.421  0.00  0.00     0.115 A 
ATOM      7  C   UNL d   1      47.554  35.762  52.663  0.00  0.00     0.120 A 
ATOM      8  N   UNL d   1      46.469  36.509  53.664  0.00  0.00    -0.209 NA
ATOM      9  N   UNL d   1      47.794  36.036  53.401  0.00  0.00    -0.220 NA
ATOM     10  C   UNL d   1      47.251  36.413  53.907  0.00  0.00     0.165 A 
ATOM     11  O   UNL d   1      44.415  36.153  51.694  0.00  0.00    -0.245 OA
ATOM     12  O   UNL d   1      47.075  35.209  51.181  0.00  0.00    -0.266 OA
ATOM     13  C   UNL d   1      45.508  35.407  50.703  0.00  0.00     0.107 C 
ATOM     14  C   UNL d   1      44.893  36.706  53.178  0.00  0.00     0.105 C 
ENDROOT
BRANCH   7  15
ATOM     15  S   UNL d   1      48.095  35.389  52.164  0.00  0.00    -0.062 SA
BRANCH  15  16
ATOM     16  C   UNL d   1      48.830  35.146  52.456  0.00  0.00     0.098 C 
BRANCH  16  17
ATOM     17  C   UNL d   1      49.373  34.775  51.959  0.00  0.00     0.271 C 
ATOM     18  N   UNL d   1      50.091  34.507  52.254  0.00  0.00    -0.272 N 
ATOM     19  C   UNL d   1      50.261  34.612  53.039  0.00  0.00     0.083 A 
ATOM     20  C   UNL d   1      50.635  34.137  51.760  0.00  0.00     0.083 A 
ATOM     21  C   UNL d   1      50.989  34.342  53.345  0.00  0.00     0.019 A 
ATOM     22  C   UNL d   1      51.536  33.969  52.847  0.00  0.00     0.003 A 
ATOM     23  C   UNL d   1      51.351  33.868  52.048  0.00  0.00     0.019 A 
ATOM     24  C   UNL d   1      52.251  33.704  53.148  0.00  0.00     0.000 C 
ATOM     25  O   UNL d   1      49.193  34.669  51.150  0.00  0.00    -0.266 OA
ENDBRANCH  16  17
ENDBRANCH  15  16
ENDBRANCH   7  15
BRANCH  10  26
ATOM     26  C   UNL d   1      47.495  36.688  54.648  0.00  0.00     0.039 C 
ATOM     27  C   UNL d   1      46.964  36.709  55.279  0.00  0.00     0.003 C 
ENDBRANCH  10  26
TORSDOF 4
ENDMDL
