MODEL 1
REMARK VINA RESULT:      -5.5      0.000      0.000
REMARK  9 active torsions:
REMARK  status: ('A' for Active; 'I' for Inactive)
REMARK    1  A    between atoms: N_2  and  C_1 
REMARK       I    between atoms: C_4  and  N_2 
REMARK    2  A    between atoms: C_7  and  C_4 
REMARK    3  A    between atoms: C_8  and  C_5 
REMARK    4  A    between atoms: C_10  and  C_8 
REMARK       I    between atoms: N_12  and  C_10 
REMARK    5  A    between atoms: C_11  and  C_19 
REMARK    6  A    between atoms: C_19  and  N_12 
REMARK    7  A    between atoms: O_23  and  C_17 
REMARK    8  A    between atoms: O_24  and  C_18 
REMARK    9  A    between atoms: O_22  and  C_20 
ROOT
ATOM      1  C   UNL d   1     -45.410  12.932  22.468  0.00  0.00     0.197 A 
ATOM      2  N   UNL d   1     -44.984  13.310  21.858  0.00  0.00    -0.220 NA
ATOM      3  C   UNL d   1     -44.307  12.873  21.709  0.00  0.00     0.095 A 
ATOM      4  S   UNL d   1     -44.980  12.264  22.684  0.00  0.00    -0.046 SA
ATOM      5  C   UNL d   1     -44.302  12.225  22.219  0.00  0.00     0.058 A 
ENDROOT
BRANCH   1   6
ATOM      6  N   UNL d   1     -46.121  13.190  22.783  0.00  0.00    -0.183 NA
ATOM      7  C   UNL d   1     -46.824  13.083  22.379  0.00  0.00     0.281 C 
ATOM      8  O   UNL d   1     -46.829  12.710  21.637  0.00  0.00    -0.265 OA
BRANCH   7   9
ATOM      9  C   UNL d   1     -47.543  13.342  22.695  0.00  0.00     0.062 A 
ATOM     10  C   UNL d   1     -48.059  12.817  23.039  0.00  0.00     0.029 A 
ATOM     11  C   UNL d   1     -48.772  13.081  23.351  0.00  0.00     0.096 A 
ATOM     12  C   UNL d   1     -48.964  13.885  23.315  0.00  0.00     0.048 A 
ATOM     13  C   UNL d   1     -48.437  14.406  22.966  0.00  0.00     0.096 A 
ATOM     14  C   UNL d   1     -47.726  14.151  22.654  0.00  0.00     0.029 A 
BRANCH  11  15
ATOM     15  O   UNL d   1     -49.294  12.552  23.698  0.00  0.00    -0.328 OA
ATOM     16  C   UNL d   1     -49.962  12.289  23.278  0.00  0.00     0.181 C 
ENDBRANCH  11  15
BRANCH  13  17
ATOM     17  O   UNL d   1     -48.619  15.216  22.924  0.00  0.00    -0.328 OA
ATOM     18  C   UNL d   1     -49.059  15.508  22.291  0.00  0.00     0.181 C 
ENDBRANCH  13  17
ENDBRANCH   7   9
ENDBRANCH   1   6
BRANCH   3  19
ATOM     19  C   UNL d   1     -43.728  13.049  21.147  0.00  0.00     0.082 C 
BRANCH  19  20
ATOM     20  C   UNL d   1     -42.929  13.057  21.363  0.00  0.00     0.281 C 
ATOM     21  N   UNL d   1     -42.456  13.692  21.143  0.00  0.00    -0.206 NA
ATOM     22  O   UNL d   1     -42.621  12.430  21.795  0.00  0.00    -0.265 OA
BRANCH  21  23
ATOM     23  C   UNL d   1     -41.666  13.699  21.357  0.00  0.00     0.104 C 
BRANCH  23  24
ATOM     24  C   UNL d   1     -41.185  14.337  21.145  0.00  0.00     0.042 A 
ATOM     25  C   UNL d   1     -40.377  14.322  21.326  0.00  0.00     0.096 A 
ATOM     26  C   UNL d   1     -39.891  14.948  21.121  0.00  0.00     0.024 A 
ATOM     27  C   UNL d   1     -40.206  15.601  20.731  0.00  0.00     0.002 A 
ATOM     28  C   UNL d   1     -41.009  15.624  20.547  0.00  0.00     0.000 A 
ATOM     29  C   UNL d   1     -41.500  14.994  20.753  0.00  0.00     0.004 A 
BRANCH  25  30
ATOM     30  O   UNL d   1     -40.050  13.665  21.720  0.00  0.00    -0.328 OA
ATOM     31  C   UNL d   1     -39.258  13.667  21.957  0.00  0.00     0.181 C 
ENDBRANCH  25  30
ENDBRANCH  23  24
ENDBRANCH  21  23
ENDBRANCH  19  20
ENDBRANCH   3  19
TORSDOF 9
ENDMDL
MODEL 2
REMARK VINA RESULT:      -5.4      1.240      1.935
REMARK  9 active torsions:
REMARK  status: ('A' for Active; 'I' for Inactive)
REMARK    1  A    between atoms: N_2  and  C_1 
REMARK       I    between atoms: C_4  and  N_2 
REMARK    2  A    between atoms: C_7  and  C_4 
REMARK    3  A    between atoms: C_8  and  C_5 
REMARK    4  A    between atoms: C_10  and  C_8 
REMARK       I    between atoms: N_12  and  C_10 
REMARK    5  A    between atoms: C_11  and  C_19 
REMARK    6  A    between atoms: C_19  and  N_12 
REMARK    7  A    between atoms: O_23  and  C_17 
REMARK    8  A    between atoms: O_24  and  C_18 
REMARK    9  A    between atoms: O_22  and  C_20 
ROOT
ATOM      1  C   UNL d   1     -44.700  12.915  21.923  0.00  0.00     0.197 A 
ATOM      2  N   UNL d   1     -44.053  13.430  21.818  0.00  0.00    -0.220 NA
ATOM      3  C   UNL d   1     -43.366  12.982  21.812  0.00  0.00     0.095 A 
ATOM      4  S   UNL d   1     -44.395  12.153  21.981  0.00  0.00    -0.046 SA
ATOM      5  C   UNL d   1     -43.576  12.191  21.913  0.00  0.00     0.058 A 
ENDROOT
BRANCH   1   6
ATOM      6  N   UNL d   1     -45.487  13.140  21.961  0.00  0.00    -0.183 NA
ATOM      7  C   UNL d   1     -45.919  13.046  22.649  0.00  0.00     0.281 C 
ATOM      8  O   UNL d   1     -45.565  12.718  23.325  0.00  0.00    -0.265 OA
BRANCH   7   9
ATOM      9  C   UNL d   1     -46.714  13.271  22.690  0.00  0.00     0.062 A 
ATOM     10  C   UNL d   1     -46.921  14.054  22.753  0.00  0.00     0.029 A 
ATOM     11  C   UNL d   1     -47.712  14.271  22.793  0.00  0.00     0.096 A 
ATOM     12  C   UNL d   1     -48.301  13.689  22.770  0.00  0.00     0.048 A 
ATOM     13  C   UNL d   1     -48.081  12.903  22.707  0.00  0.00     0.096 A 
ATOM     14  C   UNL d   1     -47.295  12.679  22.666  0.00  0.00     0.029 A 
BRANCH  11  15
ATOM     15  O   UNL d   1     -47.923  15.061  22.857  0.00  0.00    -0.328 OA
ATOM     16  C   UNL d   1     -48.470  15.391  22.323  0.00  0.00     0.181 C 
ENDBRANCH  11  15
BRANCH  13  17
ATOM     17  O   UNL d   1     -48.663  12.309  22.682  0.00  0.00    -0.328 OA
ATOM     18  C   UNL d   1     -48.995  12.027  23.382  0.00  0.00     0.181 C 
ENDBRANCH  13  17
ENDBRANCH   7   9
ENDBRANCH   1   6
BRANCH   3  19
ATOM     19  C   UNL d   1     -42.598  13.270  21.721  0.00  0.00     0.082 C 
BRANCH  19  20
ATOM     20  C   UNL d   1     -42.282  13.375  20.963  0.00  0.00     0.281 C 
ATOM     21  N   UNL d   1     -41.705  13.947  20.840  0.00  0.00    -0.206 NA
ATOM     22  O   UNL d   1     -42.549  12.905  20.344  0.00  0.00    -0.265 OA
BRANCH  21  23
ATOM     23  C   UNL d   1     -41.393  14.051  20.090  0.00  0.00     0.104 C 
BRANCH  23  24
ATOM     24  C   UNL d   1     -40.833  14.643  19.952  0.00  0.00     0.042 A 
ATOM     25  C   UNL d   1     -40.479  14.710  19.207  0.00  0.00     0.096 A 
ATOM     26  C   UNL d   1     -39.923  15.293  19.058  0.00  0.00     0.024 A 
ATOM     27  C   UNL d   1     -39.713  15.820  19.654  0.00  0.00     0.002 A 
ATOM     28  C   UNL d   1     -40.061  15.760  20.399  0.00  0.00     0.000 A 
ATOM     29  C   UNL d   1     -40.621  15.173  20.550  0.00  0.00     0.004 A 
BRANCH  25  30
ATOM     30  O   UNL d   1     -40.686  14.180  18.598  0.00  0.00    -0.328 OA
ATOM     31  C   UNL d   1     -40.381  14.275  17.835  0.00  0.00     0.181 C 
ENDBRANCH  25  30
ENDBRANCH  23  24
ENDBRANCH  21  23
ENDBRANCH  19  20
ENDBRANCH   3  19
TORSDOF 9
ENDMDL
MODEL 3
REMARK VINA RESULT:      -4.6      1.302      6.958
REMARK  9 active torsions:
REMARK  status: ('A' for Active; 'I' for Inactive)
REMARK    1  A    between atoms: N_2  and  C_1 
REMARK       I    between atoms: C_4  and  N_2 
REMARK    2  A    between atoms: C_7  and  C_4 
REMARK    3  A    between atoms: C_8  and  C_5 
REMARK    4  A    between atoms: C_10  and  C_8 
REMARK       I    between atoms: N_12  and  C_10 
REMARK    5  A    between atoms: C_11  and  C_19 
REMARK    6  A    between atoms: C_19  and  N_12 
REMARK    7  A    between atoms: O_23  and  C_17 
REMARK    8  A    between atoms: O_24  and  C_18 
REMARK    9  A    between atoms: O_22  and  C_20 
ROOT
ATOM      1  C   UNL d   1     -42.595  13.404  21.471  0.00  0.00     0.197 A 
ATOM      2  N   UNL d   1     -43.398  13.602  21.365  0.00  0.00    -0.220 NA
ATOM      3  C   UNL d   1     -43.845  12.922  21.458  0.00  0.00     0.095 A 
ATOM      4  S   UNL d   1     -42.565  12.595  21.627  0.00  0.00    -0.046 SA
ATOM      5  C   UNL d   1     -43.331  12.297  21.620  0.00  0.00     0.058 A 
ENDROOT
BRANCH   1   6
ATOM      6  N   UNL d   1     -41.964  13.925  21.424  0.00  0.00    -0.183 NA
ATOM      7  C   UNL d   1     -41.516  13.984  20.742  0.00  0.00     0.281 C 
ATOM      8  O   UNL d   1     -41.694  13.513  20.081  0.00  0.00    -0.265 OA
BRANCH   7   9
ATOM      9  C   UNL d   1     -40.879  14.509  20.692  0.00  0.00     0.062 A 
ATOM     10  C   UNL d   1     -40.619  14.911  21.348  0.00  0.00     0.029 A 
ATOM     11  C   UNL d   1     -39.986  15.431  21.291  0.00  0.00     0.096 A 
ATOM     12  C   UNL d   1     -39.611  15.546  20.562  0.00  0.00     0.048 A 
ATOM     13  C   UNL d   1     -39.881  15.136  19.907  0.00  0.00     0.096 A 
ATOM     14  C   UNL d   1     -40.511  14.616  19.956  0.00  0.00     0.029 A 
BRANCH  11  15
ATOM     15  O   UNL d   1     -39.722  15.838  21.953  0.00  0.00    -0.328 OA
ATOM     16  C   UNL d   1     -39.061  15.561  22.377  0.00  0.00     0.181 C 
ENDBRANCH  11  15
BRANCH  13  17
ATOM     17  O   UNL d   1     -39.514  15.242  19.169  0.00  0.00    -0.328 OA
ATOM     18  C   UNL d   1     -39.664  15.922  18.726  0.00  0.00     0.181 C 
ENDBRANCH  13  17
ENDBRANCH   7   9
ENDBRANCH   1   6
BRANCH   3  19
ATOM     19  C   UNL d   1     -44.667  12.868  21.399  0.00  0.00     0.082 C 
BRANCH  19  20
ATOM     20  C   UNL d   1     -45.132  12.874  22.084  0.00  0.00     0.281 C 
ATOM     21  N   UNL d   1     -45.837  13.296  22.090  0.00  0.00    -0.206 NA
ATOM     22  O   UNL d   1     -44.882  12.459  22.747  0.00  0.00    -0.265 OA
BRANCH  21  23
ATOM     23  C   UNL d   1     -46.298  13.303  22.768  0.00  0.00     0.104 C 
BRANCH  23  24
ATOM     24  C   UNL d   1     -46.991  13.751  22.793  0.00  0.00     0.042 A 
ATOM     25  C   UNL d   1     -47.694  13.406  23.063  0.00  0.00     0.096 A 
ATOM     26  C   UNL d   1     -48.389  13.839  23.092  0.00  0.00     0.024 A 
ATOM     27  C   UNL d   1     -48.391  14.627  22.851  0.00  0.00     0.002 A 
ATOM     28  C   UNL d   1     -47.695  14.976  22.581  0.00  0.00     0.000 A 
ATOM     29  C   UNL d   1     -46.995  14.541  22.551  0.00  0.00     0.004 A 
BRANCH  25  30
ATOM     30  O   UNL d   1     -47.701  12.610  23.309  0.00  0.00    -0.328 OA
ATOM     31  C   UNL d   1     -48.409  12.241  23.526  0.00  0.00     0.181 C 
ENDBRANCH  25  30
ENDBRANCH  23  24
ENDBRANCH  21  23
ENDBRANCH  19  20
ENDBRANCH   3  19
TORSDOF 9
ENDMDL
MODEL 4
REMARK VINA RESULT:      -4.5      1.151      7.109
REMARK  9 active torsions:
REMARK  status: ('A' for Active; 'I' for Inactive)
REMARK    1  A    between atoms: N_2  and  C_1 
REMARK       I    between atoms: C_4  and  N_2 
REMARK    2  A    between atoms: C_7  and  C_4 
REMARK    3  A    between atoms: C_8  and  C_5 
REMARK    4  A    between atoms: C_10  and  C_8 
REMARK       I    between atoms: N_12  and  C_10 
REMARK    5  A    between atoms: C_11  and  C_19 
REMARK    6  A    between atoms: C_19  and  N_12 
REMARK    7  A    between atoms: O_23  and  C_17 
REMARK    8  A    between atoms: O_24  and  C_18 
REMARK    9  A    between atoms: O_22  and  C_20 
ROOT
ATOM      1  C   UNL d   1     -43.044  13.335  21.581  0.00  0.00     0.197 A 
ATOM      2  N   UNL d   1     -43.839  13.558  21.468  0.00  0.00    -0.220 NA
ATOM      3  C   UNL d   1     -44.313  12.909  21.628  0.00  0.00     0.095 A 
ATOM      4  S   UNL d   1     -43.046  12.543  21.810  0.00  0.00    -0.046 SA
ATOM      5  C   UNL d   1     -43.824  12.280  21.840  0.00  0.00     0.058 A 
ENDROOT
BRANCH   1   6
ATOM      6  N   UNL d   1     -42.392  13.821  21.479  0.00  0.00    -0.183 NA
ATOM      7  C   UNL d   1     -41.904  13.739  20.828  0.00  0.00     0.281 C 
ATOM      8  O   UNL d   1     -42.061  13.159  20.255  0.00  0.00    -0.265 OA
BRANCH   7   9
ATOM      9  C   UNL d   1     -41.246  14.229  20.722  0.00  0.00     0.062 A 
ATOM     10  C   UNL d   1     -41.258  14.831  20.177  0.00  0.00     0.029 A 
ATOM     11  C   UNL d   1     -40.600  15.313  20.078  0.00  0.00     0.096 A 
ATOM     12  C   UNL d   1     -39.922  15.185  20.535  0.00  0.00     0.048 A 
ATOM     13  C   UNL d   1     -39.920  14.575  21.081  0.00  0.00     0.096 A 
ATOM     14  C   UNL d   1     -40.571  14.091  21.186  0.00  0.00     0.029 A 
BRANCH  11  15
ATOM     15  O   UNL d   1     -40.612  15.922  19.527  0.00  0.00    -0.328 OA
ATOM     16  C   UNL d   1     -40.498  15.756  18.720  0.00  0.00     0.181 C 
ENDBRANCH  11  15
BRANCH  13  17
ATOM     17  O   UNL d   1     -39.245  14.436  21.546  0.00  0.00    -0.328 OA
ATOM     18  C   UNL d   1     -38.824  15.070  21.864  0.00  0.00     0.181 C 
ENDBRANCH  13  17
ENDBRANCH   7   9
ENDBRANCH   1   6
BRANCH   3  19
ATOM     19  C   UNL d   1     -45.138  12.887  21.585  0.00  0.00     0.082 C 
BRANCH  19  20
ATOM     20  C   UNL d   1     -45.593  13.190  22.207  0.00  0.00     0.281 C 
ATOM     21  N   UNL d   1     -46.348  12.893  22.338  0.00  0.00    -0.206 NA
ATOM     22  O   UNL d   1     -45.284  13.784  22.683  0.00  0.00    -0.265 OA
BRANCH  21  23
ATOM     23  C   UNL d   1     -46.798  13.194  22.952  0.00  0.00     0.104 C 
BRANCH  23  24
ATOM     24  C   UNL d   1     -47.502  12.820  23.171  0.00  0.00     0.042 A 
ATOM     25  C   UNL d   1     -48.208  13.253  23.193  0.00  0.00     0.096 A 
ATOM     26  C   UNL d   1     -48.912  12.894  23.408  0.00  0.00     0.024 A 
ATOM     27  C   UNL d   1     -48.922  12.095  23.604  0.00  0.00     0.002 A 
ATOM     28  C   UNL d   1     -48.223  11.657  23.584  0.00  0.00     0.000 A 
ATOM     29  C   UNL d   1     -47.514  12.017  23.368  0.00  0.00     0.004 A 
BRANCH  25  30
ATOM     30  O   UNL d   1     -48.208  14.062  22.996  0.00  0.00    -0.328 OA
ATOM     31  C   UNL d   1     -48.902  14.509  23.047  0.00  0.00     0.181 C 
ENDBRANCH  25  30
ENDBRANCH  23  24
ENDBRANCH  21  23
ENDBRANCH  19  20
ENDBRANCH   3  19
TORSDOF 9
ENDMDL
MODEL 5
REMARK VINA RESULT:      -3.6      2.930      4.827
REMARK  9 active torsions:
REMARK  status: ('A' for Active; 'I' for Inactive)
REMARK    1  A    between atoms: N_2  and  C_1 
REMARK       I    between atoms: C_4  and  N_2 
REMARK    2  A    between atoms: C_7  and  C_4 
REMARK    3  A    between atoms: C_8  and  C_5 
REMARK    4  A    between atoms: C_10  and  C_8 
REMARK       I    between atoms: N_12  and  C_10 
REMARK    5  A    between atoms: C_11  and  C_19 
REMARK    6  A    between atoms: C_19  and  N_12 
REMARK    7  A    between atoms: O_23  and  C_17 
REMARK    8  A    between atoms: O_24  and  C_18 
REMARK    9  A    between atoms: O_22  and  C_20 
ROOT
ATOM      1  C   UNL d   1     -41.528  14.230  21.113  0.00  0.00     0.197 A 
ATOM      2  N   UNL d   1     -40.762  13.933  20.972  0.00  0.00    -0.220 NA
ATOM      3  C   UNL d   1     -40.334  14.507  20.572  0.00  0.00     0.095 A 
ATOM      4  S   UNL d   1     -41.556  14.989  20.794  0.00  0.00    -0.046 SA
ATOM      5  C   UNL d   1     -40.823  15.161  20.461  0.00  0.00     0.058 A 
ENDROOT
BRANCH   1   6
ATOM      6  N   UNL d   1     -42.131  13.831  21.499  0.00  0.00    -0.183 NA
ATOM      7  C   UNL d   1     -42.572  13.260  21.113  0.00  0.00     0.281 C 
ATOM      8  O   UNL d   1     -42.416  13.075  20.319  0.00  0.00    -0.265 OA
BRANCH   7   9
ATOM      9  C   UNL d   1     -43.181  12.856  21.499  0.00  0.00     0.062 A 
ATOM     10  C   UNL d   1     -43.031  12.171  21.909  0.00  0.00     0.029 A 
ATOM     11  C   UNL d   1     -43.641  11.775  22.291  0.00  0.00     0.096 A 
ATOM     12  C   UNL d   1     -44.412  12.074  22.257  0.00  0.00     0.048 A 
ATOM     13  C   UNL d   1     -44.553  12.765  21.841  0.00  0.00     0.096 A 
ATOM     14  C   UNL d   1     -43.951  13.166  21.459  0.00  0.00     0.029 A 
BRANCH  11  15
ATOM     15  O   UNL d   1     -43.491  11.082  22.705  0.00  0.00    -0.328 OA
ATOM     16  C   UNL d   1     -43.972  10.869  23.349  0.00  0.00     0.181 C 
ENDBRANCH  11  15
BRANCH  13  17
ATOM     17  O   UNL d   1     -45.322  13.077  21.800  0.00  0.00    -0.328 OA
ATOM     18  C   UNL d   1     -45.616  13.535  22.419  0.00  0.00     0.181 C 
ENDBRANCH  13  17
ENDBRANCH   7   9
ENDBRANCH   1   6
BRANCH   3  19
ATOM     19  C   UNL d   1     -39.549  14.443  20.324  0.00  0.00     0.082 C 
BRANCH  19  20
ATOM     20  C   UNL d   1     -39.340  14.661  19.553  0.00  0.00     0.281 C 
ATOM     21  N   UNL d   1     -39.073  14.088  19.028  0.00  0.00    -0.206 NA
ATOM     22  O   UNL d   1     -39.402  15.448  19.324  0.00  0.00    -0.265 OA
BRANCH  21  23
ATOM     23  C   UNL d   1     -38.866  14.304  18.265  0.00  0.00     0.104 C 
BRANCH  23  24
ATOM     24  C   UNL d   1     -38.558  13.741  17.745  0.00  0.00     0.042 A 
ATOM     25  C   UNL d   1     -38.341  13.966  16.978  0.00  0.00     0.096 A 
ATOM     26  C   UNL d   1     -38.034  13.417  16.452  0.00  0.00     0.024 A 
ATOM     27  C   UNL d   1     -37.940  12.634  16.687  0.00  0.00     0.002 A 
ATOM     28  C   UNL d   1     -38.154  12.403  17.449  0.00  0.00     0.000 A 
ATOM     29  C   UNL d   1     -38.462  12.954  17.978  0.00  0.00     0.004 A 
BRANCH  25  30
ATOM     30  O   UNL d   1     -38.434  14.756  16.732  0.00  0.00    -0.328 OA
ATOM     31  C   UNL d   1     -38.215  14.990  15.969  0.00  0.00     0.181 C 
ENDBRANCH  25  30
ENDBRANCH  23  24
ENDBRANCH  21  23
ENDBRANCH  19  20
ENDBRANCH   3  19
TORSDOF 9
ENDMDL
