MODEL 1
REMARK VINA RESULT:      -3.8      0.000      0.000
REMARK  4 active torsions:
REMARK  status: ('A' for Active; 'I' for Inactive)
REMARK    1  A    between atoms: C_2  and  S_1 
REMARK    2  A    between atoms: N_3  and  S_1 
REMARK    3  A    between atoms: C_14  and  N_3 
REMARK       I    between atoms: C_7  and  N_8 
REMARK    4  A    between atoms: N_8  and  C_15 
ROOT
ATOM      1  S   UNL d   1      32.523  17.940 -23.821  0.00  0.00     0.285 S 
ATOM      2  O   UNL d   1      32.480  18.451 -24.478  0.00  0.00    -0.198 OA
ATOM      3  O   UNL d   1      32.575  17.437 -23.164  0.00  0.00    -0.198 OA
ENDROOT
BRANCH   1   4
ATOM      4  C   UNL d   1      31.797  17.589 -24.060  0.00  0.00     0.105 A 
ATOM      5  C   UNL d   1      31.483  16.962 -23.660  0.00  0.00     0.013 A 
ATOM      6  C   UNL d   1      30.770  16.625 -23.902  0.00  0.00     0.001 A 
ATOM      7  C   UNL d   1      30.461  15.966 -23.464  0.00  0.00     0.000 A 
ATOM      8  C   UNL d   1      30.366  16.912 -24.548  0.00  0.00     0.000 A 
ATOM      9  C   UNL d   1      29.754  15.610 -23.683  0.00  0.00     0.000 A 
ATOM     10  C   UNL d   1      29.334  15.914 -24.358  0.00  0.00     0.000 A 
ATOM     11  C   UNL d   1      29.647  16.563 -24.784  0.00  0.00     0.000 A 
ATOM     12  C   UNL d   1      30.691  17.575 -24.977  0.00  0.00     0.001 A 
ATOM     13  C   UNL d   1      31.402  17.895 -24.719  0.00  0.00     0.013 A 
ENDBRANCH   1   4
BRANCH   1  14
ATOM     14  N   UNL d   1      33.241  18.294 -23.593  0.00  0.00    -0.158 NA
BRANCH  14  15
ATOM     15  C   UNL d   1      33.227  18.906 -23.044  0.00  0.00     0.094 A 
ATOM     16  C   UNL d   1      33.240  18.691 -22.251  0.00  0.00     0.021 A 
ATOM     17  C   UNL d   1      33.228  19.295 -21.669  0.00  0.00     0.021 A 
ATOM     18  C   UNL d   1      33.202  20.085 -21.906  0.00  0.00     0.085 A 
ATOM     19  C   UNL d   1      33.190  20.268 -22.711  0.00  0.00     0.021 A 
ATOM     20  C   UNL d   1      33.202  19.680 -23.277  0.00  0.00     0.021 A 
BRANCH  18  21
ATOM     21  N   UNL d   1      33.189  20.695 -21.315  0.00  0.00    -0.208 NA
ATOM     22  C   UNL d   1      32.472  21.121 -21.161  0.00  0.00     0.279 C 
ATOM     23  O   UNL d   1      31.777  20.951 -21.582  0.00  0.00    -0.265 OA
ATOM     24  C   UNL d   1      32.483  21.698 -20.594  0.00  0.00     0.068 C 
ENDBRANCH  18  21
ENDBRANCH  14  15
ENDBRANCH   1  14
TORSDOF 4
ENDMDL
MODEL 2
REMARK VINA RESULT:      -3.1      1.452      4.600
REMARK  4 active torsions:
REMARK  status: ('A' for Active; 'I' for Inactive)
REMARK    1  A    between atoms: C_2  and  S_1 
REMARK    2  A    between atoms: N_3  and  S_1 
REMARK    3  A    between atoms: C_14  and  N_3 
REMARK       I    between atoms: C_7  and  N_8 
REMARK    4  A    between atoms: N_8  and  C_15 
ROOT
ATOM      1  S   UNL d   1      32.910  17.740 -23.632  0.00  0.00     0.285 S 
ATOM      2  O   UNL d   1      33.028  17.521 -22.837  0.00  0.00    -0.198 OA
ATOM      3  O   UNL d   1      32.792  17.946 -24.426  0.00  0.00    -0.198 OA
ENDROOT
BRANCH   1   4
ATOM      4  C   UNL d   1      32.993  18.547 -23.411  0.00  0.00     0.105 A 
ATOM      5  C   UNL d   1      32.996  18.771 -22.635  0.00  0.00     0.013 A 
ATOM      6  C   UNL d   1      33.078  19.566 -22.429  0.00  0.00     0.001 A 
ATOM      7  C   UNL d   1      33.078  19.774 -21.606  0.00  0.00     0.000 A 
ATOM      8  C   UNL d   1      33.158  20.143 -22.997  0.00  0.00     0.000 A 
ATOM      9  C   UNL d   1      33.158  20.558 -21.371  0.00  0.00     0.000 A 
ATOM     10  C   UNL d   1      33.241  21.158 -21.968  0.00  0.00     0.000 A 
ATOM     11  C   UNL d   1      33.240  20.942 -22.777  0.00  0.00     0.000 A 
ATOM     12  C   UNL d   1      33.155  19.915 -23.821  0.00  0.00     0.001 A 
ATOM     13  C   UNL d   1      33.072  19.118 -24.004  0.00  0.00     0.013 A 
ENDBRANCH   1   4
BRANCH   1  14
ATOM     14  N   UNL d   1      32.830  16.938 -23.840  0.00  0.00    -0.158 NA
BRANCH  14  15
ATOM     15  C   UNL d   1      32.079  16.605 -23.863  0.00  0.00     0.094 A 
ATOM     16  C   UNL d   1      31.601  16.816 -24.497  0.00  0.00     0.021 A 
ATOM     17  C   UNL d   1      30.828  16.491 -24.546  0.00  0.00     0.021 A 
ATOM     18  C   UNL d   1      30.571  15.971 -23.959  0.00  0.00     0.085 A 
ATOM     19  C   UNL d   1      31.076  15.779 -23.335  0.00  0.00     0.021 A 
ATOM     20  C   UNL d   1      31.827  16.095 -23.288  0.00  0.00     0.021 A 
BRANCH  18  21
ATOM     21  N   UNL d   1      29.789  15.643 -24.010  0.00  0.00    -0.208 NA
ATOM     22  C   UNL d   1      29.116  16.114 -23.799  0.00  0.00     0.279 C 
ATOM     23  O   UNL d   1      29.210  16.898 -23.541  0.00  0.00    -0.265 OA
ATOM     24  C   UNL d   1      28.381  15.781 -23.856  0.00  0.00     0.068 C 
ENDBRANCH  18  21
ENDBRANCH  14  15
ENDBRANCH   1  14
TORSDOF 4
ENDMDL
MODEL 3
REMARK VINA RESULT:      -1.4      0.886      1.358
REMARK  4 active torsions:
REMARK  status: ('A' for Active; 'I' for Inactive)
REMARK    1  A    between atoms: C_2  and  S_1 
REMARK    2  A    between atoms: N_3  and  S_1 
REMARK    3  A    between atoms: C_14  and  N_3 
REMARK       I    between atoms: C_7  and  N_8 
REMARK    4  A    between atoms: N_8  and  C_15 
ROOT
ATOM      1  S   UNL d   1      32.014  17.035 -23.922  0.00  0.00     0.285 S 
ATOM      2  O   UNL d   1      31.814  17.281 -24.692  0.00  0.00    -0.198 OA
ATOM      3  O   UNL d   1      32.223  16.795 -23.156  0.00  0.00    -0.198 OA
ENDROOT
BRANCH   1   4
ATOM      4  C   UNL d   1      31.261  16.668 -23.855  0.00  0.00     0.105 A 
ATOM      5  C   UNL d   1      30.579  17.087 -23.965  0.00  0.00     0.013 A 
ATOM      6  C   UNL d   1      29.845  16.717 -23.898  0.00  0.00     0.001 A 
ATOM      7  C   UNL d   1      29.143  17.180 -24.018  0.00  0.00     0.000 A 
ATOM      8  C   UNL d   1      29.786  15.925 -23.719  0.00  0.00     0.000 A 
ATOM      9  C   UNL d   1      28.398  16.839 -23.957  0.00  0.00     0.000 A 
ATOM     10  C   UNL d   1      28.342  16.011 -23.771  0.00  0.00     0.000 A 
ATOM     11  C   UNL d   1      29.039  15.562 -23.654  0.00  0.00     0.000 A 
ATOM     12  C   UNL d   1      30.502  15.474 -23.602  0.00  0.00     0.001 A 
ATOM     13  C   UNL d   1      31.222  15.862 -23.674  0.00  0.00     0.013 A 
ENDBRANCH   1   4
BRANCH   1  14
ATOM     14  N   UNL d   1      32.757  17.402 -23.998  0.00  0.00    -0.158 NA
BRANCH  14  15
ATOM     15  C   UNL d   1      32.871  18.145 -23.667  0.00  0.00     0.094 A 
ATOM     16  C   UNL d   1      33.117  18.166 -22.883  0.00  0.00     0.021 A 
ATOM     17  C   UNL d   1      33.241  18.913 -22.519  0.00  0.00     0.021 A 
ATOM     18  C   UNL d   1      33.114  19.602 -22.956  0.00  0.00     0.085 A 
ATOM     19  C   UNL d   1      32.868  19.546 -23.742  0.00  0.00     0.021 A 
ATOM     20  C   UNL d   1      32.747  18.820 -24.095  0.00  0.00     0.021 A 
BRANCH  18  21
ATOM     21  N   UNL d   1      33.241  20.356 -22.586  0.00  0.00    -0.208 NA
ATOM     22  C   UNL d   1      32.730  20.611 -21.959  0.00  0.00     0.279 C 
ATOM     23  O   UNL d   1      32.103  20.133 -21.699  0.00  0.00    -0.265 OA
ATOM     24  C   UNL d   1      32.869  21.333 -21.621  0.00  0.00     0.068 C 
ENDBRANCH  18  21
ENDBRANCH  14  15
ENDBRANCH   1  14
TORSDOF 4
ENDMDL
