MODEL 1
REMARK VINA RESULT:      37.9      0.000      0.000
REMARK  4 active torsions:
REMARK  status: ('A' for Active; 'I' for Inactive)
REMARK    1  A    between atoms: N_9  and  C_1 
REMARK    2  A    between atoms: C_5  and  O_12 
REMARK    3  A    between atoms: C_13  and  N_9 
REMARK    4  A    between atoms: O_12  and  C_17 
ROOT
ATOM      1  C   UNL d   1     -50.837  26.062  33.813  0.00  0.00     0.083 A 
ATOM      2  C   UNL d   1     -49.485  26.780  34.435  0.00  0.00     0.102 A 
ATOM      3  C   UNL d   1     -50.208  26.270  33.306  0.00  0.00     0.021 A 
ATOM      4  C   UNL d   1     -50.791  26.211  34.622  0.00  0.00     0.021 A 
ATOM      5  C   UNL d   1     -49.535  26.628  33.619  0.00  0.00     0.026 A 
ATOM      6  C   UNL d   1     -50.111  26.571  34.931  0.00  0.00     0.026 A 
ENDROOT
BRANCH   1   7
ATOM      7  N   UNL d   1     -51.514  25.701  33.493  0.00  0.00    -0.227 NA
BRANCH   7   8
ATOM      8  C   UNL d   1     -51.549  24.878  33.429  0.00  0.00     0.169 A 
ATOM      9  C   UNL d   1     -52.241  24.517  33.399  0.00  0.00     0.094 A 
ATOM     10  C   UNL d   1     -52.267  23.732  33.337  0.00  0.00     0.190 A 
ATOM     11  C   UNL d   1     -53.605  24.562  33.399  0.00  0.00     0.128 A 
ATOM     12  N   UNL d   1     -52.967  23.374  33.308  0.00  0.00    -0.128 NA
ATOM     13  N   UNL d   1     -51.616  23.317  33.306  0.00  0.00    -0.203 NA
ATOM     14  N   UNL d   1     -53.630  23.777  33.338  0.00  0.00    -0.145 NA
ATOM     15  C   UNL d   1     -50.916  23.674  33.336  0.00  0.00     0.202 A 
ATOM     16  N   UNL d   1     -50.883  24.459  33.397  0.00  0.00    -0.205 NA
ENDBRANCH   7   8
ENDBRANCH   1   7
BRANCH   2  17
ATOM     17  O   UNL d   1     -48.812  27.137  34.748  0.00  0.00    -0.253 OA
BRANCH  17  18
ATOM     18  C   UNL d   1     -48.892  27.709  35.339  0.00  0.00     0.530 C 
ATOM     19  F   UNL d   1     -48.333  28.316  35.414  0.00  0.00    -0.144 F 
ATOM     20  F   UNL d   1     -49.534  27.673  35.854  0.00  0.00    -0.144 F 
ATOM     21  F   UNL d   1     -49.020  28.573  36.235  0.00  0.00    -0.144 F 
ENDBRANCH  17  18
ENDBRANCH   2  17
TORSDOF 4
ENDMDL
