MODEL 1
REMARK VINA RESULT:      10.4      0.000      0.000
REMARK  6 active torsions:
REMARK  status: ('A' for Active; 'I' for Inactive)
REMARK    1  A    between atoms: C_2  and  S_1 
REMARK    2  A    between atoms: N_8  and  S_1 
REMARK    3  A    between atoms: O_15  and  C_3 
REMARK    4  A    between atoms: C_14  and  N_8 
REMARK    5  A    between atoms: N_10  and  C_17 
REMARK    6  A    between atoms: C_17  and  C_14 
ROOT
ATOM      1  S   UNL d   1      45.902 -17.659  43.897  0.00  0.00     0.287 S 
ATOM      2  O   UNL d   1      45.152 -17.561  43.553  0.00  0.00    -0.198 OA
ATOM      3  O   UNL d   1      46.647 -17.759  44.235  0.00  0.00    -0.198 OA
ENDROOT
BRANCH   1   4
ATOM      4  C   UNL d   1      46.088 -18.220  43.324  0.00  0.00     0.128 A 
ATOM      5  C   UNL d   1      46.272 -18.998  43.545  0.00  0.00     0.118 A 
ATOM      6  C   UNL d   1      46.458 -19.560  42.972  0.00  0.00     0.091 A 
ATOM      7 CL   UNL d   1      46.640 -20.330  43.195  0.00  0.00    -0.079 Cl
ATOM      8  C   UNL d   1      46.461 -19.349  42.174  0.00  0.00     0.070 A 
ATOM      9  C   UNL d   1      46.279 -18.577  41.950  0.00  0.00     0.013 A 
ATOM     10 CL   UNL d   1      46.647 -19.909  41.600  0.00  0.00    -0.081 Cl
ATOM     11  C   UNL d   1      46.091 -18.009  42.526  0.00  0.00     0.016 A 
BRANCH   5  12
ATOM     12  O   UNL d   1      46.269 -19.209  44.343  0.00  0.00    -0.327 OA
ATOM     13  C   UNL d   1      46.518 -19.960  44.573  0.00  0.00     0.181 C 
ENDBRANCH   5  12
ENDBRANCH   1   4
BRANCH   1  14
ATOM     14  N   UNL d   1      45.714 -17.096  44.473  0.00  0.00    -0.155 NA
BRANCH  14  15
ATOM     15  C   UNL d   1      45.884 -16.300  44.341  0.00  0.00     0.131 C 
BRANCH  15  16
ATOM     16  C   UNL d   1      45.778 -15.753  44.947  0.00  0.00     0.102 C 
BRANCH  16  17
ATOM     17  N   UNL d   1      45.642 -14.961  44.765  0.00  0.00    -0.298 N 
ATOM     18  C   UNL d   1      44.865 -14.689  44.639  0.00  0.00     0.107 A 
ATOM     19  C   UNL d   1      44.728 -13.901  44.458  0.00  0.00     0.142 A 
ATOM     20  O   UNL d   1      45.361 -13.374  44.399  0.00  0.00    -0.300 OA
ATOM     21  C   UNL d   1      46.134 -13.646  44.524  0.00  0.00     0.142 A 
ATOM     22  C   UNL d   1      46.277 -14.441  44.707  0.00  0.00     0.107 A 
ENDBRANCH  16  17
ENDBRANCH  15  16
ENDBRANCH  14  15
ENDBRANCH   1  14
TORSDOF 6
ENDMDL
