MODEL 1
REMARK VINA RESULT:      -2.5      0.000      0.000
REMARK  3 active torsions:
REMARK  status: ('A' for Active; 'I' for Inactive)
REMARK    1  A    between atoms: C_8  and  C_6 
REMARK    2  A    between atoms: C_9  and  C_8 
REMARK       I    between atoms: N_10  and  C_9 
REMARK    3  A    between atoms: C_14  and  N_10 
ROOT
ATOM      1  C   UNL d   1      31.847  17.901 -24.737  0.00  0.00     0.085 A 
ATOM      2  C   UNL d   1      30.863  16.683 -24.228  0.00  0.00     0.094 A 
ATOM      3  C   UNL d   1      31.035  18.024 -24.684  0.00  0.00     0.021 A 
ATOM      4  C   UNL d   1      32.170  17.172 -24.537  0.00  0.00     0.021 A 
ATOM      5  C   UNL d   1      31.683  16.561 -24.282  0.00  0.00     0.026 A 
ATOM      6  C   UNL d   1      30.543  17.415 -24.430  0.00  0.00     0.026 A 
ATOM      7  O   UNL d   1      30.381  16.084 -23.977  0.00  0.00    -0.328 OA
ATOM      8  C   UNL d   1      29.893  15.477 -23.723  0.00  0.00     0.181 C 
ENDROOT
BRANCH   1   9
ATOM      9  N   UNL d   1      32.343  18.510 -24.993  0.00  0.00    -0.208 NA
ATOM     10  C   UNL d   1      32.747  18.976 -24.441  0.00  0.00     0.281 C 
ATOM     11  O   UNL d   1      33.241  19.584 -24.703  0.00  0.00    -0.265 OA
BRANCH  10  12
ATOM     12  C   UNL d   1      32.654  18.830 -23.627  0.00  0.00     0.086 C 
BRANCH  12  13
ATOM     13  C   UNL d   1      32.772  19.443 -23.091  0.00  0.00     0.144 A 
ATOM     14  N   UNL d   1      32.821  20.182 -23.449  0.00  0.00    -0.240 NA
ATOM     15  C   UNL d   1      32.936  20.909 -23.089  0.00  0.00     0.083 A 
ATOM     16  C   UNL d   1      33.031  21.088 -22.287  0.00  0.00     0.035 A 
ATOM     17  C   UNL d   1      32.951  21.516 -23.649  0.00  0.00     0.019 A 
ATOM     18  C   UNL d   1      33.017  20.475 -21.721  0.00  0.00     0.086 A 
ATOM     19  C   UNL d   1      33.142  21.867 -22.035  0.00  0.00     0.003 A 
ATOM     20  N   UNL d   1      32.914  19.668 -21.855  0.00  0.00    -0.207 NA
ATOM     21  C   UNL d   1      33.112  20.650 -20.920  0.00  0.00     0.019 A 
ATOM     22  C   UNL d   1      32.804  19.267 -22.553  0.00  0.00     0.297 A 
ATOM     23  O   UNL d   1      32.720  18.452 -22.482  0.00  0.00    -0.264 OA
ATOM     24  C   UNL d   1      33.222  21.432 -20.676  0.00  0.00     0.002 A 
ATOM     25  C   UNL d   1      33.236  22.038 -21.235  0.00  0.00     0.000 A 
ATOM     26  C   UNL d   1      33.157  22.480 -22.602  0.00  0.00     0.000 A 
ATOM     27  C   UNL d   1      33.062  22.309 -23.402  0.00  0.00     0.002 A 
ENDBRANCH  12  13
ENDBRANCH  10  12
ENDBRANCH   1   9
TORSDOF 3
ENDMDL
MODEL 2
REMARK VINA RESULT:      -0.7      1.169      4.631
REMARK  3 active torsions:
REMARK  status: ('A' for Active; 'I' for Inactive)
REMARK    1  A    between atoms: C_8  and  C_6 
REMARK    2  A    between atoms: C_9  and  C_8 
REMARK       I    between atoms: N_10  and  C_9 
REMARK    3  A    between atoms: C_14  and  N_10 
ROOT
ATOM      1  C   UNL d   1      32.808  20.739 -22.679  0.00  0.00     0.085 A 
ATOM      2  C   UNL d   1      32.369  21.285 -21.190  0.00  0.00     0.094 A 
ATOM      3  C   UNL d   1      32.421  21.461 -22.604  0.00  0.00     0.021 A 
ATOM      4  C   UNL d   1      32.977  20.288 -22.013  0.00  0.00     0.021 A 
ATOM      5  C   UNL d   1      32.760  20.556 -21.267  0.00  0.00     0.026 A 
ATOM      6  C   UNL d   1      32.202  21.734 -21.860  0.00  0.00     0.026 A 
ATOM      7  O   UNL d   1      32.154  21.553 -20.458  0.00  0.00    -0.328 OA
ATOM      8  C   UNL d   1      31.937  21.823 -19.715  0.00  0.00     0.181 C 
ENDROOT
BRANCH   1   9
ATOM      9  N   UNL d   1      33.029  20.462 -23.426  0.00  0.00    -0.208 NA
ATOM     10  C   UNL d   1      33.015  19.651 -23.589  0.00  0.00     0.281 C 
ATOM     11  O   UNL d   1      33.238  19.381 -24.338  0.00  0.00    -0.265 OA
BRANCH  10  12
ATOM     12  C   UNL d   1      32.778  19.113 -23.001  0.00  0.00     0.086 C 
BRANCH  12  13
ATOM     13  C   UNL d   1      32.425  18.402 -23.222  0.00  0.00     0.144 A 
ATOM     14  N   UNL d   1      31.837  18.495 -23.788  0.00  0.00    -0.240 NA
ATOM     15  C   UNL d   1      31.373  17.914 -24.133  0.00  0.00     0.083 A 
ATOM     16  C   UNL d   1      31.377  17.096 -24.005  0.00  0.00     0.035 A 
ATOM     17  C   UNL d   1      30.846  18.240 -24.677  0.00  0.00     0.019 A 
ATOM     18  C   UNL d   1      31.910  16.765 -23.455  0.00  0.00     0.086 A 
ATOM     19  C   UNL d   1      30.859  16.599 -24.414  0.00  0.00     0.003 A 
ATOM     20  N   UNL d   1      32.467  17.160 -22.993  0.00  0.00    -0.207 NA
ATOM     21  C   UNL d   1      31.917  15.950 -23.324  0.00  0.00     0.019 A 
ATOM     22  C   UNL d   1      32.641  17.953 -22.952  0.00  0.00     0.297 A 
ATOM     23  O   UNL d   1      33.238  18.156 -22.424  0.00  0.00    -0.264 OA
ATOM     24  C   UNL d   1      31.395  15.460 -23.738  0.00  0.00     0.002 A 
ATOM     25  C   UNL d   1      30.868  15.786 -24.282  0.00  0.00     0.000 A 
ATOM     26  C   UNL d   1      30.326  16.931 -24.964  0.00  0.00     0.000 A 
ATOM     27  C   UNL d   1      30.317  17.744 -25.097  0.00  0.00     0.002 A 
ENDBRANCH  12  13
ENDBRANCH  10  12
ENDBRANCH   1   9
TORSDOF 3
ENDMDL
MODEL 3
REMARK VINA RESULT:       0.0      2.359      5.102
REMARK  3 active torsions:
REMARK  status: ('A' for Active; 'I' for Inactive)
REMARK    1  A    between atoms: C_8  and  C_6 
REMARK    2  A    between atoms: C_9  and  C_8 
REMARK       I    between atoms: N_10  and  C_9 
REMARK    3  A    between atoms: C_14  and  N_10 
ROOT
ATOM      1  C   UNL d   1      32.396  23.031 -21.166  0.00  0.00     0.085 A 
ATOM      2  C   UNL d   1      32.801  22.701 -19.605  0.00  0.00     0.094 A 
ATOM      3  C   UNL d   1      32.027  22.412 -20.768  0.00  0.00     0.021 A 
ATOM      4  C   UNL d   1      32.966  23.485 -20.788  0.00  0.00     0.021 A 
ATOM      5  C   UNL d   1      33.172  23.325 -20.009  0.00  0.00     0.026 A 
ATOM      6  C   UNL d   1      32.229  22.247 -19.987  0.00  0.00     0.026 A 
ATOM      7  O   UNL d   1      33.001  22.540 -18.838  0.00  0.00    -0.328 OA
ATOM      8  C   UNL d   1      33.204  22.377 -18.061  0.00  0.00     0.181 C 
ENDROOT
BRANCH   1   9
ATOM      9  N   UNL d   1      32.194  23.198 -21.950  0.00  0.00    -0.208 NA
ATOM     10  C   UNL d   1      32.537  22.768 -22.567  0.00  0.00     0.281 C 
ATOM     11  O   UNL d   1      32.331  22.940 -23.349  0.00  0.00    -0.265 OA
BRANCH  10  12
ATOM     12  C   UNL d   1      33.085  22.166 -22.400  0.00  0.00     0.086 C 
BRANCH  12  13
ATOM     13  C   UNL d   1      33.105  21.493 -22.875  0.00  0.00     0.144 A 
ATOM     14  N   UNL d   1      33.046  20.793 -22.449  0.00  0.00    -0.240 NA
ATOM     15  C   UNL d   1      33.047  20.026 -22.738  0.00  0.00     0.083 A 
ATOM     16  C   UNL d   1      33.106  19.761 -23.520  0.00  0.00     0.035 A 
ATOM     17  C   UNL d   1      32.976  19.479 -22.124  0.00  0.00     0.019 A 
ATOM     18  C   UNL d   1      33.177  20.313 -24.141  0.00  0.00     0.086 A 
ATOM     19  C   UNL d   1      33.096  18.953 -23.696  0.00  0.00     0.003 A 
ATOM     20  N   UNL d   1      33.198  21.135 -24.084  0.00  0.00    -0.207 NA
ATOM     21  C   UNL d   1      33.237  20.051 -24.922  0.00  0.00     0.019 A 
ATOM     22  C   UNL d   1      33.157  21.612 -23.427  0.00  0.00     0.297 A 
ATOM     23  O   UNL d   1      33.195  22.420 -23.576  0.00  0.00    -0.264 OA
ATOM     24  C   UNL d   1      33.225  19.242 -25.090  0.00  0.00     0.002 A 
ATOM     25  C   UNL d   1      33.155  18.696 -24.476  0.00  0.00     0.000 A 
ATOM     26  C   UNL d   1      33.024  18.401 -23.074  0.00  0.00     0.000 A 
ATOM     27  C   UNL d   1      32.965  18.659 -22.294  0.00  0.00     0.002 A 
ENDBRANCH  12  13
ENDBRANCH  10  12
ENDBRANCH   1   9
TORSDOF 3
ENDMDL
