MODEL 1
REMARK VINA RESULT:      34.7      0.000      0.000
REMARK  9 active torsions:
REMARK  status: ('A' for Active; 'I' for Inactive)
REMARK    1  A    between atoms: N_2  and  S_1 
REMARK    2  A    between atoms: C_9  and  S_1 
REMARK    3  A    between atoms: C_4  and  N_2 
REMARK    4  A    between atoms: O_24  and  C_6 
REMARK    5  A    between atoms: O_26  and  C_7 
REMARK       I    between atoms: C_12  and  N_15 
REMARK    6  A    between atoms: C_22  and  C_12 
REMARK    7  A    between atoms: C_14  and  O_16 
REMARK    8  A    between atoms: N_15  and  C_23 
REMARK    9  A    between atoms: O_16  and  C_22 
ROOT
ATOM      1  C   UNL d   1      45.880 -16.480  44.442  0.00  0.00     0.105 A 
ATOM      2  C   UNL d   1      46.386 -15.857  44.605  0.00  0.00     0.015 A 
ATOM      3  C   UNL d   1      45.058 -16.357  44.427  0.00  0.00     0.015 A 
ATOM      4  C   UNL d   1      45.273 -14.986  44.741  0.00  0.00     0.085 A 
ATOM      5  C   UNL d   1      46.104 -15.096  44.759  0.00  0.00     0.020 A 
ATOM      6  C   UNL d   1      44.769 -15.605  44.579  0.00  0.00     0.020 A 
ENDROOT
BRANCH   1   7
ATOM      7  S   UNL d   1      46.169 -17.234  44.290  0.00  0.00     0.287 S 
ATOM      8  O   UNL d   1      46.630 -16.925  43.641  0.00  0.00    -0.198 OA
ATOM      9  O   UNL d   1      45.728 -17.555  44.916  0.00  0.00    -0.198 OA
BRANCH   7  10
ATOM     10  N   UNL d   1      46.477 -17.995  44.116  0.00  0.00    -0.139 NA
BRANCH  10  11
ATOM     11  C   UNL d   1      46.212 -18.431  43.479  0.00  0.00     0.182 A 
ATOM     12  N   UNL d   1      46.355 -18.190  42.728  0.00  0.00    -0.185 NA
ATOM     13  C   UNL d   1      46.089 -18.627  42.066  0.00  0.00     0.274 A 
ATOM     14  N   UNL d   1      45.675 -19.316  42.186  0.00  0.00    -0.181 NA
ATOM     15  C   UNL d   1      45.519 -19.580  42.937  0.00  0.00     0.185 A 
ATOM     16  C   UNL d   1      45.799 -19.119  43.609  0.00  0.00     0.084 A 
BRANCH  13  17
ATOM     17  O   UNL d   1      46.240 -18.371  41.281  0.00  0.00    -0.297 OA
ATOM     18  C   UNL d   1      46.646 -18.854  40.751  0.00  0.00     0.185 C 
ENDBRANCH  13  17
BRANCH  15  19
ATOM     19  O   UNL d   1      45.090 -20.294  43.027  0.00  0.00    -0.312 OA
ATOM     20  C   UNL d   1      44.284 -20.304  42.803  0.00  0.00     0.183 C 
ENDBRANCH  15  19
ENDBRANCH  10  11
ENDBRANCH   7  10
ENDBRANCH   1   7
BRANCH   4  21
ATOM     21  N   UNL d   1      44.954 -14.235  44.891  0.00  0.00    -0.206 NA
ATOM     22  C   UNL d   1      44.733 -13.765  44.230  0.00  0.00     0.304 C 
ATOM     23  O   UNL d   1      44.829 -14.036  43.494  0.00  0.00    -0.263 OA
BRANCH  22  24
ATOM     24  C   UNL d   1      44.417 -13.018  44.378  0.00  0.00     0.185 C 
BRANCH  24  25
ATOM     25  O   UNL d   1      44.177 -12.533  43.761  0.00  0.00    -0.300 OA
BRANCH  25  26
ATOM     26  C   UNL d   1      44.701 -12.420  43.114  0.00  0.00     0.100 A 
ATOM     27  C   UNL d   1      44.447 -12.426  42.332  0.00  0.00     0.023 A 
ATOM     28  C   UNL d   1      44.967 -12.315  41.713  0.00  0.00     0.002 A 
ATOM     29  C   UNL d   1      43.626 -12.549  42.144  0.00  0.00     0.002 C 
ATOM     30  C   UNL d   1      45.749 -12.196  41.866  0.00  0.00     0.000 A 
ATOM     31  C   UNL d   1      46.043 -12.184  42.646  0.00  0.00     0.002 A 
ATOM     32  C   UNL d   1      46.296 -12.081  41.245  0.00  0.00     0.000 C 
ATOM     33  C   UNL d   1      45.523 -12.295  43.265  0.00  0.00     0.025 A 
ENDBRANCH  25  26
ENDBRANCH  24  25
ENDBRANCH  22  24
ENDBRANCH   4  21
TORSDOF 9
ENDMDL
