MODEL 1
REMARK VINA RESULT:      66.8      0.000      0.000
REMARK  5 active torsions:
REMARK  status: ('A' for Active; 'I' for Inactive)
REMARK    1  A    between atoms: C_3  and  C_1 
REMARK    2  A    between atoms: C_7  and  C_3 
REMARK    3  A    between atoms: N_9  and  C_3 
REMARK    4  A    between atoms: C_17  and  C_8 
REMARK    5  A    between atoms: C_10  and  N_9 
ROOT
ATOM      1  C   UNL d   1     -51.899  25.150  33.849  0.00  0.00     0.111 C 
ENDROOT
BRANCH   1   2
ATOM      2  C   UNL d   1     -52.330  24.922  34.527  0.00  0.00     0.160 A 
ATOM      3  C   UNL d   1     -52.887  24.317  34.487  0.00  0.00     0.258 A 
ATOM      4  C   UNL d   1     -53.305  24.106  35.175  0.00  0.00     0.238 A 
ATOM      5  O   UNL d   1     -53.045  23.907  33.768  0.00  0.00    -0.281 OA
ATOM      6  O   UNL d   1     -53.871  23.492  35.134  0.00  0.00    -0.283 OA
ATOM      7  C   UNL d   1     -53.173  24.488  35.894  0.00  0.00     0.073 A 
ATOM      8  C   UNL d   1     -52.615  25.093  35.933  0.00  0.00     0.146 A 
ATOM      9  O   UNL d   1     -52.198  25.306  35.253  0.00  0.00    -0.299 OA
BRANCH   8  10
ATOM     10  C   UNL d   1     -52.497  25.468  36.674  0.00  0.00     0.259 C 
ATOM     11  O   UNL d   1     -53.026  25.344  37.291  0.00  0.00    -0.281 OA
ENDBRANCH   8  10
ENDBRANCH   1   2
BRANCH   1  12
ATOM     12  C   UNL d   1     -51.729  25.963  33.732  0.00  0.00     0.047 A 
ATOM     13  C   UNL d   1     -52.311  26.468  33.434  0.00  0.00     0.142 A 
ATOM     14  F   UNL d   1     -52.780  26.316  33.313  0.00  0.00    -0.204 F 
ATOM     15  C   UNL d   1     -52.157  27.269  33.315  0.00  0.00     0.030 A 
ATOM     16  C   UNL d   1     -51.412  27.571  33.495  0.00  0.00     0.002 A 
ATOM     17  C   UNL d   1     -50.832  27.066  33.792  0.00  0.00     0.000 A 
ATOM     18  C   UNL d   1     -50.984  26.265  33.912  0.00  0.00     0.004 A 
ENDBRANCH   1  12
BRANCH   1  19
ATOM     19  N   UNL d   1     -51.647  24.590  33.306  0.00  0.00    -0.225 NA
BRANCH  19  20
ATOM     20  C   UNL d   1     -50.864  24.288  33.338  0.00  0.00     0.163 A 
ATOM     21  N   UNL d   1     -50.729  23.484  33.308  0.00  0.00    -0.225 NA
ATOM     22  C   UNL d   1     -49.969  23.190  33.339  0.00  0.00     0.101 A 
ATOM     23  C   UNL d   1     -49.316  23.718  33.402  0.00  0.00     0.021 A 
ATOM     24  C   UNL d   1     -49.451  24.522  33.432  0.00  0.00     0.005 A 
ATOM     25  C   UNL d   1     -50.228  24.825  33.400  0.00  0.00     0.039 A 
ENDBRANCH  19  20
ENDBRANCH   1  19
TORSDOF 5
ENDMDL
MODEL 2
REMARK VINA RESULT:      69.1      1.765      2.771
REMARK  5 active torsions:
REMARK  status: ('A' for Active; 'I' for Inactive)
REMARK    1  A    between atoms: C_3  and  C_1 
REMARK    2  A    between atoms: C_7  and  C_3 
REMARK    3  A    between atoms: N_9  and  C_3 
REMARK    4  A    between atoms: C_17  and  C_8 
REMARK    5  A    between atoms: C_10  and  N_9 
ROOT
ATOM      1  C   UNL d   1     -50.796  26.273  33.889  0.00  0.00     0.111 C 
ENDROOT
BRANCH   1   2
ATOM      2  C   UNL d   1     -50.517  26.638  34.586  0.00  0.00     0.160 A 
ATOM      3  C   UNL d   1     -49.934  27.219  34.551  0.00  0.00     0.258 A 
ATOM      4  C   UNL d   1     -49.669  27.570  35.257  0.00  0.00     0.238 A 
ATOM      5  O   UNL d   1     -49.600  27.467  33.818  0.00  0.00    -0.281 OA
ATOM      6  O   UNL d   1     -49.078  28.160  35.222  0.00  0.00    -0.283 OA
ATOM      7  C   UNL d   1     -49.977  27.348  35.990  0.00  0.00     0.073 A 
ATOM      8  C   UNL d   1     -50.560  26.766  36.024  0.00  0.00     0.146 A 
ATOM      9  O   UNL d   1     -50.825  26.416  35.325  0.00  0.00    -0.299 OA
BRANCH   8  10
ATOM     10  C   UNL d   1     -50.858  26.557  36.779  0.00  0.00     0.259 C 
ATOM     11  O   UNL d   1     -50.399  26.666  37.452  0.00  0.00    -0.281 OA
ENDBRANCH   8  10
ENDBRANCH   1   2
BRANCH   1  12
ATOM     12  C   UNL d   1     -51.624  26.194  33.778  0.00  0.00     0.047 A 
ATOM     13  C   UNL d   1     -52.059  26.816  33.455  0.00  0.00     0.142 A 
ATOM     14  F   UNL d   1     -51.854  27.260  33.314  0.00  0.00    -0.204 F 
ATOM     15  C   UNL d   1     -52.873  26.752  33.341  0.00  0.00     0.030 A 
ATOM     16  C   UNL d   1     -53.259  26.056  33.553  0.00  0.00     0.002 A 
ATOM     17  C   UNL d   1     -52.824  25.434  33.875  0.00  0.00     0.000 A 
ATOM     18  C   UNL d   1     -52.010  25.497  33.989  0.00  0.00     0.004 A 
ENDBRANCH   1  12
BRANCH   1  19
ATOM     19  N   UNL d   1     -50.272  25.996  33.322  0.00  0.00    -0.225 NA
BRANCH  19  20
ATOM     20  C   UNL d   1     -50.019  25.196  33.330  0.00  0.00     0.163 A 
ATOM     21  N   UNL d   1     -49.224  25.014  33.339  0.00  0.00    -0.225 NA
ATOM     22  C   UNL d   1     -48.978  24.237  33.347  0.00  0.00     0.101 A 
ATOM     23  C   UNL d   1     -49.546  23.614  33.345  0.00  0.00     0.021 A 
ATOM     24  C   UNL d   1     -50.341  23.797  33.335  0.00  0.00     0.005 A 
ATOM     25  C   UNL d   1     -50.595  24.592  33.328  0.00  0.00     0.039 A 
ENDBRANCH  19  20
ENDBRANCH   1  19
TORSDOF 5
ENDMDL
