MODEL 1
REMARK VINA RESULT:      18.3      0.000      0.000
REMARK  3 active torsions:
REMARK  status: ('A' for Active; 'I' for Inactive)
REMARK    1  A    between atoms: S_10  and  C_6 
REMARK    2  A    between atoms: C_14  and  S_10 
REMARK    3  A    between atoms: C_15  and  C_14 
ROOT
ATOM      1  C   UNL d   1      58.765  49.707  50.371  0.00  0.00     0.141 A 
ATOM      2  O   UNL d   1      58.178  49.708  50.951  0.00  0.00    -0.303 OA
ATOM      3  C   UNL d   1      58.396  49.706  49.634  0.00  0.00     0.110 A 
ATOM      4  C   UNL d   1      57.580  49.707  49.757  0.00  0.00     0.043 A 
ATOM      5  C   UNL d   1      57.445  49.707  50.571  0.00  0.00     0.102 A 
ATOM      6  C   UNL d   1      59.589  49.707  50.421  0.00  0.00     0.137 A 
ATOM      7  N   UNL d   1      60.043  49.706  49.732  0.00  0.00    -0.215 NA
ATOM      8  N   UNL d   1      58.850  49.706  48.945  0.00  0.00    -0.222 NA
ATOM      9  C   UNL d   1      59.674  49.706  48.995  0.00  0.00     0.200 A 
ATOM     10  C   UNL d   1      56.943  49.706  49.234  0.00  0.00     0.004 A 
ATOM     11  C   UNL d   1      56.673  49.708  50.862  0.00  0.00     0.025 A 
ATOM     12  C   UNL d   1      56.170  49.707  49.524  0.00  0.00     0.000 A 
ATOM     13  C   UNL d   1      56.036  49.708  50.337  0.00  0.00     0.002 A 
ENDROOT
BRANCH   6  14
ATOM     14  S   UNL d   1      59.958  49.707  51.158  0.00  0.00    -0.062 SA
BRANCH  14  15
ATOM     15  C   UNL d   1      60.781  49.667  51.208  0.00  0.00     0.082 C 
BRANCH  15  16
ATOM     16  C   UNL d   1      61.137  49.265  51.835  0.00  0.00     0.241 C 
ATOM     17  O   UNL d   1      61.411  49.684  52.489  0.00  0.00    -0.283 OA
ENDBRANCH  15  16
ENDBRANCH  14  15
ENDBRANCH   6  14
TORSDOF 3
ENDMDL
