MODEL 1
REMARK VINA RESULT:      45.3      0.000      0.000
REMARK  7 active torsions:
REMARK  status: ('A' for Active; 'I' for Inactive)
REMARK    1  A    between atoms: C_11  and  C_1 
REMARK    2  A    between atoms: C_15  and  N_3 
REMARK    3  A    between atoms: C_7  and  S_12 
REMARK    4  A    between atoms: C_13  and  C_11 
REMARK    5  A    between atoms: S_12  and  C_13 
REMARK    6  A    between atoms: C_20  and  C_15 
REMARK    7  A    between atoms: O_19  and  C_20 
ROOT
ATOM      1  C   UNL d   1      60.766  48.496  50.783  0.00  0.00     0.057 A 
ATOM      2  C   UNL d   1      61.187  48.043  50.250  0.00  0.00     0.067 A 
ATOM      3  N   UNL d   1      61.396  47.358  50.646  0.00  0.00    -0.303 N 
ATOM      4  C   UNL d   1      60.722  48.095  51.484  0.00  0.00     0.022 A 
ATOM      5  C   UNL d   1      61.108  47.402  51.392  0.00  0.00     0.064 A 
ATOM      6  C   UNL d   1      61.365  48.240  49.470  0.00  0.00     0.019 C 
ATOM      7  C   UNL d   1      61.197  46.812  51.990  0.00  0.00     0.019 C 
ENDROOT
BRANCH   1   8
ATOM      8  C   UNL d   1      60.440  49.248  50.620  0.00  0.00     0.203 C 
ATOM      9  O   UNL d   1      60.767  49.705  50.020  0.00  0.00    -0.286 OA
BRANCH   8  10
ATOM     10  C   UNL d   1      59.800  49.528  51.054  0.00  0.00     0.079 C 
BRANCH  10  11
ATOM     11  S   UNL d   1      59.086  49.705  50.677  0.00  0.00    -0.056 SA
BRANCH  11  12
ATOM     12  C   UNL d   1      58.255  49.703  50.622  0.00  0.00     0.164 A 
ATOM     13  S   UNL d   1      57.831  49.698  49.910  0.00  0.00    -0.039 SA
ATOM     14  C   UNL d   1      57.015  49.696  50.104  0.00  0.00     0.134 A 
ATOM     15  C   UNL d   1      56.383  49.692  49.559  0.00  0.00     0.030 C 
ATOM     16  N   UNL d   1      56.947  49.700  50.937  0.00  0.00    -0.140 NA
ATOM     17  N   UNL d   1      57.723  49.704  51.251  0.00  0.00    -0.134 NA
ENDBRANCH  11  12
ENDBRANCH  10  11
ENDBRANCH   8  10
ENDBRANCH   1   8
BRANCH   3  18
ATOM     18  C   UNL d   1      61.836  46.705  50.350  0.00  0.00     0.107 C 
BRANCH  18  19
ATOM     19  C   UNL d   1      61.519  46.258  49.721  0.00  0.00     0.135 C 
BRANCH  19  20
ATOM     20  O   UNL d   1      61.999  45.914  49.169  0.00  0.00    -0.325 OA
ATOM     21  C   UNL d   1      62.366  45.357  49.337  0.00  0.00     0.182 C 
ENDBRANCH  19  20
ENDBRANCH  18  19
ENDBRANCH   3  18
TORSDOF 7
ENDMDL
MODEL 2
REMARK VINA RESULT:      46.5      1.715      4.327
REMARK  7 active torsions:
REMARK  status: ('A' for Active; 'I' for Inactive)
REMARK    1  A    between atoms: C_11  and  C_1 
REMARK    2  A    between atoms: C_15  and  N_3 
REMARK    3  A    between atoms: C_7  and  S_12 
REMARK    4  A    between atoms: C_13  and  C_11 
REMARK    5  A    between atoms: S_12  and  C_13 
REMARK    6  A    between atoms: C_20  and  C_15 
REMARK    7  A    between atoms: O_19  and  C_20 
ROOT
ATOM      1  C   UNL d   1      59.635  49.511  51.287  0.00  0.00     0.057 A 
ATOM      2  C   UNL d   1      59.142  49.558  50.639  0.00  0.00     0.067 A 
ATOM      3  N   UNL d   1      58.382  49.635  50.934  0.00  0.00    -0.303 N 
ATOM      4  C   UNL d   1      59.186  49.558  51.958  0.00  0.00     0.022 A 
ATOM      5  C   UNL d   1      58.423  49.633  51.734  0.00  0.00     0.064 A 
ATOM      6  C   UNL d   1      59.367  49.533  49.846  0.00  0.00     0.019 C 
ATOM      7  C   UNL d   1      57.766  49.701  52.261  0.00  0.00     0.019 C 
ENDROOT
BRANCH   1   8
ATOM      8  C   UNL d   1      60.466  49.427  51.252  0.00  0.00     0.203 C 
ATOM      9  O   UNL d   1      60.923  49.704  51.877  0.00  0.00    -0.286 OA
BRANCH   8  10
ATOM     10  C   UNL d   1      60.823  49.074  50.601  0.00  0.00     0.079 C 
BRANCH  10  11
ATOM     11  S   UNL d   1      61.166  48.324  50.669  0.00  0.00    -0.056 SA
BRANCH  11  12
ATOM     12  C   UNL d   1      61.535  47.646  50.358  0.00  0.00     0.164 A 
ATOM     13  S   UNL d   1      61.137  47.027  49.978  0.00  0.00    -0.039 SA
ATOM     14  C   UNL d   1      61.713  46.459  49.753  0.00  0.00     0.134 A 
ATOM     15  C   UNL d   1      61.562  45.742  49.354  0.00  0.00     0.030 C 
ATOM     16  N   UNL d   1      62.462  46.738  49.998  0.00  0.00    -0.140 NA
ATOM     17  N   UNL d   1      62.342  47.477  50.374  0.00  0.00    -0.134 NA
ENDBRANCH  11  12
ENDBRANCH  10  11
ENDBRANCH   8  10
ENDBRANCH   1   8
BRANCH   3  18
ATOM     18  C   UNL d   1      57.665  49.706  50.500  0.00  0.00     0.107 C 
BRANCH  18  19
ATOM     19  C   UNL d   1      57.312  49.017  50.191  0.00  0.00     0.135 C 
BRANCH  19  20
ATOM     20  O   UNL d   1      56.703  49.060  49.661  0.00  0.00    -0.325 OA
ATOM     21  C   UNL d   1      56.160  48.643  49.731  0.00  0.00     0.182 C 
ENDBRANCH  19  20
ENDBRANCH  18  19
ENDBRANCH   3  18
TORSDOF 7
ENDMDL
MODEL 3
REMARK VINA RESULT:      48.2      1.058      1.258
REMARK  7 active torsions:
REMARK  status: ('A' for Active; 'I' for Inactive)
REMARK    1  A    between atoms: C_11  and  C_1 
REMARK    2  A    between atoms: C_15  and  N_3 
REMARK    3  A    between atoms: C_7  and  S_12 
REMARK    4  A    between atoms: C_13  and  C_11 
REMARK    5  A    between atoms: S_12  and  C_13 
REMARK    6  A    between atoms: C_20  and  C_15 
REMARK    7  A    between atoms: O_19  and  C_20 
ROOT
ATOM      1  C   UNL d   1      59.933  48.776  51.143  0.00  0.00     0.057 A 
ATOM      2  C   UNL d   1      60.624  48.824  50.713  0.00  0.00     0.067 A 
ATOM      3  N   UNL d   1      60.979  48.088  50.766  0.00  0.00    -0.303 N 
ATOM      4  C   UNL d   1      59.871  48.030  51.450  0.00  0.00     0.022 A 
ATOM      5  C   UNL d   1      60.513  47.617  51.216  0.00  0.00     0.064 A 
ATOM      6  C   UNL d   1      60.906  49.483  50.306  0.00  0.00     0.019 C 
ATOM      7  C   UNL d   1      60.671  46.811  51.413  0.00  0.00     0.019 C 
ENDROOT
BRANCH   1   8
ATOM      8  C   UNL d   1      59.387  49.401  51.244  0.00  0.00     0.203 C 
ATOM      9  O   UNL d   1      59.263  49.707  51.997  0.00  0.00    -0.286 OA
BRANCH   8  10
ATOM     10  C   UNL d   1      58.979  49.707  50.600  0.00  0.00     0.079 C 
BRANCH  10  11
ATOM     11  S   UNL d   1      58.160  49.604  50.537  0.00  0.00    -0.056 SA
BRANCH  11  12
ATOM     12  C   UNL d   1      57.474  49.337  50.150  0.00  0.00     0.164 A 
ATOM     13  S   UNL d   1      57.429  48.644  49.697  0.00  0.00    -0.039 SA
ATOM     14  C   UNL d   1      56.643  48.582  49.410  0.00  0.00     0.134 A 
ATOM     15  C   UNL d   1      56.345  47.970  48.928  0.00  0.00     0.030 C 
ATOM     16  N   UNL d   1      56.212  49.241  49.692  0.00  0.00    -0.140 NA
ATOM     17  N   UNL d   1      56.737  49.704  50.151  0.00  0.00    -0.134 NA
ENDBRANCH  11  12
ENDBRANCH  10  11
ENDBRANCH   8  10
ENDBRANCH   1   8
BRANCH   3  18
ATOM     18  C   UNL d   1      61.705  47.839  50.422  0.00  0.00     0.107 C 
BRANCH  18  19
ATOM     19  C   UNL d   1      61.705  47.177  49.915  0.00  0.00     0.135 C 
BRANCH  19  20
ATOM     20  O   UNL d   1      62.347  47.001  49.457  0.00  0.00    -0.325 OA
ATOM     21  C   UNL d   1      62.648  46.385  49.515  0.00  0.00     0.182 C 
ENDBRANCH  19  20
ENDBRANCH  18  19
ENDBRANCH   3  18
TORSDOF 7
ENDMDL
