MODEL 1
REMARK VINA RESULT:      23.6      0.000      0.000
REMARK  2 active torsions:
REMARK  status: ('A' for Active; 'I' for Inactive)
REMARK    1  A    between atoms: C_7  and  C_1 
REMARK    2  A    between atoms: C_9  and  C_1 
ROOT
ATOM      1  C   UNL d   1      46.078 -18.544  43.920  0.00  0.00     0.240 A 
ATOM      2  S   UNL d   1      46.167 -19.307  43.633  0.00  0.00    -0.043 SA
ATOM      3  N   UNL d   1      46.151 -17.905  43.404  0.00  0.00    -0.199 NA
ATOM      4  C   UNL d   1      46.327 -19.436  42.837  0.00  0.00     0.181 A 
ATOM      5  N   UNL d   1      46.400 -18.797  42.321  0.00  0.00    -0.237 N 
ATOM      6  C   UNL d   1      46.312 -18.028  42.601  0.00  0.00     0.352 A 
ATOM      7  N   UNL d   1      46.415 -20.205  42.555  0.00  0.00    -0.221 NA
ATOM      8  O   UNL d   1      46.384 -17.383  42.091  0.00  0.00    -0.244 OA
ATOM      9  C   UNL d   1      46.560 -18.926  41.523  0.00  0.00     0.088 A 
ATOM     10  C   UNL d   1      46.573 -20.329  41.765  0.00  0.00     0.103 A 
ATOM     11  C   UNL d   1      46.646 -19.690  41.249  0.00  0.00     0.040 A 
ENDROOT
BRANCH   1  12
ATOM     12  C   UNL d   1      46.005 -19.184  44.436  0.00  0.00     0.429 C 
ATOM     13  F   UNL d   1      45.952 -19.764  44.908  0.00  0.00    -0.167 F 
ATOM     14  F   UNL d   1      46.619 -19.560  44.902  0.00  0.00    -0.167 F 
ATOM     15  F   UNL d   1      45.314 -19.636  44.642  0.00  0.00    -0.167 F 
ENDBRANCH   1  12
BRANCH   1  16
ATOM     16  C   UNL d   1      45.991 -17.769  44.195  0.00  0.00     0.016 A 
ATOM     17  C   UNL d   1      46.593 -17.427  44.656  0.00  0.00    -0.001 A 
ATOM     18  C   UNL d   1      46.509 -16.654  44.932  0.00  0.00    -0.000 A 
ATOM     19  C   UNL d   1      45.822 -16.220  44.747  0.00  0.00    -0.000 A 
ATOM     20  C   UNL d   1      45.230 -16.572  44.288  0.00  0.00    -0.000 A 
ATOM     21  C   UNL d   1      45.309 -17.343  44.010  0.00  0.00    -0.001 A 
ENDBRANCH   1  16
TORSDOF 2
ENDMDL
MODEL 2
REMARK VINA RESULT:      24.3      1.755      2.903
REMARK  2 active torsions:
REMARK  status: ('A' for Active; 'I' for Inactive)
REMARK    1  A    between atoms: C_7  and  C_1 
REMARK    2  A    between atoms: C_9  and  C_1 
ROOT
ATOM      1  C   UNL d   1      46.071 -18.181  42.565  0.00  0.00     0.240 A 
ATOM      2  S   UNL d   1      46.167 -18.201  43.378  0.00  0.00    -0.043 SA
ATOM      3  N   UNL d   1      46.135 -18.879  42.130  0.00  0.00    -0.199 NA
ATOM      4  C   UNL d   1      46.327 -18.912  43.761  0.00  0.00     0.181 A 
ATOM      5  N   UNL d   1      46.391 -19.610  43.326  0.00  0.00    -0.237 N 
ATOM      6  C   UNL d   1      46.296 -19.598  42.509  0.00  0.00     0.352 A 
ATOM      7  N   UNL d   1      46.423 -18.925  44.579  0.00  0.00    -0.221 NA
ATOM      8  O   UNL d   1      46.359 -20.292  42.068  0.00  0.00    -0.244 OA
ATOM      9  C   UNL d   1      46.551 -20.321  43.710  0.00  0.00     0.088 A 
ATOM     10  C   UNL d   1      46.581 -19.631  44.955  0.00  0.00     0.103 A 
ATOM     11  C   UNL d   1      46.645 -20.330  44.520  0.00  0.00     0.040 A 
ENDROOT
BRANCH   1  12
ATOM     12  C   UNL d   1      46.006 -17.483  42.999  0.00  0.00     0.429 C 
ATOM     13  F   UNL d   1      45.961 -16.847  43.396  0.00  0.00    -0.167 F 
ATOM     14  F   UNL d   1      46.637 -17.002  43.325  0.00  0.00    -0.167 F 
ATOM     15  F   UNL d   1      45.308 -17.057  43.239  0.00  0.00    -0.167 F 
ENDBRANCH   1  12
BRANCH   1  16
ATOM     16  C   UNL d   1      45.976 -18.176  41.743  0.00  0.00     0.016 A 
ATOM     17  C   UNL d   1      46.646 -18.168  41.253  0.00  0.00    -0.001 A 
ATOM     18  C   UNL d   1      46.555 -18.162  40.432  0.00  0.00    -0.000 A 
ATOM     19  C   UNL d   1      45.791 -18.165  40.101  0.00  0.00    -0.000 A 
ATOM     20  C   UNL d   1      45.130 -18.173  40.600  0.00  0.00    -0.000 A 
ATOM     21  C   UNL d   1      45.217 -18.178  41.419  0.00  0.00    -0.001 A 
ENDBRANCH   1  16
TORSDOF 2
ENDMDL
MODEL 3
REMARK VINA RESULT:      25.8      1.721      2.471
REMARK  2 active torsions:
REMARK  status: ('A' for Active; 'I' for Inactive)
REMARK    1  A    between atoms: C_7  and  C_1 
REMARK    2  A    between atoms: C_9  and  C_1 
ROOT
ATOM      1  C   UNL d   1      46.269 -18.453  42.925  0.00  0.00     0.240 A 
ATOM      2  S   UNL d   1      46.205 -17.932  42.295  0.00  0.00    -0.043 SA
ATOM      3  N   UNL d   1      46.416 -19.252  42.779  0.00  0.00    -0.199 NA
ATOM      4  C   UNL d   1      46.287 -18.202  41.522  0.00  0.00     0.181 A 
ATOM      5  N   UNL d   1      46.434 -19.000  41.376  0.00  0.00    -0.237 N 
ATOM      6  C   UNL d   1      46.500 -19.530  42.003  0.00  0.00     0.352 A 
ATOM      7  N   UNL d   1      46.222 -17.674  40.894  0.00  0.00    -0.221 NA
ATOM      8  O   UNL d   1      46.647 -20.330  41.865  0.00  0.00    -0.244 OA
ATOM      9  C   UNL d   1      46.516 -19.271  40.602  0.00  0.00     0.088 A 
ATOM     10  C   UNL d   1      46.304 -17.944  40.129  0.00  0.00     0.103 A 
ATOM     11  C   UNL d   1      46.451 -18.743  39.983  0.00  0.00     0.040 A 
ENDROOT
BRANCH   1  12
ATOM     12  C   UNL d   1      46.122 -17.654  43.070  0.00  0.00     0.429 C 
ATOM     13  F   UNL d   1      45.976 -16.931  43.206  0.00  0.00    -0.167 F 
ATOM     14  F   UNL d   1      45.392 -17.291  43.336  0.00  0.00    -0.167 F 
ATOM     15  F   UNL d   1      46.645 -16.986  42.998  0.00  0.00    -0.167 F 
ENDBRANCH   1  12
BRANCH   1  16
ATOM     16  C   UNL d   1      46.336 -18.990  43.550  0.00  0.00     0.016 A 
ATOM     17  C   UNL d   1      46.406 -18.707  44.328  0.00  0.00    -0.001 A 
ATOM     18  C   UNL d   1      46.473 -19.240  44.955  0.00  0.00    -0.000 A 
ATOM     19  C   UNL d   1      46.470 -20.059  44.804  0.00  0.00    -0.000 A 
ATOM     20  C   UNL d   1      46.399 -20.328  44.024  0.00  0.00    -0.000 A 
ATOM     21  C   UNL d   1      46.332 -19.800  43.396  0.00  0.00    -0.001 A 
ENDBRANCH   1  16
TORSDOF 2
ENDMDL
