MODEL 1
REMARK VINA RESULT:      11.1      0.000      0.000
REMARK  2 active torsions:
REMARK  status: ('A' for Active; 'I' for Inactive)
REMARK    1  A    between atoms: C_6  and  C_1 
REMARK    2  A    between atoms: O_10  and  C_6 
ROOT
ATOM      1  C   UNL d   1      13.605  12.265  -2.922  0.00  0.00     0.096 A 
ATOM      2  S   UNL d   1      14.431  12.299  -2.810  0.00  0.00    -0.040 SA
ATOM      3  C   UNL d   1      14.749  12.194  -2.051  0.00  0.00     0.226 A 
ATOM      4  C   UNL d   1      13.107  12.126  -2.273  0.00  0.00     0.012 A 
ATOM      5  C   UNL d   1      13.426  12.022  -1.521  0.00  0.00     0.004 A 
ATOM      6  C   UNL d   1      14.242  12.056  -1.410  0.00  0.00     0.045 A 
ATOM      7  O   UNL d   1      15.566  12.228  -1.940  0.00  0.00    -0.279 OA
ATOM      8  C   UNL d   1      12.928  11.884  -0.881  0.00  0.00     0.000 A 
ATOM      9  C   UNL d   1      14.570  11.953  -0.658  0.00  0.00     0.004 A 
ATOM     10  C   UNL d   1      13.247  11.781  -0.128  0.00  0.00     0.000 A 
ATOM     11  C   UNL d   1      14.073  11.815  -0.016  0.00  0.00     0.000 A 
ENDROOT
BRANCH   1  12
ATOM     12  C   UNL d   1      13.295  12.370  -3.677  0.00  0.00     0.302 C 
ATOM     13  O   UNL d   1      12.920  13.080  -3.866  0.00  0.00    -0.259 OA
BRANCH  12  14
ATOM     14  O   UNL d   1      13.353  11.780  -4.244  0.00  0.00    -0.295 OA
ATOM     15  C   UNL d   1      12.850  11.798  -4.908  0.00  0.00     0.185 C 
ENDBRANCH  12  14
ENDBRANCH   1  12
TORSDOF 2
ENDMDL
MODEL 2
REMARK VINA RESULT:      13.3      1.167      3.187
REMARK  2 active torsions:
REMARK  status: ('A' for Active; 'I' for Inactive)
REMARK    1  A    between atoms: C_6  and  C_1 
REMARK    2  A    between atoms: O_10  and  C_6 
ROOT
ATOM      1  C   UNL d   1      14.185  12.323  -2.171  0.00  0.00     0.096 A 
ATOM      2  S   UNL d   1      14.258  13.148  -2.273  0.00  0.00    -0.040 SA
ATOM      3  C   UNL d   1      13.937  13.509  -2.947  0.00  0.00     0.226 A 
ATOM      4  C   UNL d   1      13.794  11.870  -2.745  0.00  0.00     0.012 A 
ATOM      5  C   UNL d   1      13.476  12.232  -3.413  0.00  0.00     0.004 A 
ATOM      6  C   UNL d   1      13.548  13.048  -3.514  0.00  0.00     0.045 A 
ATOM      7  O   UNL d   1      14.008  14.325  -3.048  0.00  0.00    -0.279 OA
ATOM      8  C   UNL d   1      13.089  11.779  -3.980  0.00  0.00     0.000 A 
ATOM      9  C   UNL d   1      13.232  13.419  -4.182  0.00  0.00     0.004 A 
ATOM     10  C   UNL d   1      12.771  12.141  -4.648  0.00  0.00     0.000 A 
ATOM     11  C   UNL d   1      12.844  12.966  -4.750  0.00  0.00     0.000 A 
ENDROOT
BRANCH   1  12
ATOM     12  C   UNL d   1      14.505  11.970  -1.500  0.00  0.00     0.302 C 
ATOM     13  O   UNL d   1      15.311  11.796  -1.479  0.00  0.00    -0.259 OA
BRANCH  12  14
ATOM     14  O   UNL d   1      14.036  11.788  -0.854  0.00  0.00    -0.295 OA
ATOM     15  C   UNL d   1      14.355  11.845  -0.085  0.00  0.00     0.185 C 
ENDBRANCH  12  14
ENDBRANCH   1  12
TORSDOF 2
ENDMDL
MODEL 3
REMARK VINA RESULT:      13.7      9.198     10.245
REMARK  2 active torsions:
REMARK  status: ('A' for Active; 'I' for Inactive)
REMARK    1  A    between atoms: C_6  and  C_1 
REMARK    2  A    between atoms: O_10  and  C_6 
ROOT
ATOM      1  C   UNL d   1      23.960  12.592  -2.904  0.00  0.00     0.096 A 
ATOM      2  S   UNL d   1      23.152  12.753  -2.775  0.00  0.00    -0.040 SA
ATOM      3  C   UNL d   1      22.889  12.960  -2.016  0.00  0.00     0.226 A 
ATOM      4  C   UNL d   1      24.496  12.641  -2.272  0.00  0.00     0.012 A 
ATOM      5  C   UNL d   1      24.231  12.847  -1.520  0.00  0.00     0.004 A 
ATOM      6  C   UNL d   1      23.432  13.005  -1.393  0.00  0.00     0.045 A 
ATOM      7  O   UNL d   1      22.089  13.119  -1.889  0.00  0.00    -0.279 OA
ATOM      8  C   UNL d   1      24.765  12.894  -0.896  0.00  0.00     0.000 A 
ATOM      9  C   UNL d   1      23.158  13.213  -0.640  0.00  0.00     0.004 A 
ATOM     10  C   UNL d   1      24.501  13.099  -0.144  0.00  0.00     0.000 A 
ATOM     11  C   UNL d   1      23.693  13.260  -0.015  0.00  0.00     0.000 A 
ENDROOT
BRANCH   1  12
ATOM     12  C   UNL d   1      24.216  12.387  -3.659  0.00  0.00     0.302 C 
ATOM     13  O   UNL d   1      24.766  11.779  -3.749  0.00  0.00    -0.259 OA
BRANCH  12  14
ATOM     14  O   UNL d   1      23.933  12.778  -4.322  0.00  0.00    -0.295 OA
ATOM     15  C   UNL d   1      24.387  12.781  -5.022  0.00  0.00     0.185 C 
ENDBRANCH  12  14
ENDBRANCH   1  12
TORSDOF 2
ENDMDL
