MODEL 1
REMARK VINA RESULT:       0.2      0.000      0.000
REMARK  4 active torsions:
REMARK  status: ('A' for Active; 'I' for Inactive)
REMARK    1  A    between atoms: C_7  and  C_1 
REMARK    2  A    between atoms: C_9  and  C_3 
REMARK    3  A    between atoms: O_13  and  C_7 
REMARK    4  A    between atoms: C_18  and  O_13 
ROOT
ATOM      1  C   UNL d   1     -41.530-122.321 -52.454  0.00  0.00     0.099 A 
ATOM      2  C   UNL d   1     -41.290-121.762 -52.992  0.00  0.00     0.093 A 
ATOM      3  C   UNL d   1     -41.640-122.105 -51.646  0.00  0.00     0.093 A 
ATOM      4  C   UNL d   1     -41.265-120.774 -51.953  0.00  0.00     0.369 A 
ATOM      5  N   UNL d   1     -41.154-120.969 -52.739  0.00  0.00    -0.191 NA
ATOM      6  N   UNL d   1     -41.510-121.347 -51.402  0.00  0.00    -0.191 NA
ATOM      7  O   UNL d   1     -41.124-119.981 -51.721  0.00  0.00    -0.242 OA
ATOM      8  C   UNL d   1     -41.180-121.961 -53.781  0.00  0.00     0.021 C 
ENDROOT
BRANCH   3   9
ATOM      9  C   UNL d   1     -41.887-122.681 -51.092  0.00  0.00     0.018 A 
ATOM     10  C   UNL d   1     -41.310-123.146 -50.692  0.00  0.00     0.002 A 
ATOM     11  C   UNL d   1     -41.553-123.711 -50.148  0.00  0.00     0.000 A 
ATOM     12  C   UNL d   1     -42.373-123.816 -50.000  0.00  0.00     0.000 A 
ATOM     13  C   UNL d   1     -42.921-123.360 -50.393  0.00  0.00     0.000 A 
ATOM     14  C   UNL d   1     -42.676-122.787 -50.944  0.00  0.00     0.002 A 
ENDBRANCH   3   9
BRANCH   1  15
ATOM     15  C   UNL d   1     -41.666-123.110 -52.701  0.00  0.00     0.303 C 
ATOM     16  O   UNL d   1     -41.161-123.719 -52.471  0.00  0.00    -0.259 OA
BRANCH  15  17
ATOM     17  O   UNL d   1     -42.308-123.265 -53.173  0.00  0.00    -0.271 OA
BRANCH  17  18
ATOM     18  C   UNL d   1     -42.232-123.787 -53.808  0.00  0.00     0.126 C 
ATOM     19  C   UNL d   1     -42.363-123.532 -54.565  0.00  0.00     0.029 C 
ENDBRANCH  17  18
ENDBRANCH  15  17
ENDBRANCH   1  15
TORSDOF 4
ENDMDL
MODEL 2
REMARK VINA RESULT:       0.4      2.352      3.545
REMARK  4 active torsions:
REMARK  status: ('A' for Active; 'I' for Inactive)
REMARK    1  A    between atoms: C_7  and  C_1 
REMARK    2  A    between atoms: C_9  and  C_3 
REMARK    3  A    between atoms: O_13  and  C_7 
REMARK    4  A    between atoms: C_18  and  O_13 
ROOT
ATOM      1  C   UNL d   1     -42.554-122.943 -49.849  0.00  0.00     0.099 A 
ATOM      2  C   UNL d   1     -43.077-123.041 -50.461  0.00  0.00     0.093 A 
ATOM      3  C   UNL d   1     -42.787-123.137 -49.062  0.00  0.00     0.093 A 
ATOM      4  C   UNL d   1     -44.065-123.520 -49.539  0.00  0.00     0.369 A 
ATOM      5  N   UNL d   1     -43.852-123.336 -50.306  0.00  0.00    -0.191 NA
ATOM      6  N   UNL d   1     -43.528-123.420 -48.911  0.00  0.00    -0.191 NA
ATOM      7  O   UNL d   1     -44.839-123.812 -49.405  0.00  0.00    -0.242 OA
ATOM      8  C   UNL d   1     -42.861-122.855 -51.232  0.00  0.00     0.021 C 
ENDROOT
BRANCH   3   9
ATOM      9  C   UNL d   1     -42.247-123.036 -48.431  0.00  0.00     0.018 A 
ATOM     10  C   UNL d   1     -41.677-123.635 -48.274  0.00  0.00     0.002 A 
ATOM     11  C   UNL d   1     -41.147-123.536 -47.654  0.00  0.00     0.000 A 
ATOM     12  C   UNL d   1     -41.183-122.837 -47.189  0.00  0.00     0.000 A 
ATOM     13  C   UNL d   1     -41.739-122.265 -47.351  0.00  0.00     0.000 A 
ATOM     14  C   UNL d   1     -42.276-122.366 -47.978  0.00  0.00     0.002 A 
ENDBRANCH   3   9
BRANCH   1  15
ATOM     15  C   UNL d   1     -41.783-122.650 -49.999  0.00  0.00     0.303 C 
ATOM     16  O   UNL d   1     -41.123-123.139 -49.929  0.00  0.00    -0.259 OA
BRANCH  15  17
ATOM     17  O   UNL d   1     -41.697-121.873 -50.215  0.00  0.00    -0.271 OA
BRANCH  17  18
ATOM     18  C   UNL d   1     -41.123-121.664 -50.771  0.00  0.00     0.126 C 
ATOM     19  C   UNL d   1     -41.142-120.936 -51.124  0.00  0.00     0.029 C 
ENDBRANCH  17  18
ENDBRANCH  15  17
ENDBRANCH   1  15
TORSDOF 4
ENDMDL
MODEL 3
REMARK VINA RESULT:       1.7      1.035      2.400
REMARK  4 active torsions:
REMARK  status: ('A' for Active; 'I' for Inactive)
REMARK    1  A    between atoms: C_7  and  C_1 
REMARK    2  A    between atoms: C_9  and  C_3 
REMARK    3  A    between atoms: O_13  and  C_7 
REMARK    4  A    between atoms: C_18  and  O_13 
ROOT
ATOM      1  C   UNL d   1     -41.477-121.995 -52.325  0.00  0.00     0.099 A 
ATOM      2  C   UNL d   1     -41.390-121.866 -53.121  0.00  0.00     0.093 A 
ATOM      3  C   UNL d   1     -41.741-122.748 -52.048  0.00  0.00     0.093 A 
ATOM      4  C   UNL d   1     -41.818-123.209 -53.386  0.00  0.00     0.369 A 
ATOM      5  N   UNL d   1     -41.563-122.485 -53.667  0.00  0.00    -0.191 NA
ATOM      6  N   UNL d   1     -41.907-123.342 -52.569  0.00  0.00    -0.191 NA
ATOM      7  O   UNL d   1     -41.985-123.811 -53.944  0.00  0.00    -0.242 OA
ATOM      8  C   UNL d   1     -41.134-121.138 -53.402  0.00  0.00     0.021 C 
ENDROOT
BRANCH   3   9
ATOM      9  C   UNL d   1     -41.831-122.881 -51.228  0.00  0.00     0.018 A 
ATOM     10  C   UNL d   1     -41.233-123.297 -50.807  0.00  0.00     0.002 A 
ATOM     11  C   UNL d   1     -41.321-123.427 -50.001  0.00  0.00     0.000 A 
ATOM     12  C   UNL d   1     -42.008-123.143 -49.610  0.00  0.00     0.000 A 
ATOM     13  C   UNL d   1     -42.581-122.742 -50.028  0.00  0.00     0.000 A 
ATOM     14  C   UNL d   1     -42.491-122.610 -50.844  0.00  0.00     0.002 A 
ENDBRANCH   3   9
BRANCH   1  15
ATOM     15  C   UNL d   1     -41.306-121.383 -51.779  0.00  0.00     0.303 C 
ATOM     16  O   UNL d   1     -41.123-121.555 -50.994  0.00  0.00    -0.259 OA
BRANCH  15  17
ATOM     17  O   UNL d   1     -41.324-120.614 -52.037  0.00  0.00    -0.271 OA
BRANCH  17  18
ATOM     18  C   UNL d   1     -41.172-120.000 -51.505  0.00  0.00     0.126 C 
ATOM     19  C   UNL d   1     -41.123-119.237 -51.767  0.00  0.00     0.029 C 
ENDBRANCH  17  18
ENDBRANCH  15  17
ENDBRANCH   1  15
TORSDOF 4
ENDMDL
MODEL 4
REMARK VINA RESULT:       2.0      2.084      3.511
REMARK  4 active torsions:
REMARK  status: ('A' for Active; 'I' for Inactive)
REMARK    1  A    between atoms: C_7  and  C_1 
REMARK    2  A    between atoms: C_9  and  C_3 
REMARK    3  A    between atoms: O_13  and  C_7 
REMARK    4  A    between atoms: C_18  and  O_13 
ROOT
ATOM      1  C   UNL d   1     -42.541-122.695 -49.737  0.00  0.00     0.099 A 
ATOM      2  C   UNL d   1     -42.766-122.694 -48.958  0.00  0.00     0.093 A 
ATOM      3  C   UNL d   1     -41.825-123.077 -49.967  0.00  0.00     0.093 A 
ATOM      4  C   UNL d   1     -41.591-123.442 -48.618  0.00  0.00     0.369 A 
ATOM      5  N   UNL d   1     -42.282-123.076 -48.382  0.00  0.00    -0.191 NA
ATOM      6  N   UNL d   1     -41.360-123.443 -49.418  0.00  0.00    -0.191 NA
ATOM      7  O   UNL d   1     -41.123-123.816 -48.031  0.00  0.00    -0.242 OA
ATOM      8  C   UNL d   1     -43.462-122.325 -48.723  0.00  0.00     0.021 C 
ENDROOT
BRANCH   3   9
ATOM      9  C   UNL d   1     -41.593-123.077 -50.770  0.00  0.00     0.018 A 
ATOM     10  C   UNL d   1     -41.357-122.356 -51.135  0.00  0.00     0.002 A 
ATOM     11  C   UNL d   1     -41.129-122.357 -51.923  0.00  0.00     0.000 A 
ATOM     12  C   UNL d   1     -41.136-123.078 -52.354  0.00  0.00     0.000 A 
ATOM     13  C   UNL d   1     -41.366-123.770 -51.991  0.00  0.00     0.000 A 
ATOM     14  C   UNL d   1     -41.596-123.769 -51.192  0.00  0.00     0.002 A 
ENDBRANCH   3   9
BRANCH   1  15
ATOM     15  C   UNL d   1     -43.019-122.317 -50.312  0.00  0.00     0.303 C 
ATOM     16  O   UNL d   1     -42.699-121.762 -50.830  0.00  0.00    -0.259 OA
BRANCH  15  17
ATOM     17  O   UNL d   1     -43.806-122.508 -50.352  0.00  0.00    -0.271 OA
BRANCH  17  18
ATOM     18  C   UNL d   1     -44.361-121.923 -50.534  0.00  0.00     0.126 C 
ATOM     19  C   UNL d   1     -45.114-122.127 -50.746  0.00  0.00     0.029 C 
ENDBRANCH  17  18
ENDBRANCH  15  17
ENDBRANCH   1  15
TORSDOF 4
ENDMDL
MODEL 5
REMARK VINA RESULT:       2.8      1.551      2.661
REMARK  4 active torsions:
REMARK  status: ('A' for Active; 'I' for Inactive)
REMARK    1  A    between atoms: C_7  and  C_1 
REMARK    2  A    between atoms: C_9  and  C_3 
REMARK    3  A    between atoms: O_13  and  C_7 
REMARK    4  A    between atoms: C_18  and  O_13 
ROOT
ATOM      1  C   UNL d   1     -42.352-122.361 -51.321  0.00  0.00     0.099 A 
ATOM      2  C   UNL d   1     -42.454-122.261 -52.119  0.00  0.00     0.093 A 
ATOM      3  C   UNL d   1     -41.830-122.959 -51.035  0.00  0.00     0.093 A 
ATOM      4  C   UNL d   1     -41.535-123.333 -52.370  0.00  0.00     0.369 A 
ATOM      5  N   UNL d   1     -42.037-122.757 -52.659  0.00  0.00    -0.191 NA
ATOM      6  N   UNL d   1     -41.430-123.435 -51.551  0.00  0.00    -0.191 NA
ATOM      7  O   UNL d   1     -41.129-123.815 -52.922  0.00  0.00    -0.242 OA
ATOM      8  C   UNL d   1     -42.960-121.682 -52.408  0.00  0.00     0.021 C 
ENDROOT
BRANCH   3   9
ATOM      9  C   UNL d   1     -41.725-123.061 -50.212  0.00  0.00     0.018 A 
ATOM     10  C   UNL d   1     -42.131-123.683 -49.816  0.00  0.00     0.002 A 
ATOM     11  C   UNL d   1     -42.027-123.784 -49.008  0.00  0.00     0.000 A 
ATOM     12  C   UNL d   1     -41.517-123.263 -48.590  0.00  0.00     0.000 A 
ATOM     13  C   UNL d   1     -41.130-122.666 -48.983  0.00  0.00     0.000 A 
ATOM     14  C   UNL d   1     -41.234-122.564 -49.802  0.00  0.00     0.002 A 
ENDBRANCH   3   9
BRANCH   1  15
ATOM     15  C   UNL d   1     -42.764-121.870 -50.780  0.00  0.00     0.303 C 
ATOM     16  O   UNL d   1     -42.446-121.152 -50.533  0.00  0.00    -0.259 OA
BRANCH  15  17
ATOM     17  O   UNL d   1     -43.485-122.116 -50.503  0.00  0.00    -0.271 OA
BRANCH  17  18
ATOM     18  C   UNL d   1     -44.060-121.556 -50.303  0.00  0.00     0.126 C 
ATOM     19  C   UNL d   1     -44.843-121.755 -50.312  0.00  0.00     0.029 C 
ENDBRANCH  17  18
ENDBRANCH  15  17
ENDBRANCH   1  15
TORSDOF 4
ENDMDL
