MODEL 1
REMARK VINA RESULT:       0.4      0.000      0.000
REMARK  5 active torsions:
REMARK  status: ('A' for Active; 'I' for Inactive)
REMARK    1  A    between atoms: C_12  and  N_3 
REMARK    2  A    between atoms: C_11  and  C_5 
REMARK    3  A    between atoms: C_10  and  C_8 
REMARK    4  A    between atoms: O_27  and  C_14 
REMARK    5  A    between atoms: O_28  and  C_21 
ROOT
ATOM      1  C   UNL d   1      60.142  -1.214  29.403  0.00  0.00     0.143 A 
ATOM      2  C   UNL d   1      59.463  -1.685  29.373  0.00  0.00     0.172 A 
ATOM      3  N   UNL d   1      59.657  -2.408  29.014  0.00  0.00    -0.242 N 
ATOM      4  C   UNL d   1      60.463  -2.379  28.823  0.00  0.00     0.355 A 
ATOM      5  C   UNL d   1      60.112  -0.469  29.730  0.00  0.00     0.163 A 
ATOM      6  N   UNL d   1      58.746  -1.399  29.676  0.00  0.00    -0.207 NA
ATOM      7  N   UNL d   1      60.756  -1.645  29.064  0.00  0.00    -0.187 NA
ATOM      8  C   UNL d   1      58.725  -0.639  30.007  0.00  0.00     0.166 A 
ATOM      9  N   UNL d   1      59.409  -0.174  30.034  0.00  0.00    -0.220 NA
ATOM     10  O   UNL d   1      60.890  -2.984  28.455  0.00  0.00    -0.244 OA
ENDROOT
BRANCH   8  11
ATOM     11  C   UNL d   1      58.019  -0.347  30.310  0.00  0.00     0.060 A 
ATOM     12  C   UNL d   1      57.548   0.145  29.852  0.00  0.00     0.097 A 
ATOM     13  C   UNL d   1      56.837   0.439  30.158  0.00  0.00     0.026 A 
ATOM     14  C   UNL d   1      56.606   0.238  30.916  0.00  0.00     0.026 A 
ATOM     15  C   UNL d   1      57.082  -0.255  31.368  0.00  0.00     0.094 A 
ATOM     16  C   UNL d   1      57.786  -0.550  31.076  0.00  0.00     0.029 A 
BRANCH  12  17
ATOM     17  O   UNL d   1      57.789   0.345  29.086  0.00  0.00    -0.328 OA
ATOM     18  C   UNL d   1      57.231   0.681  28.572  0.00  0.00     0.181 C 
ENDBRANCH  12  17
BRANCH  15  19
ATOM     19  O   UNL d   1      56.848  -0.458  32.133  0.00  0.00    -0.328 OA
ATOM     20  C   UNL d   1      56.295  -1.059  32.252  0.00  0.00     0.181 C 
ENDBRANCH  15  19
ENDBRANCH   8  11
BRANCH   5  21
ATOM     21  C   UNL d   1      60.790   0.002  29.761  0.00  0.00     0.316 C 
ATOM     22  O   UNL d   1      61.133   0.196  30.485  0.00  0.00    -0.262 OA
ATOM     23  N   UNL d   1      61.125   0.278  29.052  0.00  0.00    -0.101 N 
ENDBRANCH   5  21
BRANCH   3  24
ATOM     24  C   UNL d   1      59.147  -3.031  28.875  0.00  0.00     0.070 A 
ATOM     25  C   UNL d   1      58.391  -2.875  28.619  0.00  0.00     0.020 A 
ATOM     26  C   UNL d   1      57.873  -3.508  28.478  0.00  0.00     0.031 A 
ATOM     27  C   UNL d   1      58.136  -4.286  28.600  0.00  0.00     0.140 A 
ATOM     28  C   UNL d   1      58.898  -4.437  28.858  0.00  0.00     0.031 A 
ATOM     29  F   UNL d   1      57.614  -4.912  28.458  0.00  0.00    -0.204 F 
ATOM     30  C   UNL d   1      59.407  -3.805  28.996  0.00  0.00     0.020 A 
ENDBRANCH   3  24
TORSDOF 5
ENDMDL
