MODEL 1
REMARK VINA RESULT:      -7.9      0.000      0.000
REMARK  5 active torsions:
REMARK  status: ('A' for Active; 'I' for Inactive)
REMARK    1  A    between atoms: N_2  and  C_3 
REMARK       I    between atoms: C_4  and  N_5 
REMARK    2  A    between atoms: C_8  and  C_4 
REMARK    3  A    between atoms: N_5  and  C_9 
REMARK    4  A    between atoms: C_14  and  N_5 
REMARK    5  A    between atoms: C_20  and  C_14 
ROOT
ATOM      1  C   UNL d   1     -47.860  14.164  22.898  0.00  0.00     0.265 C 
ATOM      2  N   UNL d   1     -47.582  13.402  23.053  0.00  0.00    -0.273 N 
ATOM      3  O   UNL d   1     -47.404  14.820  23.117  0.00  0.00    -0.267 OA
ENDROOT
BRANCH   2   4
ATOM      4  C   UNL d   1     -48.026  12.740  22.840  0.00  0.00     0.079 A 
ATOM      5  C   UNL d   1     -48.389  12.220  23.366  0.00  0.00     0.116 A 
ATOM      6  S   UNL d   1     -48.774  11.637  22.920  0.00  0.00     0.213 S 
ATOM      7  O   UNL d   1     -49.207  10.989  22.658  0.00  0.00    -0.217 OA
ATOM      8  O   UNL d   1     -48.934  11.423  23.698  0.00  0.00    -0.217 OA
ATOM      9  C   UNL d   1     -48.644  11.805  22.118  0.00  0.00     0.100 A 
ATOM     10  C   UNL d   1     -48.182  12.486  22.067  0.00  0.00     0.030 A 
ENDBRANCH   2   4
BRANCH   2  11
ATOM     11  C   UNL d   1     -46.843  13.299  23.430  0.00  0.00     0.083 C 
BRANCH  11  12
ATOM     12  C   UNL d   1     -46.163  13.198  22.976  0.00  0.00     0.018 A 
ATOM     13  C   UNL d   1     -45.735  12.489  23.032  0.00  0.00     0.013 A 
ATOM     14  C   UNL d   1     -45.051  12.385  22.577  0.00  0.00     0.058 A 
ATOM     15 CL   UNL d   1     -44.626  11.688  22.630  0.00  0.00    -0.082 Cl
ATOM     16  C   UNL d   1     -44.800  12.987  22.070  0.00  0.00     0.011 A 
ATOM     17  C   UNL d   1     -45.231  13.691  22.018  0.00  0.00     0.001 A 
ATOM     18  C   UNL d   1     -45.908  13.797  22.468  0.00  0.00     0.002 A 
ENDBRANCH  11  12
ENDBRANCH   2  11
BRANCH   1  19
ATOM     19  C   UNL d   1     -48.583  14.264  22.529  0.00  0.00     0.058 A 
ATOM     20  C   UNL d   1     -49.239  14.500  22.972  0.00  0.00     0.029 A 
ATOM     21  C   UNL d   1     -49.962  14.600  22.605  0.00  0.00     0.137 A 
ATOM     22  C   UNL d   1     -50.033  14.464  21.797  0.00  0.00     0.080 A 
ATOM     23  C   UNL d   1     -49.378  14.228  21.355  0.00  0.00     0.013 A 
ATOM     24 CL   UNL d   1     -50.768  14.566  21.430  0.00  0.00    -0.081 Cl
ATOM     25  C   UNL d   1     -48.655  14.128  21.722  0.00  0.00     0.006 A 
BRANCH  21  26
ATOM     26  N   UNL d   1     -50.618  14.837  23.048  0.00  0.00    -0.113 N 
ATOM     27  O   UNL d   1     -50.954  14.319  23.583  0.00  0.00    -0.532 OA
ATOM     28  O   UNL d   1     -50.926  15.592  22.945  0.00  0.00    -0.532 OA
ENDBRANCH  21  26
ENDBRANCH   1  19
TORSDOF 5
ENDMDL
MODEL 2
REMARK VINA RESULT:      -5.9      7.767      9.633
REMARK  5 active torsions:
REMARK  status: ('A' for Active; 'I' for Inactive)
REMARK    1  A    between atoms: N_2  and  C_3 
REMARK       I    between atoms: C_4  and  N_5 
REMARK    2  A    between atoms: C_8  and  C_4 
REMARK    3  A    between atoms: N_5  and  C_9 
REMARK    4  A    between atoms: C_14  and  N_5 
REMARK    5  A    between atoms: C_20  and  C_14 
ROOT
ATOM      1  C   UNL d   1     -38.817  15.377  20.089  0.00  0.00     0.265 C 
ATOM      2  N   UNL d   1     -39.575  15.463  19.773  0.00  0.00    -0.273 N 
ATOM      3  O   UNL d   1     -38.174  15.746  19.719  0.00  0.00    -0.267 OA
ENDROOT
BRANCH   2   4
ATOM      4  C   UNL d   1     -40.225  15.101  20.131  0.00  0.00     0.079 A 
ATOM      5  C   UNL d   1     -40.824  15.492  20.539  0.00  0.00     0.116 A 
ATOM      6  S   UNL d   1     -41.361  14.921  20.807  0.00  0.00     0.213 S 
ATOM      7  O   UNL d   1     -41.990  14.514  21.148  0.00  0.00    -0.217 OA
ATOM      8  O   UNL d   1     -41.681  15.629  21.077  0.00  0.00    -0.217 OA
ATOM      9  C   UNL d   1     -41.086  14.178  20.560  0.00  0.00     0.100 A 
ATOM     10  C   UNL d   1     -40.384  14.288  20.143  0.00  0.00     0.030 A 
ENDBRANCH   2   4
BRANCH   2  11
ATOM     11  C   UNL d   1     -39.689  15.922  19.083  0.00  0.00     0.083 C 
BRANCH  11  12
ATOM     12  C   UNL d   1     -39.662  15.562  18.344  0.00  0.00     0.018 A 
ATOM     13  C   UNL d   1     -40.343  15.551  17.868  0.00  0.00     0.013 A 
ATOM     14  C   UNL d   1     -40.318  15.189  17.125  0.00  0.00     0.058 A 
ATOM     15 CL   UNL d   1     -40.986  15.177  16.653  0.00  0.00    -0.082 Cl
ATOM     16  C   UNL d   1     -39.617  14.842  16.860  0.00  0.00     0.011 A 
ATOM     17  C   UNL d   1     -38.942  14.855  17.337  0.00  0.00     0.001 A 
ATOM     18  C   UNL d   1     -38.963  15.213  18.075  0.00  0.00     0.002 A 
ENDBRANCH  11  12
ENDBRANCH   2  11
BRANCH   1  19
ATOM     19  C   UNL d   1     -38.708  14.928  20.764  0.00  0.00     0.058 A 
ATOM     20  C   UNL d   1     -38.676  15.299  21.501  0.00  0.00     0.029 A 
ATOM     21  C   UNL d   1     -38.567  14.852  22.176  0.00  0.00     0.137 A 
ATOM     22  C   UNL d   1     -38.490  14.034  22.117  0.00  0.00     0.080 A 
ATOM     23  C   UNL d   1     -38.522  13.664  21.381  0.00  0.00     0.013 A 
ATOM     24 CL   UNL d   1     -38.380  13.586  22.804  0.00  0.00    -0.081 Cl
ATOM     25  C   UNL d   1     -38.631  14.112  20.705  0.00  0.00     0.006 A 
BRANCH  21  26
ATOM     26  N   UNL d   1     -38.535  15.222  22.913  0.00  0.00    -0.113 N 
ATOM     27  O   UNL d   1     -39.095  15.044  23.481  0.00  0.00    -0.532 OA
ATOM     28  O   UNL d   1     -37.940  15.767  23.068  0.00  0.00    -0.532 OA
ENDBRANCH  21  26
ENDBRANCH   1  19
TORSDOF 5
ENDMDL
MODEL 3
REMARK VINA RESULT:      -5.0      1.351      3.993
REMARK  5 active torsions:
REMARK  status: ('A' for Active; 'I' for Inactive)
REMARK    1  A    between atoms: N_2  and  C_3 
REMARK       I    between atoms: C_4  and  N_5 
REMARK    2  A    between atoms: C_8  and  C_4 
REMARK    3  A    between atoms: N_5  and  C_9 
REMARK    4  A    between atoms: C_14  and  N_5 
REMARK    5  A    between atoms: C_20  and  C_14 
ROOT
ATOM      1  C   UNL d   1     -47.146  13.667  23.401  0.00  0.00     0.265 C 
ATOM      2  N   UNL d   1     -47.928  13.419  23.301  0.00  0.00    -0.273 N 
ATOM      3  O   UNL d   1     -46.991  14.424  23.698  0.00  0.00    -0.267 OA
ENDROOT
BRANCH   2   4
ATOM      4  C   UNL d   1     -48.097  12.667  23.007  0.00  0.00     0.079 A 
ATOM      5  C   UNL d   1     -48.402  12.040  23.445  0.00  0.00     0.116 A 
ATOM      6  S   UNL d   1     -48.486  11.392  22.936  0.00  0.00     0.213 S 
ATOM      7  O   UNL d   1     -48.638  10.658  22.595  0.00  0.00    -0.217 OA
ATOM      8  O   UNL d   1     -48.750  11.105  23.660  0.00  0.00    -0.217 OA
ATOM      9  C   UNL d   1     -48.231  11.627  22.182  0.00  0.00     0.100 A 
ATOM     10  C   UNL d   1     -47.990  12.415  22.225  0.00  0.00     0.030 A 
ENDBRANCH   2   4
BRANCH   2  11
ATOM     11  C   UNL d   1     -48.556  13.934  23.500  0.00  0.00     0.083 C 
BRANCH  11  12
ATOM     12  C   UNL d   1     -48.893  14.411  22.920  0.00  0.00     0.018 A 
ATOM     13  C   UNL d   1     -49.686  14.294  22.702  0.00  0.00     0.013 A 
ATOM     14  C   UNL d   1     -50.026  14.773  22.120  0.00  0.00     0.058 A 
ATOM     15 CL   UNL d   1     -50.806  14.660  21.902  0.00  0.00    -0.082 Cl
ATOM     16  C   UNL d   1     -49.576  15.363  21.758  0.00  0.00     0.011 A 
ATOM     17  C   UNL d   1     -48.786  15.476  21.979  0.00  0.00     0.001 A 
ATOM     18  C   UNL d   1     -48.446  15.003  22.556  0.00  0.00     0.002 A 
ENDBRANCH  11  12
ENDBRANCH   2  11
BRANCH   1  19
ATOM     19  C   UNL d   1     -46.534  13.162  23.206  0.00  0.00     0.058 A 
ATOM     20  C   UNL d   1     -46.050  13.336  22.559  0.00  0.00     0.029 A 
ATOM     21  C   UNL d   1     -45.438  12.832  22.364  0.00  0.00     0.137 A 
ATOM     22  C   UNL d   1     -45.305  12.155  22.812  0.00  0.00     0.080 A 
ATOM     23  C   UNL d   1     -45.788  11.981  23.458  0.00  0.00     0.013 A 
ATOM     24 CL   UNL d   1     -44.684  11.648  22.609  0.00  0.00    -0.081 Cl
ATOM     25  C   UNL d   1     -46.401  12.486  23.653  0.00  0.00     0.006 A 
BRANCH  21  26
ATOM     26  N   UNL d   1     -44.954  13.006  21.717  0.00  0.00    -0.113 N 
ATOM     27  O   UNL d   1     -44.311  13.500  21.813  0.00  0.00    -0.532 OA
ATOM     28  O   UNL d   1     -45.127  12.679  20.983  0.00  0.00    -0.532 OA
ENDBRANCH  21  26
ENDBRANCH   1  19
TORSDOF 5
ENDMDL
