MODEL 1
REMARK VINA RESULT:      -2.5      0.000      0.000
REMARK  4 active torsions:
REMARK  status: ('A' for Active; 'I' for Inactive)
REMARK    1  A    between atoms: C_12  and  N_1 
REMARK    2  A    between atoms: N_3  and  C_11 
REMARK    3  A    between atoms: C_11  and  C_15 
REMARK    4  A    between atoms: C_15  and  C_12 
ROOT
ATOM      1  N   UNL d   1     -42.420-122.884 -49.763  0.00  0.00    -0.303 N 
ATOM      2  C   UNL d   1     -43.216-123.124 -49.731  0.00  0.00     0.064 A 
ATOM      3  C   UNL d   1     -43.357-123.441 -48.983  0.00  0.00     0.018 A 
ATOM      4  C   UNL d   1     -42.655-123.400 -48.548  0.00  0.00     0.018 A 
ATOM      5  C   UNL d   1     -42.074-123.054 -49.032  0.00  0.00     0.064 A 
ATOM      6  C   UNL d   1     -41.309-122.942 -48.741  0.00  0.00     0.018 A 
ATOM      7  C   UNL d   1     -42.466-123.630 -47.778  0.00  0.00     0.002 A 
ATOM      8  C   UNL d   1     -41.123-123.172 -47.975  0.00  0.00     0.002 A 
ATOM      9  C   UNL d   1     -41.699-123.514 -47.495  0.00  0.00     0.000 A 
ATOM     10  C   UNL d   1     -43.765-123.056 -50.342  0.00  0.00     0.019 C 
ATOM     11  C   UNL d   1     -44.076-123.745 -48.718  0.00  0.00     0.002 C 
ATOM     12  C   UNL d   1     -41.512-123.744 -46.728  0.00  0.00     0.000 C 
ENDROOT
BRANCH   1  13
ATOM     13  C   UNL d   1     -42.043-122.536 -50.411  0.00  0.00     0.124 C 
BRANCH  13  14
ATOM     14  C   UNL d   1     -41.707-123.018 -50.994  0.00  0.00     0.232 C 
ATOM     15  O   UNL d   1     -41.956-123.792 -51.077  0.00  0.00    -0.283 OA
BRANCH  14  16
ATOM     16  C   UNL d   1     -41.123-122.710 -51.487  0.00  0.00     0.144 C 
BRANCH  16  17
ATOM     17  N   UNL d   1     -41.226-122.702 -52.302  0.00  0.00    -0.225 N 
ATOM     18  N   UNL d   1     -41.331-123.371 -52.779  0.00  0.00    -0.165 NA
ATOM     19  C   UNL d   1     -41.414-123.114 -53.562  0.00  0.00     0.103 A 
ATOM     20  C   UNL d   1     -41.530-123.588 -54.224  0.00  0.00     0.022 C 
ATOM     21  C   UNL d   1     -41.359-122.286 -53.568  0.00  0.00     0.040 A 
ATOM     22  C   UNL d   1     -41.243-122.034 -52.787  0.00  0.00     0.085 A 
ATOM     23  C   UNL d   1     -41.160-121.255 -52.537  0.00  0.00     0.021 C 
ENDBRANCH  16  17
ENDBRANCH  14  16
ENDBRANCH  13  14
ENDBRANCH   1  13
TORSDOF 4
ENDMDL
MODEL 2
REMARK VINA RESULT:      -2.0      0.895      4.700
REMARK  4 active torsions:
REMARK  status: ('A' for Active; 'I' for Inactive)
REMARK    1  A    between atoms: C_12  and  N_1 
REMARK    2  A    between atoms: N_3  and  C_11 
REMARK    3  A    between atoms: C_11  and  C_15 
REMARK    4  A    between atoms: C_15  and  C_12 
ROOT
ATOM      1  N   UNL d   1     -41.249-122.345 -51.773  0.00  0.00    -0.303 N 
ATOM      2  C   UNL d   1     -41.280-121.524 -51.901  0.00  0.00     0.064 A 
ATOM      3  C   UNL d   1     -41.416-121.396 -52.705  0.00  0.00     0.018 A 
ATOM      4  C   UNL d   1     -41.470-122.131 -53.078  0.00  0.00     0.018 A 
ATOM      5  C   UNL d   1     -41.367-122.720 -52.500  0.00  0.00     0.064 A 
ATOM      6  C   UNL d   1     -41.393-123.517 -52.715  0.00  0.00     0.018 A 
ATOM      7  C   UNL d   1     -41.600-122.345 -53.865  0.00  0.00     0.002 A 
ATOM      8  C   UNL d   1     -41.522-123.728 -53.498  0.00  0.00     0.002 A 
ATOM      9  C   UNL d   1     -41.625-123.144 -54.071  0.00  0.00     0.000 A 
ATOM     10  C   UNL d   1     -41.190-120.942 -51.325  0.00  0.00     0.019 C 
ATOM     11  C   UNL d   1     -41.486-120.660 -53.068  0.00  0.00     0.002 C 
ATOM     12  C   UNL d   1     -41.755-123.355 -54.856  0.00  0.00     0.000 C 
ENDROOT
BRANCH   1  13
ATOM     13  C   UNL d   1     -41.123-122.720 -51.047  0.00  0.00     0.124 C 
BRANCH  13  14
ATOM     14  C   UNL d   1     -41.717-122.704 -50.471  0.00  0.00     0.232 C 
ATOM     15  O   UNL d   1     -42.105-122.004 -50.303  0.00  0.00    -0.283 OA
BRANCH  14  16
ATOM     16  C   UNL d   1     -41.913-123.398 -50.073  0.00  0.00     0.144 C 
BRANCH  16  17
ATOM     17  N   UNL d   1     -42.253-123.369 -49.326  0.00  0.00    -0.225 N 
ATOM     18  N   UNL d   1     -41.863-123.143 -48.631  0.00  0.00    -0.165 NA
ATOM     19  C   UNL d   1     -42.407-123.193 -48.007  0.00  0.00     0.103 A 
ATOM     20  C   UNL d   1     -42.263-123.020 -47.216  0.00  0.00     0.022 C 
ATOM     21  C   UNL d   1     -43.132-123.449 -48.319  0.00  0.00     0.040 A 
ATOM     22  C   UNL d   1     -43.033-123.558 -49.135  0.00  0.00     0.085 A 
ATOM     23  C   UNL d   1     -43.611-123.809 -49.664  0.00  0.00     0.021 C 
ENDBRANCH  16  17
ENDBRANCH  14  16
ENDBRANCH  13  14
ENDBRANCH   1  13
TORSDOF 4
ENDMDL
