MODEL 1
REMARK VINA RESULT:      -6.6      0.000      0.000
REMARK  5 active torsions:
REMARK  status: ('A' for Active; 'I' for Inactive)
REMARK    1  A    between atoms: C_10  and  C_3 
REMARK    2  A    between atoms: S_9  and  C_4 
REMARK       I    between atoms: N_6  and  C_7 
REMARK    3  A    between atoms: C_8  and  N_6 
REMARK    4  A    between atoms: C_7  and  C_14 
REMARK    5  A    between atoms: C_14  and  S_9 
ROOT
ATOM      1  S   UNL d   1     -46.903  13.388  23.041  0.00  0.00    -0.036 SA
ENDROOT
BRANCH   1   2
ATOM      2  C   UNL d   1     -46.170  13.004  22.867  0.00  0.00     0.236 A 
ATOM      3  O   UNL d   1     -45.977  12.283  23.224  0.00  0.00    -0.263 OA
ATOM      4  C   UNL d   1     -45.248  12.066  22.944  0.00  0.00     0.205 A 
ATOM      5  N   UNL d   1     -44.992  12.624  22.433  0.00  0.00    -0.120 NA
ATOM      6  N   UNL d   1     -45.546  13.218  22.368  0.00  0.00    -0.114 NA
BRANCH   4   7
ATOM      7  C   UNL d   1     -44.836  11.397  23.140  0.00  0.00     0.046 A 
ATOM      8  C   UNL d   1     -45.205  10.760  23.506  0.00  0.00     0.024 A 
ATOM      9  C   UNL d   1     -44.741  10.086  23.693  0.00  0.00     0.099 A 
ATOM     10  N   UNL d   1     -43.943  10.052  23.520  0.00  0.00    -0.242 NA
ATOM     11  C   UNL d   1     -43.569  10.702  23.148  0.00  0.00     0.099 A 
ATOM     12  C   UNL d   1     -44.006  11.374  22.956  0.00  0.00     0.024 A 
ENDBRANCH   4   7
ENDBRANCH   1   2
BRANCH   1  13
ATOM     13  C   UNL d   1     -47.526  13.302  22.533  0.00  0.00     0.101 C 
BRANCH  13  14
ATOM     14  C   UNL d   1     -48.195  13.762  22.648  0.00  0.00     0.286 C 
ATOM     15  N   UNL d   1     -48.924  13.522  22.318  0.00  0.00    -0.207 NA
ATOM     16  O   UNL d   1     -48.165  14.462  23.088  0.00  0.00    -0.265 OA
BRANCH  15  17
ATOM     17  C   UNL d   1     -49.611  13.985  22.431  0.00  0.00     0.095 A 
ATOM     18  C   UNL d   1     -50.226  13.934  21.901  0.00  0.00     0.075 A 
ATOM     19 CL   UNL d   1     -50.186  13.422  21.235  0.00  0.00    -0.081 Cl
ATOM     20  C   UNL d   1     -50.909  14.400  22.022  0.00  0.00     0.013 A 
ATOM     21  C   UNL d   1     -50.966  14.896  22.653  0.00  0.00     0.001 A 
ATOM     22  C   UNL d   1     -50.352  14.958  23.198  0.00  0.00     0.002 A 
ATOM     23  C   UNL d   1     -49.657  14.491  23.084  0.00  0.00     0.020 A 
ENDBRANCH  15  17
ENDBRANCH  13  14
ENDBRANCH   1  13
TORSDOF 5
ENDMDL
MODEL 2
REMARK VINA RESULT:      -6.5      1.715      5.719
REMARK  5 active torsions:
REMARK  status: ('A' for Active; 'I' for Inactive)
REMARK    1  A    between atoms: C_10  and  C_3 
REMARK    2  A    between atoms: S_9  and  C_4 
REMARK       I    between atoms: N_6  and  C_7 
REMARK    3  A    between atoms: C_8  and  N_6 
REMARK    4  A    between atoms: C_7  and  C_14 
REMARK    5  A    between atoms: C_14  and  S_9 
ROOT
ATOM      1  S   UNL d   1     -46.848  13.078  23.340  0.00  0.00    -0.036 SA
ENDROOT
BRANCH   1   2
ATOM      2  C   UNL d   1     -47.325  13.726  23.081  0.00  0.00     0.236 A 
ATOM      3  O   UNL d   1     -48.147  13.649  23.028  0.00  0.00    -0.263 OA
ATOM      4  C   UNL d   1     -48.436  14.359  22.767  0.00  0.00     0.205 A 
ATOM      5  N   UNL d   1     -47.826  14.862  22.658  0.00  0.00    -0.120 NA
ATOM      6  N   UNL d   1     -47.124  14.493  22.847  0.00  0.00    -0.114 NA
BRANCH   4   7
ATOM      7  C   UNL d   1     -49.214  14.542  22.632  0.00  0.00     0.046 A 
ATOM      8  C   UNL d   1     -49.562  15.204  22.972  0.00  0.00     0.024 A 
ATOM      9  C   UNL d   1     -50.371  15.358  22.807  0.00  0.00     0.099 A 
ATOM     10  N   UNL d   1     -50.810  14.868  22.322  0.00  0.00    -0.242 NA
ATOM     11  C   UNL d   1     -50.454  14.194  21.977  0.00  0.00     0.099 A 
ATOM     12  C   UNL d   1     -49.661  14.025  22.126  0.00  0.00     0.024 A 
ENDBRANCH   4   7
ENDBRANCH   1   2
BRANCH   1  13
ATOM     13  C   UNL d   1     -46.350  12.717  22.815  0.00  0.00     0.101 C 
BRANCH  13  14
ATOM     14  C   UNL d   1     -45.917  12.067  23.065  0.00  0.00     0.286 C 
ATOM     15  N   UNL d   1     -45.130  11.968  22.802  0.00  0.00    -0.207 NA
ATOM     16  O   UNL d   1     -46.243  11.504  23.576  0.00  0.00    -0.265 OA
BRANCH  15  17
ATOM     17  C   UNL d   1     -44.681  11.309  23.052  0.00  0.00     0.095 A 
ATOM     18  C   UNL d   1     -43.881  11.285  22.909  0.00  0.00     0.075 A 
ATOM     19 CL   UNL d   1     -43.491  11.915  22.511  0.00  0.00    -0.081 Cl
ATOM     20  C   UNL d   1     -43.439  10.622  23.163  0.00  0.00     0.013 A 
ATOM     21  C   UNL d   1     -43.795  10.010  23.545  0.00  0.00     0.001 A 
ATOM     22  C   UNL d   1     -44.604  10.020  23.697  0.00  0.00     0.002 A 
ATOM     23  C   UNL d   1     -45.058  10.686  23.444  0.00  0.00     0.020 A 
ENDBRANCH  15  17
ENDBRANCH  13  14
ENDBRANCH   1  13
TORSDOF 5
ENDMDL
MODEL 3
REMARK VINA RESULT:      -6.2      1.842      5.782
REMARK  5 active torsions:
REMARK  status: ('A' for Active; 'I' for Inactive)
REMARK    1  A    between atoms: C_10  and  C_3 
REMARK    2  A    between atoms: S_9  and  C_4 
REMARK       I    between atoms: N_6  and  C_7 
REMARK    3  A    between atoms: C_8  and  N_6 
REMARK    4  A    between atoms: C_7  and  C_14 
REMARK    5  A    between atoms: C_14  and  S_9 
ROOT
ATOM      1  S   UNL d   1     -47.040  13.862  22.848  0.00  0.00    -0.036 SA
ENDROOT
BRANCH   1   2
ATOM      2  C   UNL d   1     -47.873  13.819  22.985  0.00  0.00     0.236 A 
ATOM      3  O   UNL d   1     -48.344  14.498  22.934  0.00  0.00    -0.263 OA
ATOM      4  C   UNL d   1     -49.105  14.271  23.093  0.00  0.00     0.205 A 
ATOM      5  N   UNL d   1     -49.116  13.486  23.236  0.00  0.00    -0.120 NA
ATOM      6  N   UNL d   1     -48.363  13.181  23.175  0.00  0.00    -0.114 NA
BRANCH   4   7
ATOM      7  C   UNL d   1     -49.757  14.752  23.106  0.00  0.00     0.046 A 
ATOM      8  C   UNL d   1     -50.408  14.602  22.628  0.00  0.00     0.024 A 
ATOM      9  C   UNL d   1     -51.063  15.125  22.672  0.00  0.00     0.099 A 
ATOM     10  N   UNL d   1     -51.064  15.769  23.175  0.00  0.00    -0.242 NA
ATOM     11  C   UNL d   1     -50.400  15.920  23.662  0.00  0.00     0.099 A 
ATOM     12  C   UNL d   1     -49.746  15.419  23.633  0.00  0.00     0.024 A 
ENDBRANCH   4   7
ENDBRANCH   1   2
BRANCH   1  13
ATOM     13  C   UNL d   1     -46.595  13.188  22.891  0.00  0.00     0.101 C 
BRANCH  13  14
ATOM     14  C   UNL d   1     -45.830  13.200  22.598  0.00  0.00     0.286 C 
ATOM     15  N   UNL d   1     -45.414  12.483  22.495  0.00  0.00    -0.207 NA
ATOM     16  O   UNL d   1     -45.457  13.912  22.399  0.00  0.00    -0.265 OA
BRANCH  15  17
ATOM     17  C   UNL d   1     -44.633  12.486  22.196  0.00  0.00     0.095 A 
ATOM     18  C   UNL d   1     -44.097  11.933  22.454  0.00  0.00     0.075 A 
ATOM     19 CL   UNL d   1     -44.312  11.349  23.021  0.00  0.00    -0.081 Cl
ATOM     20  C   UNL d   1     -43.319  11.943  22.150  0.00  0.00     0.013 A 
ATOM     21  C   UNL d   1     -43.094  12.493  21.607  0.00  0.00     0.001 A 
ATOM     22  C   UNL d   1     -43.626  13.060  21.336  0.00  0.00     0.002 A 
ATOM     23  C   UNL d   1     -44.415  13.057  21.638  0.00  0.00     0.020 A 
ENDBRANCH  15  17
ENDBRANCH  13  14
ENDBRANCH   1  13
TORSDOF 5
ENDMDL
MODEL 4
REMARK VINA RESULT:      -5.7      8.391      9.625
REMARK  5 active torsions:
REMARK  status: ('A' for Active; 'I' for Inactive)
REMARK    1  A    between atoms: C_10  and  C_3 
REMARK    2  A    between atoms: S_9  and  C_4 
REMARK       I    between atoms: N_6  and  C_7 
REMARK    3  A    between atoms: C_8  and  N_6 
REMARK    4  A    between atoms: C_7  and  C_14 
REMARK    5  A    between atoms: C_14  and  S_9 
ROOT
ATOM      1  S   UNL d   1     -40.070  14.892  19.632  0.00  0.00    -0.036 SA
ENDROOT
BRANCH   1   2
ATOM      2  C   UNL d   1     -40.064  14.517  18.875  0.00  0.00     0.236 A 
ATOM      3  O   UNL d   1     -39.438  14.639  18.348  0.00  0.00    -0.263 OA
ATOM      4  C   UNL d   1     -39.599  14.207  17.683  0.00  0.00     0.205 A 
ATOM      5  N   UNL d   1     -40.295  13.829  17.782  0.00  0.00    -0.120 NA
ATOM      6  N   UNL d   1     -40.605  14.005  18.515  0.00  0.00    -0.114 NA
BRANCH   4   7
ATOM      7  C   UNL d   1     -39.138  14.158  17.017  0.00  0.00     0.046 A 
ATOM      8  C   UNL d   1     -39.081  14.785  16.490  0.00  0.00     0.024 A 
ATOM      9  C   UNL d   1     -38.593  14.692  15.813  0.00  0.00     0.099 A 
ATOM     10  N   UNL d   1     -38.180  14.001  15.673  0.00  0.00    -0.242 NA
ATOM     11  C   UNL d   1     -38.240  13.363  16.212  0.00  0.00     0.099 A 
ATOM     12  C   UNL d   1     -38.714  13.433  16.882  0.00  0.00     0.024 A 
ENDBRANCH   4   7
ENDBRANCH   1   2
BRANCH   1  13
ATOM     13  C   UNL d   1     -40.017  14.440  20.299  0.00  0.00     0.101 C 
BRANCH  13  14
ATOM     14  C   UNL d   1     -39.795  14.799  21.003  0.00  0.00     0.286 C 
ATOM     15  N   UNL d   1     -39.324  14.380  21.551  0.00  0.00    -0.207 NA
ATOM     16  O   UNL d   1     -40.030  15.572  21.184  0.00  0.00    -0.265 OA
BRANCH  15  17
ATOM     17  C   UNL d   1     -39.093  14.738  22.270  0.00  0.00     0.095 A 
ATOM     18  C   UNL d   1     -38.813  14.280  22.880  0.00  0.00     0.075 A 
ATOM     19 CL   UNL d   1     -38.750  13.444  22.804  0.00  0.00    -0.081 Cl
ATOM     20  C   UNL d   1     -38.585  14.646  23.596  0.00  0.00     0.013 A 
ATOM     21  C   UNL d   1     -38.639  15.444  23.688  0.00  0.00     0.001 A 
ATOM     22  C   UNL d   1     -38.920  15.921  23.079  0.00  0.00     0.002 A 
ATOM     23  C   UNL d   1     -39.153  15.559  22.352  0.00  0.00     0.020 A 
ENDBRANCH  15  17
ENDBRANCH  13  14
ENDBRANCH   1  13
TORSDOF 5
ENDMDL
MODEL 5
REMARK VINA RESULT:      -5.7      1.385      1.694
REMARK  5 active torsions:
REMARK  status: ('A' for Active; 'I' for Inactive)
REMARK    1  A    between atoms: C_10  and  C_3 
REMARK    2  A    between atoms: S_9  and  C_4 
REMARK       I    between atoms: N_6  and  C_7 
REMARK    3  A    between atoms: C_8  and  N_6 
REMARK    4  A    between atoms: C_7  and  C_14 
REMARK    5  A    between atoms: C_14  and  S_9 
ROOT
ATOM      1  S   UNL d   1     -47.339  12.863  22.768  0.00  0.00    -0.036 SA
ENDROOT
BRANCH   1   2
ATOM      2  C   UNL d   1     -46.547  12.603  22.908  0.00  0.00     0.236 A 
ATOM      3  O   UNL d   1     -45.951  12.745  22.351  0.00  0.00    -0.263 OA
ATOM      4  C   UNL d   1     -45.267  12.431  22.649  0.00  0.00     0.205 A 
ATOM      5  N   UNL d   1     -45.421  12.105  23.361  0.00  0.00    -0.120 NA
ATOM      6  N   UNL d   1     -46.210  12.198  23.545  0.00  0.00    -0.114 NA
BRANCH   4   7
ATOM      7  C   UNL d   1     -44.539  12.439  22.293  0.00  0.00     0.046 A 
ATOM      8  C   UNL d   1     -44.374  12.948  21.670  0.00  0.00     0.024 A 
ATOM      9  C   UNL d   1     -43.607  12.925  21.329  0.00  0.00     0.099 A 
ATOM     10  N   UNL d   1     -43.032  12.412  21.603  0.00  0.00    -0.242 NA
ATOM     11  C   UNL d   1     -43.202  11.894  22.238  0.00  0.00     0.099 A 
ATOM     12  C   UNL d   1     -43.949  11.902  22.586  0.00  0.00     0.024 A 
ENDBRANCH   4   7
ENDBRANCH   1   2
BRANCH   1  13
ATOM     13  C   UNL d   1     -47.683  13.382  23.282  0.00  0.00     0.101 C 
BRANCH  13  14
ATOM     14  C   UNL d   1     -48.459  13.613  23.151  0.00  0.00     0.286 C 
ATOM     15  N   UNL d   1     -48.694  14.395  23.327  0.00  0.00    -0.207 NA
ATOM     16  O   UNL d   1     -49.018  13.085  22.845  0.00  0.00    -0.265 OA
BRANCH  15  17
ATOM     17  C   UNL d   1     -49.483  14.639  23.196  0.00  0.00     0.095 A 
ATOM     18  C   UNL d   1     -49.633  15.320  22.780  0.00  0.00     0.075 A 
ATOM     19 CL   UNL d   1     -49.007  15.792  22.475  0.00  0.00    -0.081 Cl
ATOM     20  C   UNL d   1     -50.425  15.557  22.653  0.00  0.00     0.013 A 
ATOM     21  C   UNL d   1     -51.038  15.119  22.937  0.00  0.00     0.001 A 
ATOM     22  C   UNL d   1     -50.902  14.426  23.360  0.00  0.00     0.002 A 
ATOM     23  C   UNL d   1     -50.104  14.180  23.493  0.00  0.00     0.020 A 
ENDBRANCH  15  17
ENDBRANCH  13  14
ENDBRANCH   1  13
TORSDOF 5
ENDMDL
MODEL 6
REMARK VINA RESULT:      -5.7      4.118      6.583
REMARK  5 active torsions:
REMARK  status: ('A' for Active; 'I' for Inactive)
REMARK    1  A    between atoms: C_10  and  C_3 
REMARK    2  A    between atoms: S_9  and  C_4 
REMARK       I    between atoms: N_6  and  C_7 
REMARK    3  A    between atoms: C_8  and  N_6 
REMARK    4  A    between atoms: C_7  and  C_14 
REMARK    5  A    between atoms: C_14  and  S_9 
ROOT
ATOM      1  S   UNL d   1     -43.309  13.061  21.121  0.00  0.00    -0.036 SA
ENDROOT
BRANCH   1   2
ATOM      2  C   UNL d   1     -43.899  12.812  21.672  0.00  0.00     0.236 A 
ATOM      3  O   UNL d   1     -44.591  13.254  21.778  0.00  0.00    -0.263 OA
ATOM      4  C   UNL d   1     -45.035  12.871  22.335  0.00  0.00     0.205 A 
ATOM      5  N   UNL d   1     -44.645  12.216  22.572  0.00  0.00    -0.120 NA
ATOM      6  N   UNL d   1     -43.936  12.156  22.175  0.00  0.00    -0.114 NA
BRANCH   4   7
ATOM      7  C   UNL d   1     -45.760  13.102  22.616  0.00  0.00     0.046 A 
ATOM      8  C   UNL d   1     -46.018  13.878  22.541  0.00  0.00     0.024 A 
ATOM      9  C   UNL d   1     -46.775  14.077  22.846  0.00  0.00     0.099 A 
ATOM     10  N   UNL d   1     -47.251  13.520  23.209  0.00  0.00    -0.242 NA
ATOM     11  C   UNL d   1     -46.985  12.730  23.284  0.00  0.00     0.099 A 
ATOM     12  C   UNL d   1     -46.245  12.514  22.992  0.00  0.00     0.024 A 
ENDBRANCH   4   7
ENDBRANCH   1   2
BRANCH   1  13
ATOM     13  C   UNL d   1     -42.588  13.303  21.395  0.00  0.00     0.101 C 
BRANCH  13  14
ATOM     14  C   UNL d   1     -42.058  13.640  20.868  0.00  0.00     0.286 C 
ATOM     15  N   UNL d   1     -41.572  14.272  21.117  0.00  0.00    -0.207 NA
ATOM     16  O   UNL d   1     -41.994  13.368  20.089  0.00  0.00    -0.265 OA
BRANCH  15  17
ATOM     17  C   UNL d   1     -41.029  14.622  20.587  0.00  0.00     0.095 A 
ATOM     18  C   UNL d   1     -40.916  15.427  20.593  0.00  0.00     0.075 A 
ATOM     19 CL   UNL d   1     -41.337  15.922  21.128  0.00  0.00    -0.081 Cl
ATOM     20  C   UNL d   1     -40.371  15.769  20.059  0.00  0.00     0.013 A 
ATOM     21  C   UNL d   1     -39.959  15.312  19.540  0.00  0.00     0.001 A 
ATOM     22  C   UNL d   1     -40.063  14.496  19.521  0.00  0.00     0.002 A 
ATOM     23  C   UNL d   1     -40.611  14.142  20.058  0.00  0.00     0.020 A 
ENDBRANCH  15  17
ENDBRANCH  13  14
ENDBRANCH   1  13
TORSDOF 5
ENDMDL
MODEL 7
REMARK VINA RESULT:      -4.7      8.714      9.867
REMARK  5 active torsions:
REMARK  status: ('A' for Active; 'I' for Inactive)
REMARK    1  A    between atoms: C_10  and  C_3 
REMARK    2  A    between atoms: S_9  and  C_4 
REMARK       I    between atoms: N_6  and  C_7 
REMARK    3  A    between atoms: C_8  and  N_6 
REMARK    4  A    between atoms: C_7  and  C_14 
REMARK    5  A    between atoms: C_14  and  S_9 
ROOT
ATOM      1  S   UNL d   1     -39.474  15.852  19.420  0.00  0.00    -0.036 SA
ENDROOT
BRANCH   1   2
ATOM      2  C   UNL d   1     -39.703  15.757  20.228  0.00  0.00     0.236 A 
ATOM      3  O   UNL d   1     -39.143  15.562  20.806  0.00  0.00    -0.263 OA
ATOM      4  C   UNL d   1     -39.537  15.513  21.512  0.00  0.00     0.205 A 
ATOM      5  N   UNL d   1     -40.310  15.670  21.388  0.00  0.00    -0.120 NA
ATOM      6  N   UNL d   1     -40.439  15.825  20.598  0.00  0.00    -0.114 NA
BRANCH   4   7
ATOM      7  C   UNL d   1     -39.212  15.336  22.233  0.00  0.00     0.046 A 
ATOM      8  C   UNL d   1     -39.053  15.922  22.785  0.00  0.00     0.024 A 
ATOM      9  C   UNL d   1     -38.716  15.695  23.521  0.00  0.00     0.099 A 
ATOM     10  N   UNL d   1     -38.547  14.914  23.692  0.00  0.00    -0.242 NA
ATOM     11  C   UNL d   1     -38.711  14.318  23.127  0.00  0.00     0.099 A 
ATOM     12  C   UNL d   1     -39.041  14.520  22.399  0.00  0.00     0.024 A 
ENDBRANCH   4   7
ENDBRANCH   1   2
BRANCH   1  13
ATOM     13  C   UNL d   1     -39.751  15.333  18.866  0.00  0.00     0.101 C 
BRANCH  13  14
ATOM     14  C   UNL d   1     -39.354  15.270  18.151  0.00  0.00     0.286 C 
ATOM     15  N   UNL d   1     -39.349  14.541  17.743  0.00  0.00    -0.207 NA
ATOM     16  O   UNL d   1     -38.955  15.916  17.822  0.00  0.00    -0.265 OA
BRANCH  15  17
ATOM     17  C   UNL d   1     -38.947  14.467  17.014  0.00  0.00     0.095 A 
ATOM     18  C   UNL d   1     -38.643  13.748  16.788  0.00  0.00     0.075 A 
ATOM     19 CL   UNL d   1     -38.726  13.068  17.277  0.00  0.00    -0.081 Cl
ATOM     20  C   UNL d   1     -38.242  13.683  16.058  0.00  0.00     0.013 A 
ATOM     21  C   UNL d   1     -38.154  14.323  15.577  0.00  0.00     0.001 A 
ATOM     22  C   UNL d   1     -38.455  15.058  15.792  0.00  0.00     0.002 A 
ATOM     23  C   UNL d   1     -38.862  15.132  16.529  0.00  0.00     0.020 A 
ENDBRANCH  15  17
ENDBRANCH  13  14
ENDBRANCH   1  13
TORSDOF 5
ENDMDL
MODEL 8
REMARK VINA RESULT:      -4.3      8.308      8.787
REMARK  5 active torsions:
REMARK  status: ('A' for Active; 'I' for Inactive)
REMARK    1  A    between atoms: C_10  and  C_3 
REMARK    2  A    between atoms: S_9  and  C_4 
REMARK       I    between atoms: N_6  and  C_7 
REMARK    3  A    between atoms: C_8  and  N_6 
REMARK    4  A    between atoms: C_7  and  C_14 
REMARK    5  A    between atoms: C_14  and  S_9 
ROOT
ATOM      1  S   UNL d   1     -40.510  15.087  20.341  0.00  0.00    -0.036 SA
ENDROOT
BRANCH   1   2
ATOM      2  C   UNL d   1     -40.081  15.098  21.069  0.00  0.00     0.236 A 
ATOM      3  O   UNL d   1     -39.676  14.426  21.331  0.00  0.00    -0.263 OA
ATOM      4  C   UNL d   1     -39.328  14.618  22.036  0.00  0.00     0.205 A 
ATOM      5  N   UNL d   1     -39.504  15.376  22.214  0.00  0.00    -0.120 NA
ATOM      6  N   UNL d   1     -39.971  15.698  21.628  0.00  0.00    -0.114 NA
BRANCH   4   7
ATOM      7  C   UNL d   1     -38.873  14.131  22.497  0.00  0.00     0.046 A 
ATOM      8  C   UNL d   1     -38.641  14.352  23.253  0.00  0.00     0.024 A 
ATOM      9  C   UNL d   1     -38.170  13.817  23.698  0.00  0.00     0.099 A 
ATOM     10  N   UNL d   1     -37.942  13.093  23.395  0.00  0.00    -0.242 NA
ATOM     11  C   UNL d   1     -38.179  12.870  22.624  0.00  0.00     0.099 A 
ATOM     12  C   UNL d   1     -38.642  13.380  22.171  0.00  0.00     0.024 A 
ENDBRANCH   4   7
ENDBRANCH   1   2
BRANCH   1  13
ATOM     13  C   UNL d   1     -40.128  14.879  19.659  0.00  0.00     0.101 C 
BRANCH  13  14
ATOM     14  C   UNL d   1     -40.407  15.173  18.946  0.00  0.00     0.286 C 
ATOM     15  N   UNL d   1     -39.970  15.042  18.246  0.00  0.00    -0.207 NA
ATOM     16  O   UNL d   1     -41.115  15.599  18.903  0.00  0.00    -0.265 OA
BRANCH  15  17
ATOM     17  C   UNL d   1     -40.247  15.338  17.514  0.00  0.00     0.095 A 
ATOM     18  C   UNL d   1     -39.718  15.613  16.962  0.00  0.00     0.075 A 
ATOM     19 CL   UNL d   1     -38.890  15.608  17.110  0.00  0.00    -0.081 Cl
ATOM     20  C   UNL d   1     -40.003  15.908  16.233  0.00  0.00     0.013 A 
ATOM     21  C   UNL d   1     -40.791  15.921  16.072  0.00  0.00     0.001 A 
ATOM     22  C   UNL d   1     -41.339  15.646  16.622  0.00  0.00     0.002 A 
ATOM     23  C   UNL d   1     -41.060  15.347  17.361  0.00  0.00     0.020 A 
ENDBRANCH  15  17
ENDBRANCH  13  14
ENDBRANCH   1  13
TORSDOF 5
ENDMDL
