MODEL 1
REMARK VINA RESULT:      90.2      0.000      0.000
REMARK  3 active torsions:
REMARK  status: ('A' for Active; 'I' for Inactive)
REMARK    1  A    between atoms: C_6  and  C_1 
REMARK    2  A    between atoms: C_2  and  C_8 
REMARK       I    between atoms: N_11  and  C_6 
REMARK    3  A    between atoms: C_12  and  N_11 
ROOT
ATOM      1  C   UNL d   1     -52.724  24.306  33.934  0.00  0.00     0.054 A 
ATOM      2  C   UNL d   1     -53.024  24.210  34.699  0.00  0.00     0.088 A 
ATOM      3  C   UNL d   1     -53.001  23.843  33.307  0.00  0.00     0.005 A 
ATOM      4  C   UNL d   1     -53.615  23.638  34.840  0.00  0.00     0.019 A 
ATOM      5  C   UNL d   1     -53.592  23.270  33.448  0.00  0.00     0.000 A 
ATOM      6  C   UNL d   1     -53.885  23.188  34.235  0.00  0.00     0.002 A 
ENDROOT
BRANCH   2   7
ATOM      7  N   UNL d   1     -52.747  24.674  35.327  0.00  0.00    -0.207 NA
ATOM      8  C   UNL d   1     -53.001  24.537  36.102  0.00  0.00     0.286 C 
ATOM      9  O   UNL d   1     -53.521  23.954  36.271  0.00  0.00    -0.265 OA
BRANCH   8  10
ATOM     10  C   UNL d   1     -52.708  25.018  36.725  0.00  0.00     0.098 A 
ATOM     11  S   UNL d   1     -52.179  25.568  36.612  0.00  0.00    -0.081 SA
ATOM     12  C   UNL d   1     -52.030  25.923  37.355  0.00  0.00     0.030 A 
ATOM     13  C   UNL d   1     -51.552  26.507  37.594  0.00  0.00     0.006 A 
ATOM     14  C   UNL d   1     -52.508  25.542  37.908  0.00  0.00     0.017 A 
ATOM     15  C   UNL d   1     -51.537  26.730  38.394  0.00  0.00     0.001 A 
ATOM     16  C   UNL d   1     -52.002  26.367  38.955  0.00  0.00     0.000 A 
ATOM     17  C   UNL d   1     -52.501  25.756  38.705  0.00  0.00     0.001 A 
ATOM     18  C   UNL d   1     -52.941  24.964  37.500  0.00  0.00     0.069 A 
ATOM     19 CL   UNL d   1     -53.490  24.440  37.794  0.00  0.00    -0.082 Cl
ENDBRANCH   8  10
ENDBRANCH   2   7
BRANCH   1  20
ATOM     20  C   UNL d   1     -52.133  24.878  33.792  0.00  0.00     0.164 A 
ATOM     21  N   UNL d   1     -52.142  25.712  33.730  0.00  0.00    -0.225 NA
ATOM     22  C   UNL d   1     -51.376  25.937  33.586  0.00  0.00     0.101 A 
ATOM     23  C   UNL d   1     -51.064  26.681  33.477  0.00  0.00     0.021 A 
ATOM     24  C   UNL d   1     -50.904  25.309  33.556  0.00  0.00     0.101 A 
ATOM     25  C   UNL d   1     -50.258  26.786  33.336  0.00  0.00     0.002 A 
ATOM     26  C   UNL d   1     -49.782  26.155  33.306  0.00  0.00     0.002 A 
ATOM     27  C   UNL d   1     -50.097  25.414  33.414  0.00  0.00     0.021 A 
ATOM     28  N   UNL d   1     -51.350  24.636  33.681  0.00  0.00    -0.225 NA
ENDBRANCH   1  20
TORSDOF 3
ENDMDL
MODEL 2
REMARK VINA RESULT:      90.3      2.199      4.882
REMARK  3 active torsions:
REMARK  status: ('A' for Active; 'I' for Inactive)
REMARK    1  A    between atoms: C_6  and  C_1 
REMARK    2  A    between atoms: C_2  and  C_8 
REMARK       I    between atoms: N_11  and  C_6 
REMARK    3  A    between atoms: C_12  and  N_11 
ROOT
ATOM      1  C   UNL d   1     -49.761  27.464  35.569  0.00  0.00     0.054 A 
ATOM      2  C   UNL d   1     -49.810  27.130  34.814  0.00  0.00     0.088 A 
ATOM      3  C   UNL d   1     -49.242  28.090  35.724  0.00  0.00     0.005 A 
ATOM      4  C   UNL d   1     -49.331  27.429  34.199  0.00  0.00     0.019 A 
ATOM      5  C   UNL d   1     -48.762  28.389  35.109  0.00  0.00     0.000 A 
ATOM      6  C   UNL d   1     -48.828  28.034  34.348  0.00  0.00     0.002 A 
ENDROOT
BRANCH   2   7
ATOM      7  N   UNL d   1     -50.329  26.503  34.659  0.00  0.00    -0.207 NA
ATOM      8  C   UNL d   1     -50.658  26.399  33.906  0.00  0.00     0.286 C 
ATOM      9  O   UNL d   1     -50.486  26.898  33.306  0.00  0.00    -0.265 OA
BRANCH   8  10
ATOM     10  C   UNL d   1     -51.182  25.758  33.769  0.00  0.00     0.098 A 
ATOM     11  S   UNL d   1     -51.948  25.844  33.744  0.00  0.00    -0.081 SA
ATOM     12  C   UNL d   1     -52.276  25.089  33.598  0.00  0.00     0.030 A 
ATOM     13  C   UNL d   1     -53.018  24.823  33.514  0.00  0.00     0.006 A 
ATOM     14  C   UNL d   1     -51.650  24.556  33.539  0.00  0.00     0.017 A 
ATOM     15  C   UNL d   1     -53.156  24.017  33.369  0.00  0.00     0.001 A 
ATOM     16  C   UNL d   1     -52.551  23.476  33.307  0.00  0.00     0.000 A 
ATOM     17  C   UNL d   1     -51.776  23.754  33.395  0.00  0.00     0.001 A 
ATOM     18  C   UNL d   1     -50.951  24.989  33.649  0.00  0.00     0.069 A 
ATOM     19 CL   UNL d   1     -50.182  24.721  33.643  0.00  0.00    -0.082 Cl
ENDBRANCH   8  10
ENDBRANCH   2   7
BRANCH   1  20
ATOM     20  C   UNL d   1     -50.240  27.166  36.183  0.00  0.00     0.164 A 
ATOM     21  N   UNL d   1     -50.899  26.653  36.202  0.00  0.00    -0.225 NA
ATOM     22  C   UNL d   1     -51.112  26.584  36.982  0.00  0.00     0.101 A 
ATOM     23  C   UNL d   1     -51.715  26.154  37.321  0.00  0.00     0.021 A 
ATOM     24  C   UNL d   1     -50.637  27.012  37.437  0.00  0.00     0.101 A 
ATOM     25  C   UNL d   1     -51.834  26.163  38.137  0.00  0.00     0.002 A 
ATOM     26  C   UNL d   1     -51.357  26.594  38.597  0.00  0.00     0.002 A 
ATOM     27  C   UNL d   1     -50.756  27.021  38.254  0.00  0.00     0.021 A 
ATOM     28  N   UNL d   1     -50.084  27.386  36.966  0.00  0.00    -0.225 NA
ENDBRANCH   1  20
TORSDOF 3
ENDMDL
