MODEL 1
REMARK VINA RESULT:      -6.7      0.000      0.000
REMARK  5 active torsions:
REMARK  status: ('A' for Active; 'I' for Inactive)
REMARK    1  A    between atoms: N_6  and  C_1 
REMARK    2  A    between atoms: C_12  and  C_2 
REMARK       I    between atoms: C_9  and  N_6 
REMARK       I    between atoms: C_11  and  N_7 
REMARK    3  A    between atoms: C_8  and  C_9 
REMARK    4  A    between atoms: O_24  and  C_11 
REMARK    5  A    between atoms: C_25  and  O_24 
ROOT
ATOM      1  C   UNL d   1     -46.395  12.430  23.168  0.00  0.00     0.119 A 
ATOM      2  C   UNL d   1     -46.431  13.174  22.812  0.00  0.00     0.084 A 
ATOM      3  C   UNL d   1     -47.647  12.872  23.261  0.00  0.00     0.049 A 
ATOM      4  C   UNL d   1     -47.216  13.442  22.875  0.00  0.00     0.016 A 
ATOM      5  S   UNL d   1     -47.155  12.241  23.449  0.00  0.00    -0.066 SA
ATOM      6  N   UNL d   1     -48.820  13.689  23.151  0.00  0.00    -0.251 N 
ATOM      7  C   UNL d   1     -49.632  13.820  23.288  0.00  0.00     0.378 C 
ATOM      8  C   UNL d   1     -48.466  12.994  23.404  0.00  0.00     0.091 A 
ATOM      9  C   UNL d   1     -47.569  14.150  22.615  0.00  0.00     0.020 A 
ATOM     10  C   UNL d   1     -48.375  14.262  22.759  0.00  0.00     0.085 A 
ATOM     11  O   UNL d   1     -50.077  13.246  23.679  0.00  0.00    -0.237 OA
ENDROOT
BRANCH   1  12
ATOM     12  N   UNL d   1     -45.724  11.955  23.235  0.00  0.00    -0.201 NA
ATOM     13  C   UNL d   1     -45.793  11.179  23.498  0.00  0.00     0.286 C 
ATOM     14  O   UNL d   1     -46.538  10.870  23.698  0.00  0.00    -0.265 OA
BRANCH  13  15
ATOM     15  C   UNL d   1     -45.122  10.703  23.565  0.00  0.00     0.088 A 
ATOM     16  S   UNL d   1     -44.325  10.960  23.559  0.00  0.00    -0.071 SA
ATOM     17  C   UNL d   1     -43.842  10.287  23.641  0.00  0.00     0.087 A 
ATOM     18 CL   UNL d   1     -43.002  10.283  23.663  0.00  0.00    -0.075 Cl
ATOM     19  C   UNL d   1     -44.335   9.627  23.698  0.00  0.00     0.019 A 
ATOM     20  C   UNL d   1     -45.120   9.893  23.650  0.00  0.00     0.013 A 
ENDBRANCH  13  15
ENDBRANCH   1  12
BRANCH   2  21
ATOM     21  C   UNL d   1     -45.805  13.575  22.460  0.00  0.00     0.299 C 
ATOM     22  O   UNL d   1     -45.347  14.086  22.904  0.00  0.00    -0.264 OA
ATOM     23  N   UNL d   1     -45.640  13.460  21.659  0.00  0.00    -0.102 N 
ENDBRANCH   2  21
BRANCH   7  24
ATOM     24  O   UNL d   1     -49.990  14.517  23.035  0.00  0.00    -0.257 OA
BRANCH  24  25
ATOM     25  C   UNL d   1     -50.689  14.777  23.386  0.00  0.00     0.128 C 
ATOM     26  C   UNL d   1     -51.003  15.514  23.203  0.00  0.00     0.029 C 
ENDBRANCH  24  25
ENDBRANCH   7  24
TORSDOF 5
ENDMDL
MODEL 2
REMARK VINA RESULT:      -5.5      8.503     10.110
REMARK  5 active torsions:
REMARK  status: ('A' for Active; 'I' for Inactive)
REMARK    1  A    between atoms: N_6  and  C_1 
REMARK    2  A    between atoms: C_12  and  C_2 
REMARK       I    between atoms: C_9  and  N_6 
REMARK       I    between atoms: C_11  and  N_7 
REMARK    3  A    between atoms: C_8  and  C_9 
REMARK    4  A    between atoms: O_24  and  C_11 
REMARK    5  A    between atoms: C_25  and  O_24 
ROOT
ATOM      1  C   UNL d   1     -38.937  14.461  18.210  0.00  0.00     0.119 A 
ATOM      2  C   UNL d   1     -39.602  14.693  18.641  0.00  0.00     0.084 A 
ATOM      3  C   UNL d   1     -38.755  14.097  19.477  0.00  0.00     0.049 A 
ATOM      4  C   UNL d   1     -39.479  14.462  19.431  0.00  0.00     0.016 A 
ATOM      5  S   UNL d   1     -38.407  14.089  18.732  0.00  0.00    -0.066 SA
ATOM      6  N   UNL d   1     -38.953  13.889  20.881  0.00  0.00    -0.251 N 
ATOM      7  C   UNL d   1     -38.692  13.601  21.619  0.00  0.00     0.378 C 
ATOM      8  C   UNL d   1     -38.482  13.803  20.216  0.00  0.00     0.091 A 
ATOM      9  C   UNL d   1     -39.962  14.552  20.103  0.00  0.00     0.020 A 
ATOM     10  C   UNL d   1     -39.687  14.261  20.826  0.00  0.00     0.085 A 
ATOM     11  O   UNL d   1     -37.957  13.230  21.675  0.00  0.00    -0.237 OA
ENDROOT
BRANCH   1  12
ATOM     12  N   UNL d   1     -38.817  14.578  17.402  0.00  0.00    -0.201 NA
ATOM     13  C   UNL d   1     -38.321  14.073  16.982  0.00  0.00     0.286 C 
ATOM     14  O   UNL d   1     -37.940  13.445  17.369  0.00  0.00    -0.265 OA
BRANCH  13  15
ATOM     15  C   UNL d   1     -38.201  14.189  16.175  0.00  0.00     0.088 A 
ATOM     16  S   UNL d   1     -38.218  13.604  15.577  0.00  0.00    -0.071 SA
ATOM     17  C   UNL d   1     -38.066  13.980  14.850  0.00  0.00     0.087 A 
ATOM     18 CL   UNL d   1     -38.031  13.604  14.098  0.00  0.00    -0.075 Cl
ATOM     19  C   UNL d   1     -37.958  14.784  14.998  0.00  0.00     0.019 A 
ATOM     20  C   UNL d   1     -38.042  14.904  15.816  0.00  0.00     0.013 A 
ENDBRANCH  13  15
ENDBRANCH   1  12
BRANCH   2  21
ATOM     21  C   UNL d   1     -40.263  15.081  18.344  0.00  0.00     0.299 C 
ATOM     22  O   UNL d   1     -40.275  15.897  18.309  0.00  0.00    -0.264 OA
ATOM     23  N   UNL d   1     -40.913  14.644  18.080  0.00  0.00    -0.102 N 
ENDBRANCH   2  21
BRANCH   7  24
ATOM     24  O   UNL d   1     -39.162  13.686  22.290  0.00  0.00    -0.257 OA
BRANCH  24  25
ATOM     25  C   UNL d   1     -38.858  13.513  23.037  0.00  0.00     0.128 C 
ATOM     26  C   UNL d   1     -39.356  13.298  23.654  0.00  0.00     0.029 C 
ENDBRANCH  24  25
ENDBRANCH   7  24
TORSDOF 5
ENDMDL
MODEL 3
REMARK VINA RESULT:      -5.0      2.390      5.487
REMARK  5 active torsions:
REMARK  status: ('A' for Active; 'I' for Inactive)
REMARK    1  A    between atoms: N_6  and  C_1 
REMARK    2  A    between atoms: C_12  and  C_2 
REMARK       I    between atoms: C_9  and  N_6 
REMARK       I    between atoms: C_11  and  N_7 
REMARK    3  A    between atoms: C_8  and  C_9 
REMARK    4  A    between atoms: O_24  and  C_11 
REMARK    5  A    between atoms: C_25  and  O_24 
ROOT
ATOM      1  C   UNL d   1     -48.007  12.854  23.051  0.00  0.00     0.119 A 
ATOM      2  C   UNL d   1     -48.065  12.071  23.308  0.00  0.00     0.084 A 
ATOM      3  C   UNL d   1     -46.775  12.356  23.144  0.00  0.00     0.049 A 
ATOM      4  C   UNL d   1     -47.292  11.769  23.363  0.00  0.00     0.016 A 
ATOM      5  S   UNL d   1     -47.200  13.032  22.949  0.00  0.00    -0.066 SA
ATOM      6  N   UNL d   1     -45.673  11.468  23.370  0.00  0.00    -0.251 N 
ATOM      7  C   UNL d   1     -44.855  11.310  23.376  0.00  0.00     0.378 C 
ATOM      8  C   UNL d   1     -45.948  12.207  23.146  0.00  0.00     0.091 A 
ATOM      9  C   UNL d   1     -47.019  11.016  23.592  0.00  0.00     0.020 A 
ATOM     10  C   UNL d   1     -46.205  10.877  23.591  0.00  0.00     0.085 A 
ATOM     11  O   UNL d   1     -44.323  11.901  23.155  0.00  0.00    -0.237 OA
ENDROOT
BRANCH   1  12
ATOM     12  N   UNL d   1     -48.636  13.370  22.919  0.00  0.00    -0.201 NA
ATOM     13  C   UNL d   1     -48.532  14.180  23.018  0.00  0.00     0.286 C 
ATOM     14  O   UNL d   1     -47.794  14.481  23.250  0.00  0.00    -0.265 OA
BRANCH  13  15
ATOM     15  C   UNL d   1     -49.162  14.697  22.885  0.00  0.00     0.088 A 
ATOM     16  S   UNL d   1     -49.688  15.001  23.460  0.00  0.00    -0.071 SA
ATOM     17  C   UNL d   1     -50.230  15.497  23.070  0.00  0.00     0.087 A 
ATOM     18 CL   UNL d   1     -50.860  15.922  23.432  0.00  0.00    -0.075 Cl
ATOM     19  C   UNL d   1     -50.040  15.498  22.267  0.00  0.00     0.019 A 
ATOM     20  C   UNL d   1     -49.382  15.003  22.163  0.00  0.00     0.013 A 
ENDBRANCH  13  15
ENDBRANCH   1  12
BRANCH   2  21
ATOM     21  C   UNL d   1     -48.760  11.667  23.478  0.00  0.00     0.299 C 
ATOM     22  O   UNL d   1     -48.780  10.851  23.430  0.00  0.00    -0.264 OA
ATOM     23  N   UNL d   1     -49.438  12.086  23.698  0.00  0.00    -0.102 N 
ENDBRANCH   2  21
BRANCH   7  24
ATOM     24  O   UNL d   1     -44.576  10.568  23.601  0.00  0.00    -0.257 OA
BRANCH  24  25
ATOM     25  C   UNL d   1     -43.807  10.337  23.411  0.00  0.00     0.128 C 
ATOM     26  C   UNL d   1     -43.581   9.549  23.460  0.00  0.00     0.029 C 
ENDBRANCH  24  25
ENDBRANCH   7  24
TORSDOF 5
ENDMDL
MODEL 4
REMARK VINA RESULT:      -4.4      1.632      2.290
REMARK  5 active torsions:
REMARK  status: ('A' for Active; 'I' for Inactive)
REMARK    1  A    between atoms: N_6  and  C_1 
REMARK    2  A    between atoms: C_12  and  C_2 
REMARK       I    between atoms: C_9  and  N_6 
REMARK       I    between atoms: C_11  and  N_7 
REMARK    3  A    between atoms: C_8  and  C_9 
REMARK    4  A    between atoms: O_24  and  C_11 
REMARK    5  A    between atoms: C_25  and  O_24 
ROOT
ATOM      1  C   UNL d   1     -46.428  12.989  22.642  0.00  0.00     0.119 A 
ATOM      2  C   UNL d   1     -47.059  12.544  22.934  0.00  0.00     0.084 A 
ATOM      3  C   UNL d   1     -47.453  13.813  22.852  0.00  0.00     0.049 A 
ATOM      4  C   UNL d   1     -47.694  13.066  23.062  0.00  0.00     0.016 A 
ATOM      5  S   UNL d   1     -46.674  13.783  22.591  0.00  0.00    -0.066 SA
ATOM      6  N   UNL d   1     -48.743  14.326  23.205  0.00  0.00    -0.251 N 
ATOM      7  C   UNL d   1     -49.279  14.961  23.281  0.00  0.00     0.378 C 
ATOM      8  C   UNL d   1     -47.985  14.459  22.924  0.00  0.00     0.091 A 
ATOM      9  C   UNL d   1     -48.463  12.925  23.349  0.00  0.00     0.020 A 
ATOM     10  C   UNL d   1     -48.980  13.565  23.416  0.00  0.00     0.085 A 
ATOM     11  O   UNL d   1     -49.042  15.722  23.070  0.00  0.00    -0.237 OA
ENDROOT
BRANCH   1  12
ATOM     12  N   UNL d   1     -45.683  12.700  22.436  0.00  0.00    -0.201 NA
ATOM     13  C   UNL d   1     -45.101  13.215  22.166  0.00  0.00     0.286 C 
ATOM     14  O   UNL d   1     -45.261  14.028  22.099  0.00  0.00    -0.265 OA
BRANCH  13  15
ATOM     15  C   UNL d   1     -44.356  12.927  21.961  0.00  0.00     0.088 A 
ATOM     16  S   UNL d   1     -43.775  13.321  21.506  0.00  0.00    -0.071 SA
ATOM     17  C   UNL d   1     -43.117  12.815  21.443  0.00  0.00     0.087 A 
ATOM     18 CL   UNL d   1     -42.402  12.985  21.034  0.00  0.00    -0.075 Cl
ATOM     19  C   UNL d   1     -43.291  12.121  21.853  0.00  0.00     0.019 A 
ATOM     20  C   UNL d   1     -44.055  12.198  22.168  0.00  0.00     0.013 A 
ENDBRANCH  13  15
ENDBRANCH   1  12
BRANCH   2  21
ATOM     21  C   UNL d   1     -47.059  11.734  23.072  0.00  0.00     0.299 C 
ATOM     22  O   UNL d   1     -47.493  11.237  22.590  0.00  0.00    -0.264 OA
ATOM     23  N   UNL d   1     -46.618  11.422  23.698  0.00  0.00    -0.102 N 
ENDBRANCH   2  21
BRANCH   7  24
ATOM     24  O   UNL d   1     -50.041  14.830  23.564  0.00  0.00    -0.257 OA
BRANCH  24  25
ATOM     25  C   UNL d   1     -50.595  15.441  23.564  0.00  0.00     0.128 C 
ATOM     26  C   UNL d   1     -51.064  15.584  22.904  0.00  0.00     0.029 C 
ENDBRANCH  24  25
ENDBRANCH   7  24
TORSDOF 5
ENDMDL
