MODEL 1
REMARK VINA RESULT:      -7.8      0.000      0.000
REMARK  3 active torsions:
REMARK  status: ('A' for Active; 'I' for Inactive)
REMARK    1  A    between atoms: C_15  and  C_3 
REMARK    2  A    between atoms: C_10  and  N_4 
REMARK    3  A    between atoms: N_6  and  C_5 
ROOT
ATOM      1  C   UNL d   1      52.494  33.705  53.405  0.00  0.00     0.070 A 
ATOM      2  C   UNL d   1      51.823  34.061  53.108  0.00  0.00     0.152 A 
ATOM      3  C   UNL d   1      52.088  32.693  53.045  0.00  0.00     0.023 A 
ATOM      4  N   UNL d   1      51.227  33.743  52.751  0.00  0.00    -0.290 N 
ATOM      5  C   UNL d   1      53.066  34.155  53.769  0.00  0.00     0.153 A 
ATOM      6  C   UNL d   1      51.490  33.049  52.786  0.00  0.00     0.082 A 
ATOM      7  N   UNL d   1      51.725  34.866  53.175  0.00  0.00    -0.206 NA
ATOM      8  N   UNL d   1      52.968  34.960  53.836  0.00  0.00    -0.206 NA
ATOM      9  C   UNL d   1      52.297  35.316  53.539  0.00  0.00     0.202 A 
ENDROOT
BRANCH   5  10
ATOM     10  N   UNL d   1      53.756  33.785  54.075  0.00  0.00    -0.285 N 
ATOM     11  C   UNL d   1      53.773  33.536  54.868  0.00  0.00     0.106 A 
ATOM     12  C   UNL d   1      54.446  33.173  55.175  0.00  0.00     0.118 A 
ATOM     13  C   UNL d   1      54.471  32.919  55.977  0.00  0.00     0.028 C 
ATOM     14  O   UNL d   1      55.123  33.051  54.679  0.00  0.00    -0.304 OA
ATOM     15  C   UNL d   1      55.106  33.300  53.885  0.00  0.00     0.118 A 
ATOM     16  C   UNL d   1      54.419  33.668  53.581  0.00  0.00     0.106 A 
ATOM     17  C   UNL d   1      55.769  33.183  53.392  0.00  0.00     0.028 C 
ENDBRANCH   5  10
BRANCH   3  18
ATOM     18  C   UNL d   1      52.338  31.926  53.063  0.00  0.00     0.002 A 
ATOM     19  C   UNL d   1      52.831  31.638  52.483  0.00  0.00     0.000 A 
ATOM     20  C   UNL d   1      53.080  30.867  52.504  0.00  0.00     0.000 A 
ATOM     21  C   UNL d   1      52.842  30.365  53.109  0.00  0.00     0.000 A 
ATOM     22  C   UNL d   1      52.342  30.659  53.695  0.00  0.00     0.000 A 
ATOM     23  C   UNL d   1      52.093  31.433  53.671  0.00  0.00     0.000 A 
ENDBRANCH   3  18
BRANCH   4  24
ATOM     24  C   UNL d   1      50.534  34.071  52.437  0.00  0.00     0.066 A 
ATOM     25  C   UNL d   1      49.916  34.335  52.932  0.00  0.00     0.020 A 
ATOM     26  C   UNL d   1      49.222  34.663  52.619  0.00  0.00     0.031 A 
ATOM     27  C   UNL d   1      49.129  34.736  51.790  0.00  0.00     0.140 A 
ATOM     28  C   UNL d   1      49.736  34.477  51.279  0.00  0.00     0.031 A 
ATOM     29  F   UNL d   1      48.436  35.064  51.477  0.00  0.00    -0.204 F 
ATOM     30  C   UNL d   1      50.438  34.145  51.604  0.00  0.00     0.020 A 
ENDBRANCH   4  24
TORSDOF 3
ENDMDL
MODEL 2
REMARK VINA RESULT:      -6.6      2.405      4.590
REMARK  3 active torsions:
REMARK  status: ('A' for Active; 'I' for Inactive)
REMARK    1  A    between atoms: C_15  and  C_3 
REMARK    2  A    between atoms: C_10  and  N_4 
REMARK    3  A    between atoms: N_6  and  C_5 
ROOT
ATOM      1  C   UNL d   1      52.867  32.131  53.659  0.00  0.00     0.070 A 
ATOM      2  C   UNL d   1      52.883  31.323  53.763  0.00  0.00     0.152 A 
ATOM      3  C   UNL d   1      53.840  32.204  54.268  0.00  0.00     0.023 A 
ATOM      4  N   UNL d   1      53.394  30.895  54.137  0.00  0.00    -0.290 N 
ATOM      5  C   UNL d   1      52.264  32.477  53.236  0.00  0.00     0.153 A 
ATOM      6  C   UNL d   1      53.823  31.465  54.342  0.00  0.00     0.082 A 
ATOM      7  N   UNL d   1      52.296  30.859  53.444  0.00  0.00    -0.206 NA
ATOM      8  N   UNL d   1      51.676  32.013  52.917  0.00  0.00    -0.206 NA
ATOM      9  C   UNL d   1      51.692  31.204  53.020  0.00  0.00     0.202 A 
ENDROOT
BRANCH   5  10
ATOM     10  N   UNL d   1      52.251  33.310  53.131  0.00  0.00    -0.285 N 
ATOM     11  C   UNL d   1      51.870  33.790  53.695  0.00  0.00     0.106 A 
ATOM     12  C   UNL d   1      51.853  34.608  53.599  0.00  0.00     0.118 A 
ATOM     13  C   UNL d   1      51.471  35.100  54.164  0.00  0.00     0.028 C 
ATOM     14  O   UNL d   1      52.225  34.962  52.924  0.00  0.00    -0.304 OA
ATOM     15  C   UNL d   1      52.606  34.482  52.361  0.00  0.00     0.118 A 
ATOM     16  C   UNL d   1      52.619  33.652  52.465  0.00  0.00     0.106 A 
ATOM     17  C   UNL d   1      52.974  34.824  51.694  0.00  0.00     0.028 C 
ENDBRANCH   5  10
BRANCH   3  18
ATOM     18  C   UNL d   1      54.331  32.797  54.510  0.00  0.00     0.002 A 
ATOM     19  C   UNL d   1      54.936  33.054  54.033  0.00  0.00     0.000 A 
ATOM     20  C   UNL d   1      55.428  33.649  54.280  0.00  0.00     0.000 A 
ATOM     21  C   UNL d   1      55.324  34.003  55.014  0.00  0.00     0.000 A 
ATOM     22  C   UNL d   1      54.708  33.740  55.497  0.00  0.00     0.000 A 
ATOM     23  C   UNL d   1      54.217  33.142  55.245  0.00  0.00     0.000 A 
ENDBRANCH   3  18
BRANCH   4  24
ATOM     24  C   UNL d   1      53.442  30.077  54.262  0.00  0.00     0.066 A 
ATOM     25  C   UNL d   1      53.746  29.565  53.677  0.00  0.00     0.020 A 
ATOM     26  C   UNL d   1      53.793  28.747  53.802  0.00  0.00     0.031 A 
ATOM     27  C   UNL d   1      53.534  28.417  54.526  0.00  0.00     0.140 A 
ATOM     28  C   UNL d   1      53.226  28.913  55.123  0.00  0.00     0.031 A 
ATOM     29  F   UNL d   1      53.581  27.599  54.651  0.00  0.00    -0.204 F 
ATOM     30  C   UNL d   1      53.181  29.743  54.990  0.00  0.00     0.020 A 
ENDBRANCH   4  24
TORSDOF 3
ENDMDL
MODEL 3
REMARK VINA RESULT:      -5.6      1.059      2.523
REMARK  3 active torsions:
REMARK  status: ('A' for Active; 'I' for Inactive)
REMARK    1  A    between atoms: C_15  and  C_3 
REMARK    2  A    between atoms: C_10  and  N_4 
REMARK    3  A    between atoms: N_6  and  C_5 
ROOT
ATOM      1  C   UNL d   1      52.288  33.541  53.210  0.00  0.00     0.070 A 
ATOM      2  C   UNL d   1      51.586  33.605  52.801  0.00  0.00     0.152 A 
ATOM      3  C   UNL d   1      52.207  34.656  53.475  0.00  0.00     0.023 A 
ATOM      4  N   UNL d   1      51.140  34.217  52.701  0.00  0.00    -0.290 N 
ATOM      5  C   UNL d   1      52.676  32.826  53.246  0.00  0.00     0.153 A 
ATOM      6  C   UNL d   1      51.570  34.678  53.093  0.00  0.00     0.082 A 
ATOM      7  N   UNL d   1      51.272  32.954  52.426  0.00  0.00    -0.206 NA
ATOM      8  N   UNL d   1      52.362  32.175  52.871  0.00  0.00    -0.206 NA
ATOM      9  C   UNL d   1      51.660  32.239  52.461  0.00  0.00     0.202 A 
ENDROOT
BRANCH   5  10
ATOM     10  N   UNL d   1      53.399  32.764  53.669  0.00  0.00    -0.285 N 
ATOM     11  C   UNL d   1      53.387  32.570  54.478  0.00  0.00     0.106 A 
ATOM     12  C   UNL d   1      54.092  32.507  54.900  0.00  0.00     0.118 A 
ATOM     13  C   UNL d   1      54.088  32.311  55.718  0.00  0.00     0.028 C 
ATOM     14  O   UNL d   1      54.832  32.642  54.508  0.00  0.00    -0.304 OA
ATOM     15  C   UNL d   1      54.844  32.836  53.699  0.00  0.00     0.118 A 
ATOM     16  C   UNL d   1      54.124  32.898  53.277  0.00  0.00     0.106 A 
ATOM     17  C   UNL d   1      55.569  32.969  53.308  0.00  0.00     0.028 C 
ENDBRANCH   5  10
BRANCH   3  18
ATOM     18  C   UNL d   1      52.647  35.188  53.893  0.00  0.00     0.002 A 
ATOM     19  C   UNL d   1      53.250  35.598  53.535  0.00  0.00     0.000 A 
ATOM     20  C   UNL d   1      53.690  36.132  53.957  0.00  0.00     0.000 A 
ATOM     21  C   UNL d   1      53.535  36.268  54.752  0.00  0.00     0.000 A 
ATOM     22  C   UNL d   1      52.922  35.850  55.114  0.00  0.00     0.000 A 
ATOM     23  C   UNL d   1      52.483  35.315  54.687  0.00  0.00     0.000 A 
ENDBRANCH   3  18
BRANCH   4  24
ATOM     24  C   UNL d   1      50.425  34.318  52.294  0.00  0.00     0.066 A 
ATOM     25  C   UNL d   1      50.394  34.299  51.461  0.00  0.00     0.020 A 
ATOM     26  C   UNL d   1      49.679  34.400  51.053  0.00  0.00     0.031 A 
ATOM     27  C   UNL d   1      48.968  34.524  51.477  0.00  0.00     0.140 A 
ATOM     28  C   UNL d   1      48.979  34.546  52.312  0.00  0.00     0.031 A 
ATOM     29  F   UNL d   1      48.253  34.624  51.070  0.00  0.00    -0.204 F 
ATOM     30  C   UNL d   1      49.708  34.443  52.719  0.00  0.00     0.020 A 
ENDBRANCH   4  24
TORSDOF 3
ENDMDL
MODEL 4
REMARK VINA RESULT:      -4.9      2.021      3.954
REMARK  3 active torsions:
REMARK  status: ('A' for Active; 'I' for Inactive)
REMARK    1  A    between atoms: C_15  and  C_3 
REMARK    2  A    between atoms: C_10  and  N_4 
REMARK    3  A    between atoms: N_6  and  C_5 
ROOT
ATOM      1  C   UNL d   1      53.108  33.082  53.948  0.00  0.00     0.070 A 
ATOM      2  C   UNL d   1      53.247  32.279  53.952  0.00  0.00     0.152 A 
ATOM      3  C   UNL d   1      52.169  32.893  53.313  0.00  0.00     0.023 A 
ATOM      4  N   UNL d   1      52.842  31.719  53.626  0.00  0.00    -0.290 N 
ATOM      5  C   UNL d   1      53.617  33.586  54.335  0.00  0.00     0.153 A 
ATOM      6  C   UNL d   1      52.326  32.167  53.337  0.00  0.00     0.082 A 
ATOM      7  N   UNL d   1      53.894  31.978  54.343  0.00  0.00    -0.206 NA
ATOM      8  N   UNL d   1      54.265  33.285  54.727  0.00  0.00    -0.206 NA
ATOM      9  C   UNL d   1      54.403  32.482  54.731  0.00  0.00     0.202 A 
ENDROOT
BRANCH   5  10
ATOM     10  N   UNL d   1      53.471  34.413  54.329  0.00  0.00    -0.285 N 
ATOM     11  C   UNL d   1      53.761  34.877  53.704  0.00  0.00     0.106 A 
ATOM     12  C   UNL d   1      53.622  35.690  53.691  0.00  0.00     0.118 A 
ATOM     13  C   UNL d   1      53.913  36.166  53.061  0.00  0.00     0.028 C 
ATOM     14  O   UNL d   1      53.181  36.053  54.317  0.00  0.00    -0.304 OA
ATOM     15  C   UNL d   1      52.891  35.588  54.943  0.00  0.00     0.118 A 
ATOM     16  C   UNL d   1      53.036  34.764  54.949  0.00  0.00     0.106 A 
ATOM     17  C   UNL d   1      52.456  35.939  55.563  0.00  0.00     0.028 C 
ENDBRANCH   5  10
BRANCH   3  18
ATOM     18  C   UNL d   1      51.590  33.347  52.982  0.00  0.00     0.002 A 
ATOM     19  C   UNL d   1      51.685  33.664  52.240  0.00  0.00     0.000 A 
ATOM     20  C   UNL d   1      51.101  34.120  51.911  0.00  0.00     0.000 A 
ATOM     21  C   UNL d   1      50.404  34.268  52.319  0.00  0.00     0.000 A 
ATOM     22  C   UNL d   1      50.309  33.945  53.073  0.00  0.00     0.000 A 
ATOM     23  C   UNL d   1      50.898  33.488  53.400  0.00  0.00     0.000 A 
ENDBRANCH   3  18
BRANCH   4  24
ATOM     24  C   UNL d   1      52.952  30.897  53.609  0.00  0.00     0.066 A 
ATOM     25  C   UNL d   1      52.840  30.430  54.291  0.00  0.00     0.020 A 
ATOM     26  C   UNL d   1      52.951  29.609  54.274  0.00  0.00     0.031 A 
ATOM     27  C   UNL d   1      53.179  29.230  53.564  0.00  0.00     0.140 A 
ATOM     28  C   UNL d   1      53.296  29.681  52.870  0.00  0.00     0.031 A 
ATOM     29  F   UNL d   1      53.289  28.409  53.547  0.00  0.00    -0.204 F 
ATOM     30  C   UNL d   1      53.182  30.514  52.895  0.00  0.00     0.020 A 
ENDBRANCH   4  24
TORSDOF 3
ENDMDL
