MODEL 1
REMARK VINA RESULT:      -3.4      0.000      0.000
REMARK  5 active torsions:
REMARK  status: ('A' for Active; 'I' for Inactive)
REMARK    1  A    between atoms: O_8  and  S_1 
REMARK    2  A    between atoms: C_9  and  S_1 
REMARK    3  A    between atoms: C_7  and  C_2 
REMARK    4  A    between atoms: C_20  and  C_7 
REMARK    5  A    between atoms: C_14  and  O_8 
ROOT
ATOM      1  C   UNL d   1      30.643  16.641 -24.400  0.00  0.00     0.139 A 
ATOM      2  C   UNL d   1      31.930  16.853 -24.129  0.00  0.00     0.064 A 
ATOM      3  C   UNL d   1      31.364  16.268 -24.254  0.00  0.00     0.220 A 
ATOM      4  C   UNL d   1      31.558  17.590 -24.197  0.00  0.00     0.105 A 
ATOM      5  O   UNL d   1      30.763  17.456 -24.364  0.00  0.00    -0.304 OA
ATOM      6  C   UNL d   1      32.001  18.286 -24.096  0.00  0.00     0.050 A 
ATOM      7  C   UNL d   1      32.745  16.813 -23.959  0.00  0.00     0.007 A 
ATOM      8  C   UNL d   1      32.805  18.244 -23.929  0.00  0.00     0.116 A 
ATOM      9  O   UNL d   1      31.497  15.455 -24.237  0.00  0.00    -0.284 OA
ATOM     10  C   UNL d   1      33.177  17.508 -23.861  0.00  0.00     0.026 A 
ENDROOT
BRANCH   8  11
ATOM     11  O   UNL d   1      33.241  18.932 -23.829  0.00  0.00    -0.227 OA
BRANCH  11  12
ATOM     12  S   UNL d   1      33.153  19.389 -23.158  0.00  0.00     0.304 S 
ATOM     13  O   UNL d   1      33.241  18.722 -22.688  0.00  0.00    -0.193 OA
ATOM     14  O   UNL d   1      33.065  20.054 -23.627  0.00  0.00    -0.193 OA
BRANCH  12  15
ATOM     15  C   UNL d   1      33.064  19.850 -22.481  0.00  0.00     0.111 A 
ATOM     16  C   UNL d   1      32.802  20.629 -22.543  0.00  0.00     0.013 A 
ATOM     17  C   UNL d   1      32.712  21.094 -21.863  0.00  0.00     0.001 A 
ATOM     18  C   UNL d   1      32.887  20.772 -21.127  0.00  0.00     0.000 A 
ATOM     19  C   UNL d   1      33.150  19.990 -21.061  0.00  0.00     0.001 A 
ATOM     20  C   UNL d   1      32.798  21.233 -20.450  0.00  0.00     0.000 C 
ATOM     21  C   UNL d   1      33.238  19.534 -21.736  0.00  0.00     0.013 A 
ENDBRANCH  12  15
ENDBRANCH  11  12
ENDBRANCH   8  11
BRANCH   1  22
ATOM     22  C   UNL d   1      29.922  16.262 -24.555  0.00  0.00     0.029 C 
BRANCH  22  23
ATOM     23  C   UNL d   1      29.261  16.453 -24.112  0.00  0.00     0.021 A 
ATOM     24  C   UNL d   1      29.097  16.033 -23.417  0.00  0.00     0.099 A 
ATOM     25  N   UNL d   1      28.433  16.219 -22.965  0.00  0.00    -0.242 NA
ATOM     26  C   UNL d   1      27.932  16.826 -23.212  0.00  0.00     0.099 A 
ATOM     27  C   UNL d   1      28.095  17.245 -23.908  0.00  0.00     0.021 A 
ATOM     28  C   UNL d   1      28.758  17.054 -24.351  0.00  0.00     0.003 A 
ENDBRANCH  22  23
ENDBRANCH   1  22
TORSDOF 5
ENDMDL
MODEL 2
REMARK VINA RESULT:      -1.7      1.247      1.785
REMARK  5 active torsions:
REMARK  status: ('A' for Active; 'I' for Inactive)
REMARK    1  A    between atoms: O_8  and  S_1 
REMARK    2  A    between atoms: C_9  and  S_1 
REMARK    3  A    between atoms: C_7  and  C_2 
REMARK    4  A    between atoms: C_20  and  C_7 
REMARK    5  A    between atoms: C_14  and  O_8 
ROOT
ATOM      1  C   UNL d   1      31.565  17.758 -24.084  0.00  0.00     0.139 A 
ATOM      2  C   UNL d   1      32.415  18.317 -23.222  0.00  0.00     0.064 A 
ATOM      3  C   UNL d   1      32.054  17.607 -23.438  0.00  0.00     0.220 A 
ATOM      4  C   UNL d   1      32.147  18.908 -23.737  0.00  0.00     0.105 A 
ATOM      5  O   UNL d   1      31.622  18.560 -24.268  0.00  0.00    -0.304 OA
ATOM      6  C   UNL d   1      32.421  19.687 -23.649  0.00  0.00     0.050 A 
ATOM      7  C   UNL d   1      32.957  18.506 -22.619  0.00  0.00     0.007 A 
ATOM      8  C   UNL d   1      32.956  19.872 -23.053  0.00  0.00     0.116 A 
ATOM      9  O   UNL d   1      32.166  16.878 -23.070  0.00  0.00    -0.284 OA
ATOM     10  C   UNL d   1      33.224  19.281 -22.538  0.00  0.00     0.026 A 
ENDROOT
BRANCH   8  11
ATOM     11  O   UNL d   1      33.227  20.641 -22.966  0.00  0.00    -0.227 OA
BRANCH  11  12
ATOM     12  S   UNL d   1      32.944  21.118 -22.366  0.00  0.00     0.304 S 
ATOM     13  O   UNL d   1      33.136  20.543 -21.813  0.00  0.00    -0.193 OA
ATOM     14  O   UNL d   1      32.752  21.692 -22.918  0.00  0.00    -0.193 OA
BRANCH  12  15
ATOM     15  C   UNL d   1      32.659  21.600 -21.762  0.00  0.00     0.111 A 
ATOM     16  C   UNL d   1      32.419  22.371 -21.925  0.00  0.00     0.013 A 
ATOM     17  C   UNL d   1      32.132  22.856 -21.318  0.00  0.00     0.001 A 
ATOM     18  C   UNL d   1      32.088  22.561 -20.551  0.00  0.00     0.000 A 
ATOM     19  C   UNL d   1      32.328  21.788 -20.383  0.00  0.00     0.001 A 
ATOM     20  C   UNL d   1      31.803  23.042 -19.946  0.00  0.00     0.000 C 
ATOM     21  C   UNL d   1      32.611  21.311 -20.987  0.00  0.00     0.013 A 
ENDBRANCH  12  15
ENDBRANCH  11  12
ENDBRANCH   8  11
BRANCH   1  22
ATOM     22  C   UNL d   1      31.097  17.201 -24.480  0.00  0.00     0.029 C 
BRANCH  22  23
ATOM     23  C   UNL d   1      30.282  17.275 -24.470  0.00  0.00     0.021 A 
ATOM     24  C   UNL d   1      29.846  16.930 -23.856  0.00  0.00     0.099 A 
ATOM     25  N   UNL d   1      29.024  17.001 -23.839  0.00  0.00    -0.242 NA
ATOM     26  C   UNL d   1      28.641  17.417 -24.438  0.00  0.00     0.099 A 
ATOM     27  C   UNL d   1      29.077  17.761 -25.052  0.00  0.00     0.021 A 
ATOM     28  C   UNL d   1      29.893  17.687 -25.062  0.00  0.00     0.003 A 
ENDBRANCH  22  23
ENDBRANCH   1  22
TORSDOF 5
ENDMDL
MODEL 3
REMARK VINA RESULT:      -1.6      2.090      5.516
REMARK  5 active torsions:
REMARK  status: ('A' for Active; 'I' for Inactive)
REMARK    1  A    between atoms: O_8  and  S_1 
REMARK    2  A    between atoms: C_9  and  S_1 
REMARK    3  A    between atoms: C_7  and  C_2 
REMARK    4  A    between atoms: C_20  and  C_7 
REMARK    5  A    between atoms: C_14  and  O_8 
ROOT
ATOM      1  C   UNL d   1      32.304  21.605 -21.619  0.00  0.00     0.139 A 
ATOM      2  C   UNL d   1      32.796  20.968 -22.681  0.00  0.00     0.064 A 
ATOM      3  C   UNL d   1      32.613  21.712 -22.376  0.00  0.00     0.220 A 
ATOM      4  C   UNL d   1      32.598  20.400 -22.111  0.00  0.00     0.105 A 
ATOM      5  O   UNL d   1      32.295  20.797 -21.456  0.00  0.00    -0.304 OA
ATOM      6  C   UNL d   1      32.724  19.594 -22.271  0.00  0.00     0.050 A 
ATOM      7  C   UNL d   1      33.119  20.729 -23.411  0.00  0.00     0.007 A 
ATOM      8  C   UNL d   1      33.043  19.361 -22.992  0.00  0.00     0.116 A 
ATOM      9  O   UNL d   1      32.722  22.431 -22.761  0.00  0.00    -0.284 OA
ATOM     10  C   UNL d   1      33.240  19.928 -23.562  0.00  0.00     0.026 A 
ENDROOT
BRANCH   8  11
ATOM     11  O   UNL d   1      33.167  18.565 -23.149  0.00  0.00    -0.227 OA
BRANCH  11  12
ATOM     12  S   UNL d   1      32.597  18.121 -23.529  0.00  0.00     0.304 S 
ATOM     13  O   UNL d   1      32.149  18.100 -22.843  0.00  0.00    -0.193 OA
ATOM     14  O   UNL d   1      33.044  18.141 -24.215  0.00  0.00    -0.193 OA
BRANCH  12  15
ATOM     15  C   UNL d   1      32.022  17.673 -23.914  0.00  0.00     0.111 A 
ATOM     16  C   UNL d   1      31.713  17.000 -23.553  0.00  0.00     0.013 A 
ATOM     17  C   UNL d   1      31.135  16.548 -23.939  0.00  0.00     0.001 A 
ATOM     18  C   UNL d   1      30.873  16.778 -24.684  0.00  0.00     0.000 A 
ATOM     19  C   UNL d   1      31.181  17.453 -25.049  0.00  0.00     0.001 A 
ATOM     20  C   UNL d   1      30.299  16.330 -25.068  0.00  0.00     0.000 C 
ATOM     21  C   UNL d   1      31.753  17.897 -24.664  0.00  0.00     0.013 A 
ENDBRANCH  12  15
ENDBRANCH  11  12
ENDBRANCH   8  11
BRANCH   1  22
ATOM     22  C   UNL d   1      32.047  22.206 -21.110  0.00  0.00     0.029 C 
BRANCH  22  23
ATOM     23  C   UNL d   1      32.443  22.339 -20.406  0.00  0.00     0.021 A 
ATOM     24  C   UNL d   1      32.623  21.702 -19.909  0.00  0.00     0.099 A 
ATOM     25  N   UNL d   1      33.022  21.829 -19.199  0.00  0.00    -0.242 NA
ATOM     26  C   UNL d   1      33.241  22.595 -18.988  0.00  0.00     0.099 A 
ATOM     27  C   UNL d   1      33.061  23.232 -19.485  0.00  0.00     0.021 A 
ATOM     28  C   UNL d   1      32.664  23.098 -20.190  0.00  0.00     0.003 A 
ENDBRANCH  22  23
ENDBRANCH   1  22
TORSDOF 5
ENDMDL
