MODEL 1
REMARK VINA RESULT:      53.1      0.000      0.000
REMARK  4 active torsions:
REMARK  status: ('A' for Active; 'I' for Inactive)
REMARK    1  A    between atoms: C_10  and  C_3 
REMARK    2  A    between atoms: N_11  and  C_4 
REMARK    3  A    between atoms: C_14  and  N_11 
REMARK    4  A    between atoms: C_15  and  C_14 
ROOT
ATOM      1  C   UNL d   1     -51.098  25.277  33.325  0.00  0.00     0.150 A 
ATOM      2  N   UNL d   1     -51.356  24.490  33.320  0.00  0.00    -0.275 N 
ATOM      3  C   UNL d   1     -51.641  25.884  33.322  0.00  0.00     0.056 A 
ATOM      4  C   UNL d   1     -52.155  24.331  33.311  0.00  0.00     0.149 A 
ATOM      5  N   UNL d   1     -50.308  25.454  33.334  0.00  0.00    -0.227 NA
ATOM      6  C   UNL d   1     -52.449  25.712  33.313  0.00  0.00     0.007 A 
ATOM      7  C   UNL d   1     -52.701  24.942  33.308  0.00  0.00     0.038 A 
ATOM      8  C   UNL d   1     -50.009  24.056  33.332  0.00  0.00     0.084 A 
ATOM      9  C   UNL d   1     -49.755  24.841  33.337  0.00  0.00     0.099 A 
ATOM     10  C   UNL d   1     -52.991  26.322  33.310  0.00  0.00     0.000 C 
ATOM     11  C   UNL d   1     -49.461  23.452  33.335  0.00  0.00     0.019 A 
ATOM     12  C   UNL d   1     -48.952  24.997  33.346  0.00  0.00     0.021 A 
ATOM     13  C   UNL d   1     -48.665  23.611  33.344  0.00  0.00     0.002 A 
ATOM     14  C   UNL d   1     -48.404  24.394  33.349  0.00  0.00     0.002 A 
ENDROOT
BRANCH   4  15
ATOM     15  N   UNL d   1     -52.409  23.519  33.306  0.00  0.00    -0.225 NA
BRANCH  15  16
ATOM     16  C   UNL d   1     -53.230  23.322  33.444  0.00  0.00     0.120 C 
BRANCH  16  17
ATOM     17  C   UNL d   1     -53.536  23.290  34.238  0.00  0.00     0.101 A 
ATOM     18  N   UNL d   1     -52.989  23.303  34.904  0.00  0.00    -0.242 NA
ATOM     19  C   UNL d   1     -53.296  23.271  35.698  0.00  0.00     0.099 A 
ATOM     20  C   UNL d   1     -54.142  23.226  35.832  0.00  0.00     0.021 A 
ATOM     21  C   UNL d   1     -54.693  23.214  35.157  0.00  0.00     0.003 A 
ATOM     22  C   UNL d   1     -54.376  23.246  34.367  0.00  0.00     0.021 A 
ENDBRANCH  16  17
ENDBRANCH  15  16
ENDBRANCH   4  15
BRANCH   3  23
ATOM     23  C   UNL d   1     -51.392  26.654  33.327  0.00  0.00     0.125 C 
ATOM     24  N   UNL d   1     -51.866  27.203  33.729  0.00  0.00    -0.146 N 
ENDBRANCH   3  23
TORSDOF 4
ENDMDL
MODEL 2
REMARK VINA RESULT:      54.2      2.087      4.356
REMARK  4 active torsions:
REMARK  status: ('A' for Active; 'I' for Inactive)
REMARK    1  A    between atoms: C_10  and  C_3 
REMARK    2  A    between atoms: N_11  and  C_4 
REMARK    3  A    between atoms: C_14  and  N_11 
REMARK    4  A    between atoms: C_15  and  C_14 
ROOT
ATOM      1  C   UNL d   1     -51.537  25.924  33.321  0.00  0.00     0.150 A 
ATOM      2  N   UNL d   1     -50.751  26.187  33.334  0.00  0.00    -0.275 N 
ATOM      3  C   UNL d   1     -52.147  26.464  33.318  0.00  0.00     0.056 A 
ATOM      4  C   UNL d   1     -50.598  26.987  33.343  0.00  0.00     0.149 A 
ATOM      5  N   UNL d   1     -51.709  25.133  33.312  0.00  0.00    -0.227 NA
ATOM      6  C   UNL d   1     -51.980  27.272  33.328  0.00  0.00     0.007 A 
ATOM      7  C   UNL d   1     -51.212  27.529  33.340  0.00  0.00     0.038 A 
ATOM      8  C   UNL d   1     -50.309  24.843  33.328  0.00  0.00     0.084 A 
ATOM      9  C   UNL d   1     -51.093  24.584  33.315  0.00  0.00     0.099 A 
ATOM     10  C   UNL d   1     -52.594  27.811  33.325  0.00  0.00     0.000 C 
ATOM     11  C   UNL d   1     -49.701  24.298  33.331  0.00  0.00     0.019 A 
ATOM     12  C   UNL d   1     -51.244  23.780  33.306  0.00  0.00     0.021 A 
ATOM     13  C   UNL d   1     -49.856  23.501  33.321  0.00  0.00     0.002 A 
ATOM     14  C   UNL d   1     -50.637  23.235  33.309  0.00  0.00     0.002 A 
ENDROOT
BRANCH   4  15
ATOM     15  N   UNL d   1     -49.787  27.246  33.356  0.00  0.00    -0.225 NA
BRANCH  15  16
ATOM     16  C   UNL d   1     -49.601  28.078  33.425  0.00  0.00     0.120 C 
BRANCH  16  17
ATOM     17  C   UNL d   1     -49.090  28.354  34.047  0.00  0.00     0.101 A 
ATOM     18  N   UNL d   1     -48.706  27.783  34.566  0.00  0.00    -0.242 NA
ATOM     19  C   UNL d   1     -48.195  28.059  35.188  0.00  0.00     0.099 A 
ATOM     20  C   UNL d   1     -48.063  28.900  35.296  0.00  0.00     0.021 A 
ATOM     21  C   UNL d   1     -48.451  29.476  34.770  0.00  0.00     0.003 A 
ATOM     22  C   UNL d   1     -48.961  29.189  34.151  0.00  0.00     0.021 A 
ENDBRANCH  16  17
ENDBRANCH  15  16
ENDBRANCH   4  15
BRANCH   3  23
ATOM     23  C   UNL d   1     -52.916  26.209  33.306  0.00  0.00     0.125 C 
ATOM     24  N   UNL d   1     -53.503  26.770  33.475  0.00  0.00    -0.146 N 
ENDBRANCH   3  23
TORSDOF 4
ENDMDL
