MODEL 1
REMARK VINA RESULT:      43.4      0.000      0.000
REMARK  9 active torsions:
REMARK  status: ('A' for Active; 'I' for Inactive)
REMARK    1  A    between atoms: C_11  and  C_3 
REMARK    2  A    between atoms: C_12  and  N_6 
REMARK    3  A    between atoms: C_15  and  C_7 
REMARK    4  A    between atoms: O_24  and  C_11 
REMARK    5  A    between atoms: C_23  and  C_12 
REMARK    6  A    between atoms: O_26  and  C_14 
REMARK    7  A    between atoms: O_28  and  C_17 
REMARK    8  A    between atoms: C_22  and  C_23 
REMARK    9  A    between atoms: C_32  and  O_24 
ROOT
ATOM      1  C   UNL d   1      45.420 -14.523  44.382  0.00  0.00     0.080 A 
ATOM      2  C   UNL d   1      45.001 -15.235  44.460  0.00  0.00     0.267 A 
ATOM      3  C   UNL d   1      45.410 -13.124  44.120  0.00  0.00     0.107 A 
ATOM      4  C   UNL d   1      46.234 -14.501  44.484  0.00  0.00     0.108 A 
ATOM      5  C   UNL d   1      46.224 -13.102  44.222  0.00  0.00     0.208 A 
ATOM      6  N   UNL d   1      45.413 -15.928  44.643  0.00  0.00    -0.273 N 
ATOM      7  C   UNL d   1      45.002 -13.841  44.200  0.00  0.00     0.017 A 
ATOM      8  O   UNL d   1      46.641 -13.793  44.405  0.00  0.00    -0.288 OA
ATOM      9  C   UNL d   1      46.644 -15.203  44.668  0.00  0.00     0.043 A 
ATOM     10  C   UNL d   1      46.226 -15.914  44.746  0.00  0.00     0.069 A 
ATOM     11  O   UNL d   1      44.183 -15.255  44.357  0.00  0.00    -0.267 OA
ATOM     12  N   UNL d   1      46.633 -12.391  44.142  0.00  0.00    -0.121 N 
ATOM     13  C   UNL d   1      46.637 -16.608  44.929  0.00  0.00     0.019 C 
ENDROOT
BRANCH   6  14
ATOM     14  C   UNL d   1      44.993 -16.639  44.721  0.00  0.00     0.083 C 
BRANCH  14  15
ATOM     15  C   UNL d   1      45.399 -17.323  44.943  0.00  0.00     0.019 C 
BRANCH  15  16
ATOM     16  C   UNL d   1      45.609 -17.862  44.349  0.00  0.00     0.004 A 
ATOM     17  C   UNL d   1      45.857 -18.607  44.551  0.00  0.00     0.026 A 
ATOM     18  C   UNL d   1      46.065 -19.140  43.964  0.00  0.00     0.116 A 
ATOM     19  C   UNL d   1      46.023 -18.916  43.162  0.00  0.00     0.116 A 
ATOM     20  C   UNL d   1      45.771 -18.158  42.969  0.00  0.00     0.026 A 
ATOM     21  C   UNL d   1      45.563 -17.628  43.559  0.00  0.00     0.002 A 
BRANCH  18  22
ATOM     22  O   UNL d   1      46.319 -19.904  44.158  0.00  0.00    -0.326 OA
ATOM     23  C   UNL d   1      45.931 -20.318  44.748  0.00  0.00     0.181 C 
ENDBRANCH  18  22
BRANCH  19  24
ATOM     24  O   UNL d   1      46.231 -19.446  42.567  0.00  0.00    -0.326 OA
ATOM     25  C   UNL d   1      46.526 -19.170  41.853  0.00  0.00     0.181 C 
ENDBRANCH  19  24
ENDBRANCH  15  16
ENDBRANCH  14  15
ENDBRANCH   6  14
BRANCH   7  26
ATOM     26  C   UNL d   1      44.184 -13.861  44.098  0.00  0.00     0.020 A 
ATOM     27  C   UNL d   1      43.855 -13.626  43.388  0.00  0.00     0.099 A 
ATOM     28  N   UNL d   1      43.046 -13.644  43.282  0.00  0.00    -0.242 NA
ATOM     29  C   UNL d   1      42.553 -13.904  43.901  0.00  0.00     0.099 A 
ATOM     30  C   UNL d   1      42.891 -14.142  44.619  0.00  0.00     0.021 A 
ATOM     31  C   UNL d   1      43.706 -14.121  44.719  0.00  0.00     0.003 A 
ENDBRANCH   7  26
BRANCH   3  32
ATOM     32  C   UNL d   1      44.993 -12.433  43.937  0.00  0.00     0.304 C 
ATOM     33  O   UNL d   1      44.486 -12.097  44.488  0.00  0.00    -0.259 OA
BRANCH  32  34
ATOM     34  O   UNL d   1      45.090 -12.086  43.199  0.00  0.00    -0.271 OA
BRANCH  34  35
ATOM     35  C   UNL d   1      44.483 -12.080  42.637  0.00  0.00     0.126 C 
ATOM     36  C   UNL d   1      44.662 -12.212  41.847  0.00  0.00     0.029 C 
ENDBRANCH  34  35
ENDBRANCH  32  34
ENDBRANCH   3  32
TORSDOF 9
ENDMDL
