MODEL 1
REMARK VINA RESULT:      60.6      0.000      0.000
REMARK  6 active torsions:
REMARK  status: ('A' for Active; 'I' for Inactive)
REMARK    1  A    between atoms: S_12  and  C_5 
REMARK    2  A    between atoms: C_14  and  C_6 
REMARK    3  A    between atoms: C_10  and  C_13 
REMARK    4  A    between atoms: C_21  and  S_12 
REMARK    5  A    between atoms: C_15  and  C_21 
REMARK       I    between atoms: N_16  and  C_15 
REMARK    6  A    between atoms: C_18  and  N_16 
ROOT
ATOM      1  C   UNL d   1      45.830 -18.550  42.266  0.00  0.00     0.186 A 
ATOM      2  C   UNL d   1      46.142 -17.930  42.724  0.00  0.00     0.065 A 
ATOM      3  N   UNL d   1      45.620 -18.420  41.481  0.00  0.00    -0.203 NA
ATOM      4  N   UNL d   1      46.032 -17.052  41.612  0.00  0.00    -0.220 NA
ATOM      5  C   UNL d   1      46.238 -17.191  42.390  0.00  0.00     0.116 A 
ATOM      6  C   UNL d   1      45.720 -17.666  41.147  0.00  0.00     0.165 A 
ATOM      7  O   UNL d   1      45.729 -19.297  42.593  0.00  0.00    -0.289 OA
ATOM      8  C   UNL d   1      46.351 -18.065  43.511  0.00  0.00     0.007 A 
ATOM      9  C   UNL d   1      45.939 -19.438  43.386  0.00  0.00     0.102 A 
ATOM     10  C   UNL d   1      46.249 -18.821  43.841  0.00  0.00     0.023 A 
ATOM     11  C   UNL d   1      45.839 -20.178  43.709  0.00  0.00     0.025 A 
ATOM     12  C   UNL d   1      46.456 -18.957  44.622  0.00  0.00     0.002 A 
ATOM     13  C   UNL d   1      46.044 -20.325  44.492  0.00  0.00     0.002 A 
ATOM     14  C   UNL d   1      46.354 -19.711  44.951  0.00  0.00     0.000 A 
ENDROOT
BRANCH   5  15
ATOM     15  S   UNL d   1      46.550 -16.570  42.848  0.00  0.00    -0.062 SA
BRANCH  15  16
ATOM     16  C   UNL d   1      46.190 -16.361  43.556  0.00  0.00     0.099 C 
BRANCH  16  17
ATOM     17  C   UNL d   1      45.897 -15.601  43.656  0.00  0.00     0.286 C 
ATOM     18  N   UNL d   1      46.364 -15.018  44.014  0.00  0.00    -0.208 NA
ATOM     19  O   UNL d   1      45.138 -15.407  43.404  0.00  0.00    -0.265 OA
BRANCH  18  20
ATOM     20  C   UNL d   1      46.071 -14.258  44.115  0.00  0.00     0.085 A 
ATOM     21  C   UNL d   1      45.721 -13.877  43.483  0.00  0.00     0.025 A 
ATOM     22  C   UNL d   1      45.427 -13.121  43.577  0.00  0.00     0.066 A 
ATOM     23  C   UNL d   1      45.484 -12.739  44.313  0.00  0.00     0.006 A 
ATOM     24  C   UNL d   1      45.837 -13.128  44.943  0.00  0.00     0.002 A 
ATOM     25  C   UNL d   1      46.134 -13.893  44.850  0.00  0.00     0.019 A 
BRANCH  22  26
ATOM     26  C   UNL d   1      45.071 -12.725  42.943  0.00  0.00     0.211 C 
ATOM     27  O   UNL d   1      44.264 -12.567  42.972  0.00  0.00    -0.644 OA
ATOM     28  O   UNL d   1      45.515 -12.493  42.291  0.00  0.00    -0.644 OA
ENDBRANCH  22  26
ENDBRANCH  18  20
ENDBRANCH  16  17
ENDBRANCH  15  16
ENDBRANCH   5  15
BRANCH   6  29
ATOM     29  C   UNL d   1      45.509 -17.535  40.359  0.00  0.00     0.036 A 
ATOM     30  C   UNL d   1      44.747 -17.718  40.106  0.00  0.00     0.005 A 
ATOM     31  C   UNL d   1      44.531 -17.588  39.318  0.00  0.00     0.030 A 
ATOM     32  C   UNL d   1      45.079 -17.274  38.784  0.00  0.00     0.140 A 
ATOM     33  C   UNL d   1      45.853 -17.089  39.042  0.00  0.00     0.030 A 
ATOM     34  F   UNL d   1      44.868 -17.144  38.001  0.00  0.00    -0.204 F 
ATOM     35  C   UNL d   1      46.058 -17.223  39.831  0.00  0.00     0.005 A 
ENDBRANCH   6  29
TORSDOF 6
ENDMDL
