MODEL 1
REMARK VINA RESULT:      -3.8      0.000      0.000
REMARK  5 active torsions:
REMARK  status: ('A' for Active; 'I' for Inactive)
REMARK    1  A    between atoms: C_6  and  C_1 
REMARK    2  A    between atoms: C_7  and  C_2 
REMARK    3  A    between atoms: O_12  and  C_6 
REMARK    4  A    between atoms: O_14  and  C_11 
REMARK    5  A    between atoms: C_17  and  O_12 
ROOT
ATOM      1  C   UNL d   1      58.248  -0.422  30.317  0.00  0.00     0.088 A 
ATOM      2  C   UNL d   1      58.816   0.176  30.296  0.00  0.00     0.105 A 
ATOM      3  C   UNL d   1      57.748  -0.296  30.956  0.00  0.00     0.032 A 
ATOM      4  O   UNL d   1      58.659   0.680  30.939  0.00  0.00    -0.307 OA
ATOM      5  C   UNL d   1      58.002   0.386  31.341  0.00  0.00     0.100 A 
ATOM      6  C   UNL d   1      57.101  -0.708  31.235  0.00  0.00     0.026 A 
ATOM      7  C   UNL d   1      57.598   0.652  32.015  0.00  0.00     0.027 A 
ATOM      8  C   UNL d   1      56.697  -0.442  31.908  0.00  0.00     0.094 A 
ATOM      9  C   UNL d   1      56.951   0.240  32.293  0.00  0.00     0.026 A 
ENDROOT
BRANCH   2  10
ATOM     10  C   UNL d   1      59.426   0.272  29.753  0.00  0.00     0.023 A 
ATOM     11  C   UNL d   1      60.211   0.057  29.955  0.00  0.00     0.002 A 
ATOM     12  C   UNL d   1      60.822   0.159  29.394  0.00  0.00     0.000 A 
ATOM     13  C   UNL d   1      60.643   0.476  28.637  0.00  0.00     0.000 A 
ATOM     14  C   UNL d   1      59.872   0.682  28.455  0.00  0.00     0.000 A 
ATOM     15  C   UNL d   1      59.271   0.581  29.007  0.00  0.00     0.002 A 
ENDBRANCH   2  10
BRANCH   1  16
ATOM     16  C   UNL d   1      58.499  -0.848  29.650  0.00  0.00     0.302 C 
ATOM     17  O   UNL d   1      58.409  -0.529  28.899  0.00  0.00    -0.259 OA
BRANCH  16  18
ATOM     18  O   UNL d   1      58.843  -1.597  29.732  0.00  0.00    -0.271 OA
BRANCH  18  19
ATOM     19  C   UNL d   1      58.506  -2.266  29.366  0.00  0.00     0.126 C 
ATOM     20  C   UNL d   1      58.981  -2.925  29.186  0.00  0.00     0.029 C 
ENDBRANCH  18  19
ENDBRANCH  16  18
ENDBRANCH   1  16
BRANCH   8  21
ATOM     21  O   UNL d   1      56.040  -0.867  32.186  0.00  0.00    -0.328 OA
ATOM     22  C   UNL d   1      56.048  -1.196  32.961  0.00  0.00     0.181 C 
ENDBRANCH   8  21
TORSDOF 5
ENDMDL
MODEL 2
REMARK VINA RESULT:      -2.2      1.261      2.297
REMARK  5 active torsions:
REMARK  status: ('A' for Active; 'I' for Inactive)
REMARK    1  A    between atoms: C_6  and  C_1 
REMARK    2  A    between atoms: C_7  and  C_2 
REMARK    3  A    between atoms: O_12  and  C_6 
REMARK    4  A    between atoms: O_14  and  C_11 
REMARK    5  A    between atoms: C_17  and  O_12 
ROOT
ATOM      1  C   UNL d   1      57.903  -0.149  31.233  0.00  0.00     0.088 A 
ATOM      2  C   UNL d   1      57.704  -0.754  30.708  0.00  0.00     0.105 A 
ATOM      3  C   UNL d   1      57.367  -0.146  31.855  0.00  0.00     0.032 A 
ATOM      4  O   UNL d   1      57.030  -1.130  31.018  0.00  0.00    -0.307 OA
ATOM      5  C   UNL d   1      56.827  -0.753  31.722  0.00  0.00     0.100 A 
ATOM      6  C   UNL d   1      57.300   0.325  32.519  0.00  0.00     0.026 A 
ATOM      7  C   UNL d   1      56.214  -0.884  32.265  0.00  0.00     0.027 A 
ATOM      8  C   UNL d   1      56.688   0.193  33.062  0.00  0.00     0.094 A 
ATOM      9  C   UNL d   1      56.148  -0.414  32.929  0.00  0.00     0.026 A 
ENDROOT
BRANCH   2  10
ATOM     10  C   UNL d   1      58.087  -0.960  30.010  0.00  0.00     0.023 A 
ATOM     11  C   UNL d   1      58.087  -0.436  29.355  0.00  0.00     0.002 A 
ATOM     12  C   UNL d   1      58.479  -0.658  28.651  0.00  0.00     0.000 A 
ATOM     13  C   UNL d   1      58.868  -1.401  28.608  0.00  0.00     0.000 A 
ATOM     14  C   UNL d   1      58.859  -1.901  29.255  0.00  0.00     0.000 A 
ATOM     15  C   UNL d   1      58.473  -1.683  29.947  0.00  0.00     0.002 A 
ENDBRANCH   2  10
BRANCH   1  16
ATOM     16  C   UNL d   1      58.567   0.144  30.831  0.00  0.00     0.302 C 
ATOM     17  O   UNL d   1      58.476   0.550  30.124  0.00  0.00    -0.259 OA
BRANCH  16  18
ATOM     18  O   UNL d   1      59.330   0.032  31.136  0.00  0.00    -0.271 OA
BRANCH  18  19
ATOM     19  C   UNL d   1      59.798   0.682  31.369  0.00  0.00     0.126 C 
ATOM     20  C   UNL d   1      60.618   0.675  31.225  0.00  0.00     0.029 C 
ENDBRANCH  18  19
ENDBRANCH  16  18
ENDBRANCH   1  16
BRANCH   8  21
ATOM     21  O   UNL d   1      56.627   0.676  33.735  0.00  0.00    -0.328 OA
ATOM     22  C   UNL d   1      57.215   0.638  34.336  0.00  0.00     0.181 C 
ENDBRANCH   8  21
TORSDOF 5
ENDMDL
