MODEL 1
REMARK VINA RESULT:      -6.7      0.000      0.000
REMARK  4 active torsions:
REMARK  status: ('A' for Active; 'I' for Inactive)
REMARK    1  A    between atoms: S_2  and  C_1 
REMARK    2  A    between atoms: C_8  and  S_2 
REMARK    3  A    between atoms: N_7  and  C_4 
REMARK    4  A    between atoms: C_11  and  N_7 
ROOT
ATOM      1  C   UNL d   1     -41.713-122.723 -51.070  0.00  0.00     0.187 A 
ATOM      2  N   UNL d   1     -41.635-123.176 -51.724  0.00  0.00    -0.208 NA
ATOM      3  C   UNL d   1     -41.345-122.696 -52.328  0.00  0.00     0.196 A 
ATOM      4  C   UNL d   1     -41.499-121.950 -51.165  0.00  0.00     0.118 A 
ATOM      5  S   UNL d   1     -41.244-121.911 -52.019  0.00  0.00    -0.035 SA
ATOM      6 CL   UNL d   1     -41.473-121.298 -50.707  0.00  0.00    -0.073 Cl
ENDROOT
BRANCH   1   7
ATOM      7  S   UNL d   1     -41.984-122.927 -50.302  0.00  0.00     0.228 S 
ATOM      8  O   UNL d   1     -42.785-122.575 -50.547  0.00  0.00    -0.216 OA
ATOM      9  O   UNL d   1     -41.217-123.223 -50.174  0.00  0.00    -0.216 OA
BRANCH   7  10
ATOM     10  C   UNL d   1     -42.188-123.133 -49.584  0.00  0.00     0.089 A 
ATOM     11  C   UNL d   1     -42.917-123.330 -49.324  0.00  0.00     0.011 A 
ATOM     12  C   UNL d   1     -43.033-123.543 -48.510  0.00  0.00     0.001 A 
ATOM     13  C   UNL d   1     -42.494-123.579 -47.924  0.00  0.00     0.000 A 
ATOM     14  C   UNL d   1     -41.656-123.372 -48.140  0.00  0.00     0.001 A 
ATOM     15  C   UNL d   1     -42.630-123.808 -47.055  0.00  0.00     0.000 C 
ATOM     16  C   UNL d   1     -41.540-123.159 -48.955  0.00  0.00     0.011 A 
ENDBRANCH   7  10
ENDBRANCH   1   7
BRANCH   3  17
ATOM     17  N   UNL d   1     -41.123-122.829 -53.213  0.00  0.00    -0.221 NA
BRANCH  17  18
ATOM     18  C   UNL d   1     -41.618-122.532 -53.880  0.00  0.00     0.084 A 
ATOM     19  C   UNL d   1     -41.694-123.083 -54.450  0.00  0.00     0.018 A 
ATOM     20  C   UNL d   1     -41.396-123.817 -54.484  0.00  0.00     0.002 C 
ATOM     21  C   UNL d   1     -42.142-122.818 -55.056  0.00  0.00     0.002 A 
ATOM     22  C   UNL d   1     -42.494-121.982 -55.039  0.00  0.00     0.000 A 
ATOM     23  C   UNL d   1     -42.391-121.482 -54.461  0.00  0.00     0.002 A 
ATOM     24  C   UNL d   1     -41.887-121.850 -53.835  0.00  0.00     0.019 A 
ENDBRANCH  17  18
ENDBRANCH   3  17
TORSDOF 4
ENDMDL
MODEL 2
REMARK VINA RESULT:      -6.5      1.056      4.913
REMARK  4 active torsions:
REMARK  status: ('A' for Active; 'I' for Inactive)
REMARK    1  A    between atoms: S_2  and  C_1 
REMARK    2  A    between atoms: C_8  and  S_2 
REMARK    3  A    between atoms: N_7  and  C_4 
REMARK    4  A    between atoms: C_11  and  N_7 
ROOT
ATOM      1  C   UNL d   1     -41.543-122.548 -51.984  0.00  0.00     0.187 A 
ATOM      2  N   UNL d   1     -41.620-123.205 -51.536  0.00  0.00    -0.208 NA
ATOM      3  C   UNL d   1     -41.405-123.009 -50.764  0.00  0.00     0.196 A 
ATOM      4  C   UNL d   1     -41.287-121.893 -51.585  0.00  0.00     0.118 A 
ATOM      5  S   UNL d   1     -41.187-122.189 -50.749  0.00  0.00    -0.035 SA
ATOM      6 CL   UNL d   1     -41.126-121.134 -51.766  0.00  0.00    -0.073 Cl
ENDROOT
BRANCH   1   7
ATOM      7  S   UNL d   1     -41.687-122.434 -52.803  0.00  0.00     0.228 S 
ATOM      8  O   UNL d   1     -42.133-121.678 -52.567  0.00  0.00    -0.216 OA
ATOM      9  O   UNL d   1     -41.260-123.139 -52.917  0.00  0.00    -0.216 OA
BRANCH   7  10
ATOM     10  C   UNL d   1     -41.794-122.370 -53.567  0.00  0.00     0.089 A 
ATOM     11  C   UNL d   1     -41.316-122.635 -54.149  0.00  0.00     0.011 A 
ATOM     12  C   UNL d   1     -41.531-122.512 -54.962  0.00  0.00     0.001 A 
ATOM     13  C   UNL d   1     -42.177-122.149 -55.257  0.00  0.00     0.000 A 
ATOM     14  C   UNL d   1     -42.758-121.827 -54.664  0.00  0.00     0.001 A 
ATOM     15  C   UNL d   1     -42.396-122.023 -56.130  0.00  0.00     0.000 C 
ATOM     16  C   UNL d   1     -42.543-121.950 -53.852  0.00  0.00     0.011 A 
ENDBRANCH   7  10
ENDBRANCH   1   7
BRANCH   3  17
ATOM     17  N   UNL d   1     -41.357-123.470 -49.967  0.00  0.00    -0.221 NA
BRANCH  17  18
ATOM     18  C   UNL d   1     -42.057-123.595 -49.444  0.00  0.00     0.084 A 
ATOM     19  C   UNL d   1     -41.847-123.592 -48.677  0.00  0.00     0.018 A 
ATOM     20  C   UNL d   1     -41.130-123.495 -48.350  0.00  0.00     0.002 C 
ATOM     21  C   UNL d   1     -42.478-123.704 -48.200  0.00  0.00     0.002 A 
ATOM     22  C   UNL d   1     -43.308-123.817 -48.550  0.00  0.00     0.000 A 
ATOM     23  C   UNL d   1     -43.461-123.812 -49.306  0.00  0.00     0.002 A 
ATOM     24  C   UNL d   1     -42.714-123.683 -49.760  0.00  0.00     0.019 A 
ENDBRANCH  17  18
ENDBRANCH   3  17
TORSDOF 4
ENDMDL
MODEL 3
REMARK VINA RESULT:      -4.8      1.364      5.050
REMARK  4 active torsions:
REMARK  status: ('A' for Active; 'I' for Inactive)
REMARK    1  A    between atoms: S_2  and  C_1 
REMARK    2  A    between atoms: C_8  and  S_2 
REMARK    3  A    between atoms: N_7  and  C_4 
REMARK    4  A    between atoms: C_11  and  N_7 
ROOT
ATOM      1  C   UNL d   1     -41.622-122.462 -52.269  0.00  0.00     0.187 A 
ATOM      2  N   UNL d   1     -41.736-122.050 -51.594  0.00  0.00    -0.208 NA
ATOM      3  C   UNL d   1     -41.507-122.532 -50.965  0.00  0.00     0.196 A 
ATOM      4  C   UNL d   1     -41.327-123.207 -52.166  0.00  0.00     0.118 A 
ATOM      5  S   UNL d   1     -41.241-123.273 -51.281  0.00  0.00    -0.035 SA
ATOM      6 CL   UNL d   1     -41.123-123.817 -52.638  0.00  0.00    -0.073 Cl
ENDROOT
BRANCH   1   7
ATOM      7  S   UNL d   1     -41.762-122.240 -53.066  0.00  0.00     0.228 S 
ATOM      8  O   UNL d   1     -41.237-121.516 -52.903  0.00  0.00    -0.216 OA
ATOM      9  O   UNL d   1     -42.225-122.929 -53.117  0.00  0.00    -0.216 OA
BRANCH   7  10
ATOM     10  C   UNL d   1     -41.918-122.075 -53.806  0.00  0.00     0.089 A 
ATOM     11  C   UNL d   1     -42.601-121.789 -54.107  0.00  0.00     0.011 A 
ATOM     12  C   UNL d   1     -42.667-121.642 -54.941  0.00  0.00     0.001 A 
ATOM     13  C   UNL d   1     -42.120-121.751 -55.511  0.00  0.00     0.000 A 
ATOM     14  C   UNL d   1     -41.331-122.070 -55.249  0.00  0.00     0.001 A 
ATOM     15  C   UNL d   1     -42.203-121.591 -56.401  0.00  0.00     0.000 C 
ATOM     16  C   UNL d   1     -41.265-122.216 -54.415  0.00  0.00     0.011 A 
ENDBRANCH   7  10
ENDBRANCH   1   7
BRANCH   3  17
ATOM     17  N   UNL d   1     -41.483-122.434 -50.048  0.00  0.00    -0.221 NA
BRANCH  17  18
ATOM     18  C   UNL d   1     -42.087-122.794 -49.513  0.00  0.00     0.084 A 
ATOM     19  C   UNL d   1     -41.820-122.833 -48.764  0.00  0.00     0.018 A 
ATOM     20  C   UNL d   1     -41.123-122.602 -48.464  0.00  0.00     0.002 C 
ATOM     21  C   UNL d   1     -42.363-123.158 -48.277  0.00  0.00     0.002 A 
ATOM     22  C   UNL d   1     -43.167-123.430 -48.597  0.00  0.00     0.000 A 
ATOM     23  C   UNL d   1     -43.380-123.370 -49.336  0.00  0.00     0.002 A 
ATOM     24  C   UNL d   1     -42.727-123.003 -49.804  0.00  0.00     0.019 A 
ENDBRANCH  17  18
ENDBRANCH   3  17
TORSDOF 4
ENDMDL
