MODEL 1
REMARK VINA RESULT:      75.5      0.000      0.000
REMARK  5 active torsions:
REMARK  status: ('A' for Active; 'I' for Inactive)
REMARK    1  A    between atoms: N_9  and  C_2 
REMARK    2  A    between atoms: N_12  and  C_6 
REMARK    3  A    between atoms: C_13  and  N_11 
REMARK    4  A    between atoms: C_18  and  N_12 
REMARK    5  A    between atoms: O_28  and  C_23 
ROOT
ATOM      1  N   UNL d   1     -54.960-101.746 -42.518  0.00  0.00    -0.041 NA
ATOM      2  C   UNL d   1     -55.070-101.210 -41.964  0.00  0.00     0.738 A 
ATOM      3  C   UNL d   1     -54.919-101.529 -43.266  0.00  0.00     0.187 A 
ATOM      4  N   UNL d   1     -55.139-100.453 -42.157  0.00  0.00    -0.041 NA
ATOM      5  C   UNL d   1     -54.988-100.772 -43.463  0.00  0.00     0.094 A 
ATOM      6  C   UNL d   1     -55.099-100.228 -42.906  0.00  0.00     0.185 A 
ATOM      7  N   UNL d   1     -54.767-101.851 -44.582  0.00  0.00    -0.162 NA
ATOM      8  N   UNL d   1     -54.808-102.073 -43.822  0.00  0.00    -0.208 N 
ATOM      9  C   UNL d   1     -54.836-101.093 -44.776  0.00  0.00     0.127 A 
ATOM     10  C   UNL d   1     -54.739-102.827 -43.630  0.00  0.00     0.123 C 
ENDROOT
BRANCH   2  11
ATOM     11  N   UNL d   1     -55.114-101.437 -41.170  0.00  0.00    -0.134 N 
ATOM     12  C   UNL d   1     -55.041-102.232 -40.962  0.00  0.00     0.117 A 
ATOM     13  C   UNL d   1     -55.086-102.451 -40.165  0.00  0.00     0.100 A 
ATOM     14  N   UNL d   1     -55.203-101.877 -39.580  0.00  0.00    -0.301 N 
ATOM     15  C   UNL d   1     -55.275-101.084 -39.791  0.00  0.00     0.100 A 
ATOM     16  C   UNL d   1     -55.230-100.863 -40.585  0.00  0.00     0.117 A 
BRANCH  14  17
ATOM     17  C   UNL d   1     -55.247-102.100 -38.784  0.00  0.00     0.064 A 
ATOM     18  C   UNL d   1     -55.837-101.767 -38.302  0.00  0.00     0.020 A 
ATOM     19  C   UNL d   1     -55.882-101.991 -37.506  0.00  0.00     0.031 A 
ATOM     20  C   UNL d   1     -55.338-102.545 -37.196  0.00  0.00     0.140 A 
ATOM     21  C   UNL d   1     -54.754-102.866 -37.699  0.00  0.00     0.031 A 
ATOM     22  F   UNL d   1     -55.381-102.769 -36.403  0.00  0.00    -0.204 F 
ATOM     23  C   UNL d   1     -54.713-102.642 -38.489  0.00  0.00     0.020 A 
ENDBRANCH  14  17
ENDBRANCH   2  11
BRANCH   6  24
ATOM     24  N   UNL d   1     -55.172 -99.438 -43.100  0.00  0.00    -0.226 NA
BRANCH  24  25
ATOM     25  C   UNL d   1     -55.612 -99.213 -43.752  0.00  0.00     0.085 A 
ATOM     26  C   UNL d   1     -56.430 -99.096 -43.693  0.00  0.00     0.043 A 
ATOM     27  C   UNL d   1     -56.873 -98.871 -44.346  0.00  0.00     0.096 A 
ATOM     28  C   UNL d   1     -56.494 -98.759 -45.074  0.00  0.00     0.024 A 
ATOM     29  C   UNL d   1     -55.688 -98.873 -45.138  0.00  0.00     0.004 A 
ATOM     30  C   UNL d   1     -55.245 -99.101 -44.476  0.00  0.00     0.019 A 
BRANCH  27  31
ATOM     31  O   UNL d   1     -57.683 -98.755 -44.283  0.00  0.00    -0.328 OA
ATOM     32  C   UNL d   1     -58.233 -98.881 -43.681  0.00  0.00     0.181 C 
ENDBRANCH  27  31
ENDBRANCH  24  25
ENDBRANCH   6  24
TORSDOF 5
ENDMDL
