MODEL 1
REMARK VINA RESULT:      23.4      0.000      0.000
REMARK  1 active torsions:
REMARK  status: ('A' for Active; 'I' for Inactive)
REMARK    1  A    between atoms: N_13  and  C_2 
ROOT
ATOM      1  C   UNL d   1     -51.823  25.356  33.308  0.00  0.00     0.024 A 
ATOM      2  C   UNL d   1     -52.649  25.340  33.308  0.00  0.00     0.138 A 
ATOM      3  C   UNL d   1     -53.047  24.616  33.309  0.00  0.00     0.282 A 
ATOM      4  C   UNL d   1     -51.398  24.651  33.308  0.00  0.00     0.021 A 
ATOM      5  N   UNL d   1     -52.614  23.915  33.309  0.00  0.00    -0.271 N 
ATOM      6  C   UNL d   1     -51.789  23.928  33.308  0.00  0.00     0.067 A 
ATOM      7  C   UNL d   1     -51.428  26.076  33.307  0.00  0.00     0.005 A 
ATOM      8  C   UNL d   1     -50.565  24.676  33.307  0.00  0.00     0.040 A 
ATOM      9  C   UNL d   1     -50.169  25.401  33.306  0.00  0.00     0.196 A 
ATOM     10  C   UNL d   1     -50.603  26.101  33.306  0.00  0.00     0.039 A 
ATOM     11  O   UNL d   1     -53.872  24.591  33.309  0.00  0.00    -0.265 OA
ATOM     12  O   UNL d   1     -49.345  25.426  33.306  0.00  0.00    -0.287 OA
ATOM     13  C   UNL d   1     -53.018  23.191  33.309  0.00  0.00     0.102 C 
ATOM     14  C   UNL d   1     -51.368  23.227  33.308  0.00  0.00     0.018 A 
ATOM     15  C   UNL d   1     -50.140  23.968  33.307  0.00  0.00     0.003 A 
ATOM     16  C   UNL d   1     -51.861  26.781  33.307  0.00  0.00     0.000 A 
ATOM     17  C   UNL d   1     -50.212  26.830  33.306  0.00  0.00     0.003 A 
ATOM     18  C   UNL d   1     -50.530  23.240  33.308  0.00  0.00     0.002 A 
ATOM     19  C   UNL d   1     -51.470  27.506  33.306  0.00  0.00     0.000 A 
ATOM     20  C   UNL d   1     -50.646  27.530  33.306  0.00  0.00     0.000 A 
ENDROOT
BRANCH   2  21
ATOM     21  N   UNL d   1     -53.077  26.040  33.308  0.00  0.00    -0.238 NA
ATOM     22  C   UNL d   1     -53.901  26.021  33.352  0.00  0.00     0.120 C 
ENDBRANCH   2  21
TORSDOF 1
ENDMDL
MODEL 2
REMARK VINA RESULT:      24.2      1.143      2.702
REMARK  1 active torsions:
REMARK  status: ('A' for Active; 'I' for Inactive)
REMARK    1  A    between atoms: N_13  and  C_2 
ROOT
ATOM      1  C   UNL d   1     -51.819  25.370  33.306  0.00  0.00     0.024 A 
ATOM      2  C   UNL d   1     -52.250  26.074  33.306  0.00  0.00     0.138 A 
ATOM      3  C   UNL d   1     -51.856  26.800  33.306  0.00  0.00     0.282 A 
ATOM      4  C   UNL d   1     -50.996  25.392  33.306  0.00  0.00     0.021 A 
ATOM      5  N   UNL d   1     -51.032  26.814  33.307  0.00  0.00    -0.271 N 
ATOM      6  C   UNL d   1     -50.598  26.112  33.307  0.00  0.00     0.067 A 
ATOM      7  C   UNL d   1     -52.212  24.649  33.306  0.00  0.00     0.005 A 
ATOM      8  C   UNL d   1     -50.568  24.677  33.307  0.00  0.00     0.040 A 
ATOM      9  C   UNL d   1     -50.965  23.953  33.306  0.00  0.00     0.196 A 
ATOM     10  C   UNL d   1     -51.788  23.941  33.306  0.00  0.00     0.039 A 
ATOM     11  O   UNL d   1     -52.280  27.508  33.306  0.00  0.00    -0.265 OA
ATOM     12  O   UNL d   1     -50.541  23.245  33.307  0.00  0.00    -0.287 OA
ATOM     13  C   UNL d   1     -50.640  27.544  33.307  0.00  0.00     0.102 C 
ATOM     14  C   UNL d   1     -49.781  26.135  33.307  0.00  0.00     0.018 A 
ATOM     15  C   UNL d   1     -49.743  24.701  33.307  0.00  0.00     0.003 A 
ATOM     16  C   UNL d   1     -53.039  24.634  33.306  0.00  0.00     0.000 A 
ATOM     17  C   UNL d   1     -52.191  23.218  33.306  0.00  0.00     0.003 A 
ATOM     18  C   UNL d   1     -49.339  25.423  33.307  0.00  0.00     0.002 A 
ATOM     19  C   UNL d   1     -53.439  23.914  33.306  0.00  0.00     0.000 A 
ATOM     20  C   UNL d   1     -53.015  23.206  33.306  0.00  0.00     0.000 A 
ENDROOT
BRANCH   2  21
ATOM     21  N   UNL d   1     -53.072  26.058  33.306  0.00  0.00    -0.238 NA
ATOM     22  C   UNL d   1     -53.499  26.763  33.312  0.00  0.00     0.120 C 
ENDBRANCH   2  21
TORSDOF 1
ENDMDL
MODEL 3
REMARK VINA RESULT:      24.4      1.016      3.509
REMARK  1 active torsions:
REMARK  status: ('A' for Active; 'I' for Inactive)
REMARK    1  A    between atoms: N_13  and  C_2 
ROOT
ATOM      1  C   UNL d   1     -51.259  24.999  33.306  0.00  0.00     0.024 A 
ATOM      2  C   UNL d   1     -50.513  24.645  33.306  0.00  0.00     0.138 A 
ATOM      3  C   UNL d   1     -49.833  25.116  33.307  0.00  0.00     0.282 A 
ATOM      4  C   UNL d   1     -51.326  25.819  33.306  0.00  0.00     0.021 A 
ATOM      5  N   UNL d   1     -49.908  25.936  33.306  0.00  0.00    -0.271 N 
ATOM      6  C   UNL d   1     -50.652  26.293  33.306  0.00  0.00     0.067 A 
ATOM      7  C   UNL d   1     -51.934  24.531  33.306  0.00  0.00     0.005 A 
ATOM      8  C   UNL d   1     -52.082  26.168  33.306  0.00  0.00     0.040 A 
ATOM      9  C   UNL d   1     -52.759  25.696  33.306  0.00  0.00     0.196 A 
ATOM     10  C   UNL d   1     -52.683  24.876  33.306  0.00  0.00     0.039 A 
ATOM     11  O   UNL d   1     -49.084  24.770  33.307  0.00  0.00    -0.265 OA
ATOM     12  O   UNL d   1     -53.508  26.042  33.306  0.00  0.00    -0.287 OA
ATOM     13  C   UNL d   1     -49.224  26.404  33.306  0.00  0.00     0.102 C 
ATOM     14  C   UNL d   1     -50.716  27.108  33.306  0.00  0.00     0.018 A 
ATOM     15  C   UNL d   1     -52.147  26.992  33.306  0.00  0.00     0.003 A 
ATOM     16  C   UNL d   1     -51.860  23.707  33.306  0.00  0.00     0.000 A 
ATOM     17  C   UNL d   1     -53.358  24.399  33.306  0.00  0.00     0.003 A 
ATOM     18  C   UNL d   1     -51.472  27.470  33.306  0.00  0.00     0.002 A 
ATOM     19  C   UNL d   1     -52.533  23.232  33.306  0.00  0.00     0.000 A 
ATOM     20  C   UNL d   1     -53.282  23.578  33.306  0.00  0.00     0.000 A 
ENDROOT
BRANCH   2  21
ATOM     21  N   UNL d   1     -50.441  23.827  33.307  0.00  0.00    -0.238 NA
ATOM     22  C   UNL d   1     -49.794  23.469  33.671  0.00  0.00     0.120 C 
ENDBRANCH   2  21
TORSDOF 1
ENDMDL
