MODEL 1
REMARK VINA RESULT:      -7.3      0.000      0.000
REMARK  3 active torsions:
REMARK  status: ('A' for Active; 'I' for Inactive)
REMARK    1  A    between atoms: S_6  and  C_1 
REMARK    2  A    between atoms: C_3  and  C_9 
REMARK       I    between atoms: N_4  and  C_3 
REMARK    3  A    between atoms: C_9  and  S_6 
ROOT
ATOM      1  C   UNL d   1     -49.271  13.951  22.398  0.00  0.00     0.114 A 
ATOM      2  C   UNL d   1     -49.781  14.506  22.724  0.00  0.00     0.042 A 
ATOM      3  N   UNL d   1     -49.528  13.475  21.774  0.00  0.00    -0.217 NA
ATOM      4  N   UNL d   1     -50.807  14.116  21.809  0.00  0.00    -0.224 NA
ATOM      5  C   UNL d   1     -50.297  13.558  21.480  0.00  0.00     0.200 A 
ATOM      6  C   UNL d   1     -50.550  14.589  22.429  0.00  0.00     0.085 A 
ATOM      7  C   UNL d   1     -49.523  14.981  23.347  0.00  0.00     0.004 A 
ATOM      8  C   UNL d   1     -51.060  15.147  22.758  0.00  0.00     0.019 A 
ATOM      9  C   UNL d   1     -50.035  15.540  23.676  0.00  0.00     0.000 A 
ATOM     10  C   UNL d   1     -50.803  15.622  23.381  0.00  0.00     0.002 A 
ENDROOT
BRANCH   1  11
ATOM     11  S   UNL d   1     -48.503  13.868  22.692  0.00  0.00    -0.062 SA
BRANCH  11  12
ATOM     12  C   UNL d   1     -48.157  13.128  22.745  0.00  0.00     0.098 C 
BRANCH  12  13
ATOM     13  C   UNL d   1     -47.351  13.052  22.904  0.00  0.00     0.271 C 
ATOM     14  N   UNL d   1     -47.053  12.342  23.219  0.00  0.00    -0.272 N 
ATOM     15  C   UNL d   1     -47.487  11.678  23.398  0.00  0.00     0.083 A 
ATOM     16  C   UNL d   1     -46.265  12.190  23.404  0.00  0.00     0.083 A 
ATOM     17  C   UNL d   1     -46.972  11.102  23.698  0.00  0.00     0.021 A 
ATOM     18  C   UNL d   1     -46.216  11.432  23.697  0.00  0.00     0.021 A 
ATOM     19  O   UNL d   1     -46.847  13.673  22.753  0.00  0.00    -0.266 OA
ENDBRANCH  12  13
ENDBRANCH  11  12
ENDBRANCH   1  11
TORSDOF 3
ENDMDL
MODEL 2
REMARK VINA RESULT:      -7.0      1.140      1.846
REMARK  3 active torsions:
REMARK  status: ('A' for Active; 'I' for Inactive)
REMARK    1  A    between atoms: S_6  and  C_1 
REMARK    2  A    between atoms: C_3  and  C_9 
REMARK       I    between atoms: N_4  and  C_3 
REMARK    3  A    between atoms: C_9  and  S_6 
ROOT
ATOM      1  C   UNL d   1     -49.007  14.041  22.801  0.00  0.00     0.114 A 
ATOM      2  C   UNL d   1     -49.691  13.913  22.365  0.00  0.00     0.042 A 
ATOM      3  N   UNL d   1     -48.852  14.792  23.108  0.00  0.00    -0.217 NA
ATOM      4  N   UNL d   1     -50.070  15.280  22.537  0.00  0.00    -0.224 NA
ATOM      5  C   UNL d   1     -49.384  15.411  22.975  0.00  0.00     0.200 A 
ATOM      6  C   UNL d   1     -50.223  14.532  22.233  0.00  0.00     0.085 A 
ATOM      7  C   UNL d   1     -49.846  13.162  22.058  0.00  0.00     0.004 A 
ATOM      8  C   UNL d   1     -50.909  14.401  21.794  0.00  0.00     0.019 A 
ATOM      9  C   UNL d   1     -50.533  13.032  21.620  0.00  0.00     0.000 A 
ATOM     10  C   UNL d   1     -51.064  13.651  21.488  0.00  0.00     0.002 A 
ENDROOT
BRANCH   1  11
ATOM     11  S   UNL d   1     -48.476  13.422  22.933  0.00  0.00    -0.062 SA
BRANCH  11  12
ATOM     12  C   UNL d   1     -47.671  13.567  22.963  0.00  0.00     0.098 C 
BRANCH  12  13
ATOM     13  C   UNL d   1     -47.141  12.958  23.138  0.00  0.00     0.271 C 
ATOM     14  N   UNL d   1     -46.367  12.977  22.833  0.00  0.00    -0.272 N 
ATOM     15  C   UNL d   1     -46.054  13.557  22.356  0.00  0.00     0.083 A 
ATOM     16  C   UNL d   1     -45.784  12.411  22.962  0.00  0.00     0.083 A 
ATOM     17  C   UNL d   1     -45.270  13.358  22.182  0.00  0.00     0.021 A 
ATOM     18  C   UNL d   1     -45.114  12.643  22.564  0.00  0.00     0.021 A 
ATOM     19  O   UNL d   1     -47.376  12.339  23.610  0.00  0.00    -0.266 OA
ENDBRANCH  12  13
ENDBRANCH  11  12
ENDBRANCH   1  11
TORSDOF 3
ENDMDL
MODEL 3
REMARK VINA RESULT:      -6.6      1.036      1.182
REMARK  3 active torsions:
REMARK  status: ('A' for Active; 'I' for Inactive)
REMARK    1  A    between atoms: S_6  and  C_1 
REMARK    2  A    between atoms: C_3  and  C_9 
REMARK       I    between atoms: N_4  and  C_3 
REMARK    3  A    between atoms: C_9  and  S_6 
ROOT
ATOM      1  C   UNL d   1     -49.127  14.055  23.004  0.00  0.00     0.114 A 
ATOM      2  C   UNL d   1     -49.700  14.598  23.235  0.00  0.00     0.042 A 
ATOM      3  N   UNL d   1     -49.346  13.278  22.835  0.00  0.00    -0.217 NA
ATOM      4  N   UNL d   1     -50.710  13.593  23.129  0.00  0.00    -0.224 NA
ATOM      5  C   UNL d   1     -50.137  13.047  22.898  0.00  0.00     0.200 A 
ATOM      6  C   UNL d   1     -50.491  14.367  23.297  0.00  0.00     0.085 A 
ATOM      7  C   UNL d   1     -49.481  15.376  23.404  0.00  0.00     0.004 A 
ATOM      8  C   UNL d   1     -51.064  14.914  23.528  0.00  0.00     0.019 A 
ATOM      9  C   UNL d   1     -50.055  15.922  23.635  0.00  0.00     0.000 A 
ATOM     10  C   UNL d   1     -50.846  15.691  23.697  0.00  0.00     0.002 A 
ENDROOT
BRANCH   1  11
ATOM     11  S   UNL d   1     -48.336  14.286  22.942  0.00  0.00    -0.062 SA
BRANCH  11  12
ATOM     12  C   UNL d   1     -47.746  13.724  22.863  0.00  0.00     0.098 C 
BRANCH  12  13
ATOM     13  C   UNL d   1     -46.976  13.949  22.666  0.00  0.00     0.271 C 
ATOM     14  N   UNL d   1     -46.366  13.385  22.657  0.00  0.00    -0.272 N 
ATOM     15  C   UNL d   1     -46.442  12.593  22.829  0.00  0.00     0.083 A 
ATOM     16  C   UNL d   1     -45.577  13.530  22.472  0.00  0.00     0.083 A 
ATOM     17  C   UNL d   1     -45.700  12.236  22.753  0.00  0.00     0.021 A 
ATOM     18  C   UNL d   1     -45.170  12.829  22.530  0.00  0.00     0.021 A 
ATOM     19  O   UNL d   1     -46.815  14.725  22.480  0.00  0.00    -0.266 OA
ENDBRANCH  12  13
ENDBRANCH  11  12
ENDBRANCH   1  11
TORSDOF 3
ENDMDL
MODEL 4
REMARK VINA RESULT:      -6.2      1.079      1.378
REMARK  3 active torsions:
REMARK  status: ('A' for Active; 'I' for Inactive)
REMARK    1  A    between atoms: S_6  and  C_1 
REMARK    2  A    between atoms: C_3  and  C_9 
REMARK       I    between atoms: N_4  and  C_3 
REMARK    3  A    between atoms: C_9  and  S_6 
ROOT
ATOM      1  C   UNL d   1     -48.577  13.091  23.142  0.00  0.00     0.114 A 
ATOM      2  C   UNL d   1     -48.986  13.780  22.963  0.00  0.00     0.042 A 
ATOM      3  N   UNL d   1     -48.995  12.400  23.313  0.00  0.00    -0.217 NA
ATOM      4  N   UNL d   1     -50.230  13.096  23.123  0.00  0.00    -0.224 NA
ATOM      5  C   UNL d   1     -49.822  12.403  23.304  0.00  0.00     0.200 A 
ATOM      6  C   UNL d   1     -49.813  13.783  22.953  0.00  0.00     0.085 A 
ATOM      7  C   UNL d   1     -48.568  14.471  22.792  0.00  0.00     0.004 A 
ATOM      8  C   UNL d   1     -50.222  14.477  22.773  0.00  0.00     0.019 A 
ATOM      9  C   UNL d   1     -48.978  15.165  22.612  0.00  0.00     0.000 A 
ATOM     10  C   UNL d   1     -49.804  15.167  22.602  0.00  0.00     0.002 A 
ENDROOT
BRANCH   1  11
ATOM     11  S   UNL d   1     -47.751  13.088  23.152  0.00  0.00    -0.062 SA
BRANCH  11  12
ATOM     12  C   UNL d   1     -47.341  12.398  23.313  0.00  0.00     0.098 C 
BRANCH  12  13
ATOM     13  C   UNL d   1     -46.519  12.371  23.237  0.00  0.00     0.271 C 
ATOM     14  N   UNL d   1     -46.110  11.662  23.385  0.00  0.00    -0.272 N 
ATOM     15  C   UNL d   1     -46.442  10.954  23.609  0.00  0.00     0.083 A 
ATOM     16  C   UNL d   1     -45.295  11.555  23.331  0.00  0.00     0.083 A 
ATOM     17  C   UNL d   1     -45.836  10.397  23.697  0.00  0.00     0.021 A 
ATOM     18  C   UNL d   1     -45.129  10.782  23.521  0.00  0.00     0.021 A 
ATOM     19  O   UNL d   1     -46.109  13.038  23.016  0.00  0.00    -0.266 OA
ENDBRANCH  12  13
ENDBRANCH  11  12
ENDBRANCH   1  11
TORSDOF 3
ENDMDL
MODEL 5
REMARK VINA RESULT:      -6.2      1.106      4.291
REMARK  3 active torsions:
REMARK  status: ('A' for Active; 'I' for Inactive)
REMARK    1  A    between atoms: S_6  and  C_1 
REMARK    2  A    between atoms: C_3  and  C_9 
REMARK       I    between atoms: N_4  and  C_3 
REMARK    3  A    between atoms: C_9  and  S_6 
ROOT
ATOM      1  C   UNL d   1     -47.372  12.715  22.894  0.00  0.00     0.114 A 
ATOM      2  C   UNL d   1     -46.561  12.736  22.760  0.00  0.00     0.042 A 
ATOM      3  N   UNL d   1     -47.694  12.115  23.360  0.00  0.00    -0.217 NA
ATOM      4  N   UNL d   1     -46.389  11.561  23.555  0.00  0.00    -0.224 NA
ATOM      5  C   UNL d   1     -47.202  11.538  23.690  0.00  0.00     0.200 A 
ATOM      6  C   UNL d   1     -46.070  12.158  23.091  0.00  0.00     0.085 A 
ATOM      7  C   UNL d   1     -46.239  13.336  22.294  0.00  0.00     0.004 A 
ATOM      8  C   UNL d   1     -45.256  12.181  22.955  0.00  0.00     0.019 A 
ATOM      9  C   UNL d   1     -45.425  13.358  22.159  0.00  0.00     0.000 A 
ATOM     10  C   UNL d   1     -44.934  12.781  22.489  0.00  0.00     0.002 A 
ENDROOT
BRANCH   1  11
ATOM     11  S   UNL d   1     -47.862  13.292  22.563  0.00  0.00    -0.062 SA
BRANCH  11  12
ATOM     12  C   UNL d   1     -48.669  13.279  22.704  0.00  0.00     0.098 C 
BRANCH  12  13
ATOM     13  C   UNL d   1     -49.181  13.746  22.255  0.00  0.00     0.271 C 
ATOM     14  N   UNL d   1     -49.760  14.210  22.630  0.00  0.00    -0.272 N 
ATOM     15  C   UNL d   1     -49.889  14.259  23.431  0.00  0.00     0.083 A 
ATOM     16  C   UNL d   1     -50.305  14.699  22.253  0.00  0.00     0.083 A 
ATOM     17  C   UNL d   1     -50.518  14.782  23.563  0.00  0.00     0.021 A 
ATOM     18  C   UNL d   1     -50.767  15.048  22.823  0.00  0.00     0.021 A 
ATOM     19  O   UNL d   1     -49.117  13.753  21.443  0.00  0.00    -0.266 OA
ENDBRANCH  12  13
ENDBRANCH  11  12
ENDBRANCH   1  11
TORSDOF 3
ENDMDL
MODEL 6
REMARK VINA RESULT:      -5.6      9.313     11.098
REMARK  3 active torsions:
REMARK  status: ('A' for Active; 'I' for Inactive)
REMARK    1  A    between atoms: S_6  and  C_1 
REMARK    2  A    between atoms: C_3  and  C_9 
REMARK       I    between atoms: N_4  and  C_3 
REMARK    3  A    between atoms: C_9  and  S_6 
ROOT
ATOM      1  C   UNL d   1     -39.276  14.030  17.595  0.00  0.00     0.114 A 
ATOM      2  C   UNL d   1     -38.854  14.144  16.899  0.00  0.00     0.042 A 
ATOM      3  N   UNL d   1     -39.207  13.316  18.002  0.00  0.00    -0.217 NA
ATOM      4  N   UNL d   1     -38.293  12.835  17.012  0.00  0.00    -0.224 NA
ATOM      5  C   UNL d   1     -38.716  12.718  17.711  0.00  0.00     0.200 A 
ATOM      6  C   UNL d   1     -38.362  13.547  16.607  0.00  0.00     0.085 A 
ATOM      7  C   UNL d   1     -38.923  14.859  16.491  0.00  0.00     0.004 A 
ATOM      8  C   UNL d   1     -37.940  13.663  15.909  0.00  0.00     0.019 A 
ATOM      9  C   UNL d   1     -38.500  14.975  15.793  0.00  0.00     0.000 A 
ATOM     10  C   UNL d   1     -38.008  14.377  15.501  0.00  0.00     0.002 A 
ENDROOT
BRANCH   1  11
ATOM     11  S   UNL d   1     -39.768  14.627  17.885  0.00  0.00    -0.062 SA
BRANCH  11  12
ATOM     12  C   UNL d   1     -39.957  14.657  18.681  0.00  0.00     0.098 C 
BRANCH  12  13
ATOM     13  C   UNL d   1     -40.492  15.218  18.965  0.00  0.00     0.271 C 
ATOM     14  N   UNL d   1     -40.536  15.378  19.780  0.00  0.00    -0.272 N 
ATOM     15  C   UNL d   1     -40.089  15.027  20.362  0.00  0.00     0.083 A 
ATOM     16  C   UNL d   1     -41.041  15.921  20.138  0.00  0.00     0.083 A 
ATOM     17  C   UNL d   1     -40.311  15.348  21.092  0.00  0.00     0.021 A 
ATOM     18  C   UNL d   1     -40.903  15.903  20.940  0.00  0.00     0.021 A 
ATOM     19  O   UNL d   1     -40.977  15.616  18.446  0.00  0.00    -0.266 OA
ENDBRANCH  12  13
ENDBRANCH  11  12
ENDBRANCH   1  11
TORSDOF 3
ENDMDL
MODEL 7
REMARK VINA RESULT:      -5.4      9.374      9.896
REMARK  3 active torsions:
REMARK  status: ('A' for Active; 'I' for Inactive)
REMARK    1  A    between atoms: S_6  and  C_1 
REMARK    2  A    between atoms: C_3  and  C_9 
REMARK       I    between atoms: N_4  and  C_3 
REMARK    3  A    between atoms: C_9  and  S_6 
ROOT
ATOM      1  C   UNL d   1     -39.956  14.490  18.630  0.00  0.00     0.114 A 
ATOM      2  C   UNL d   1     -40.350  14.922  18.053  0.00  0.00     0.042 A 
ATOM      3  N   UNL d   1     -39.397  13.924  18.408  0.00  0.00    -0.217 NA
ATOM      4  N   UNL d   1     -39.633  14.228  17.030  0.00  0.00    -0.224 NA
ATOM      5  C   UNL d   1     -39.236  13.793  17.607  0.00  0.00     0.200 A 
ATOM      6  C   UNL d   1     -40.189  14.790  17.252  0.00  0.00     0.085 A 
ATOM      7  C   UNL d   1     -40.908  15.488  18.275  0.00  0.00     0.004 A 
ATOM      8  C   UNL d   1     -40.585  15.225  16.674  0.00  0.00     0.019 A 
ATOM      9  C   UNL d   1     -41.305  15.922  17.696  0.00  0.00     0.000 A 
ATOM     10  C   UNL d   1     -41.143  15.791  16.896  0.00  0.00     0.002 A 
ENDROOT
BRANCH   1  11
ATOM     11  S   UNL d   1     -40.117  14.621  19.430  0.00  0.00    -0.062 SA
BRANCH  11  12
ATOM     12  C   UNL d   1     -39.627  14.310  20.007  0.00  0.00     0.098 C 
BRANCH  12  13
ATOM     13  C   UNL d   1     -39.816  14.392  20.807  0.00  0.00     0.271 C 
ATOM     14  N   UNL d   1     -39.317  14.070  21.389  0.00  0.00    -0.272 N 
ATOM     15  C   UNL d   1     -38.627  13.660  21.256  0.00  0.00     0.083 A 
ATOM     16  C   UNL d   1     -39.437  14.110  22.202  0.00  0.00     0.083 A 
ATOM     17  C   UNL d   1     -38.308  13.440  21.987  0.00  0.00     0.021 A 
ATOM     18  C   UNL d   1     -38.820  13.725  22.567  0.00  0.00     0.021 A 
ATOM     19  O   UNL d   1     -40.492  14.790  21.025  0.00  0.00    -0.266 OA
ENDBRANCH  12  13
ENDBRANCH  11  12
ENDBRANCH   1  11
TORSDOF 3
ENDMDL
MODEL 8
REMARK VINA RESULT:      -5.0      9.139     10.640
REMARK  3 active torsions:
REMARK  status: ('A' for Active; 'I' for Inactive)
REMARK    1  A    between atoms: S_6  and  C_1 
REMARK    2  A    between atoms: C_3  and  C_9 
REMARK       I    between atoms: N_4  and  C_3 
REMARK    3  A    between atoms: C_9  and  S_6 
ROOT
ATOM      1  C   UNL d   1     -39.303  15.574  19.611  0.00  0.00     0.114 A 
ATOM      2  C   UNL d   1     -39.947  15.690  20.109  0.00  0.00     0.042 A 
ATOM      3  N   UNL d   1     -38.545  15.516  19.931  0.00  0.00    -0.217 NA
ATOM      4  N   UNL d   1     -39.081  15.689  21.246  0.00  0.00    -0.224 NA
ATOM      5  C   UNL d   1     -38.434  15.574  20.748  0.00  0.00     0.200 A 
ATOM      6  C   UNL d   1     -39.836  15.747  20.927  0.00  0.00     0.085 A 
ATOM      7  C   UNL d   1     -40.705  15.748  19.789  0.00  0.00     0.004 A 
ATOM      8  C   UNL d   1     -40.483  15.863  21.424  0.00  0.00     0.019 A 
ATOM      9  C   UNL d   1     -41.353  15.864  20.288  0.00  0.00     0.000 A 
ATOM     10  C   UNL d   1     -41.242  15.922  21.105  0.00  0.00     0.002 A 
ENDROOT
BRANCH   1  11
ATOM     11  S   UNL d   1     -39.414  15.517  18.794  0.00  0.00    -0.062 SA
BRANCH  11  12
ATOM     12  C   UNL d   1     -38.907  15.064  18.339  0.00  0.00     0.098 C 
BRANCH  12  13
ATOM     13  C   UNL d   1     -38.973  15.061  17.515  0.00  0.00     0.271 C 
ATOM     14  N   UNL d   1     -38.654  14.432  17.074  0.00  0.00    -0.272 N 
ATOM     15  C   UNL d   1     -38.264  13.785  17.375  0.00  0.00     0.083 A 
ATOM     16  C   UNL d   1     -38.679  14.357  16.255  0.00  0.00     0.083 A 
ATOM     17  C   UNL d   1     -38.041  13.298  16.744  0.00  0.00     0.021 A 
ATOM     18  C   UNL d   1     -38.304  13.664  16.053  0.00  0.00     0.021 A 
ATOM     19  O   UNL d   1     -39.350  15.674  17.136  0.00  0.00    -0.266 OA
ENDBRANCH  12  13
ENDBRANCH  11  12
ENDBRANCH   1  11
TORSDOF 3
ENDMDL
