MODEL 1
REMARK VINA RESULT:      28.8      0.000      0.000
REMARK  5 active torsions:
REMARK  status: ('A' for Active; 'I' for Inactive)
REMARK    1  A    between atoms: N_7  and  C_4 
REMARK    2  A    between atoms: N_9  and  N_7 
REMARK       I    between atoms: C_8  and  N_9 
REMARK    3  A    between atoms: C_11  and  C_8 
REMARK    4  A    between atoms: C_14  and  C_11 
REMARK    5  A    between atoms: C_15  and  C_11 
ROOT
ATOM      1  C   UNL d   1      46.207 -17.388  44.093  0.00  0.00     0.297 C 
ATOM      2  N   UNL d   1      45.848 -16.666  43.921  0.00  0.00    -0.104 NA
ATOM      3  O   UNL d   1      46.647 -17.477  44.787  0.00  0.00    -0.264 OA
ENDROOT
BRANCH   1   4
ATOM      4  C   UNL d   1      46.127 -18.022  43.570  0.00  0.00     0.059 C 
BRANCH   4   5
ATOM      5  C   UNL d   1      46.020 -17.881  42.762  0.00  0.00     0.005 A 
ATOM      6  C   UNL d   1      45.280 -17.995  42.431  0.00  0.00     0.000 A 
ATOM      7  C   UNL d   1      45.167 -17.858  41.631  0.00  0.00     0.000 A 
ATOM      8  C   UNL d   1      45.814 -17.605  41.175  0.00  0.00     0.000 A 
ATOM      9  C   UNL d   1      46.551 -17.493  41.512  0.00  0.00     0.000 A 
ATOM     10  C   UNL d   1      46.647 -17.632  42.300  0.00  0.00     0.000 A 
ENDBRANCH   4   5
BRANCH   4  11
ATOM     11  C   UNL d   1      46.153 -18.795  43.856  0.00  0.00     0.005 A 
ATOM     12  C   UNL d   1      46.150 -18.922  44.661  0.00  0.00     0.000 A 
ATOM     13  C   UNL d   1      46.176 -19.693  44.954  0.00  0.00     0.000 A 
ATOM     14  C   UNL d   1      46.204 -20.330  44.429  0.00  0.00     0.000 A 
ATOM     15  C   UNL d   1      46.206 -20.186  43.602  0.00  0.00     0.000 A 
ATOM     16  C   UNL d   1      46.180 -19.415  43.329  0.00  0.00     0.000 A 
ENDBRANCH   4  11
ENDBRANCH   1   4
BRANCH   2  17
ATOM     17  N   UNL d   1      45.928 -16.032  44.444  0.00  0.00    -0.127 NA
BRANCH  17  18
ATOM     18  C   UNL d   1      45.694 -15.272  44.212  0.00  0.00     0.178 A 
ATOM     19  N   UNL d   1      44.973 -14.966  44.463  0.00  0.00    -0.240 N 
ATOM     20  C   UNL d   1      44.741 -14.215  44.233  0.00  0.00     0.343 A 
ATOM     21  C   UNL d   1      44.480 -15.420  44.948  0.00  0.00     0.105 C 
ATOM     22  N   UNL d   1      45.233 -13.761  43.748  0.00  0.00    -0.224 N 
ATOM     23  O   UNL d   1      44.013 -13.909  44.487  0.00  0.00    -0.245 OA
ATOM     24  C   UNL d   1      45.962 -14.054  43.487  0.00  0.00     0.271 A 
ATOM     25  C   UNL d   1      44.998 -13.001  43.516  0.00  0.00     0.107 C 
ATOM     26  C   UNL d   1      46.186 -14.818  43.726  0.00  0.00     0.101 A 
ATOM     27  O   UNL d   1      46.449 -13.605  43.007  0.00  0.00    -0.266 OA
ENDBRANCH  17  18
ENDBRANCH   2  17
TORSDOF 5
ENDMDL
