MODEL 1
REMARK VINA RESULT:      77.0      0.000      0.000
REMARK  4 active torsions:
REMARK  status: ('A' for Active; 'I' for Inactive)
REMARK    1  A    between atoms: N_6  and  C_1 
REMARK       I    between atoms: C_9  and  N_6 
REMARK    2  A    between atoms: C_15  and  C_9 
REMARK    3  A    between atoms: C_13  and  C_16 
REMARK    4  A    between atoms: C_19  and  C_13 
ROOT
ATOM      1  C   UNL d   1      14.620  14.268  -2.633  0.00  0.00     0.123 A 
ATOM      2  C   UNL d   1      14.108  13.629  -2.744  0.00  0.00     0.092 A 
ATOM      3  C   UNL d   1      14.130  13.173  -2.062  0.00  0.00     0.013 A 
ATOM      4  C   UNL d   1      14.645  13.517  -1.533  0.00  0.00     0.029 A 
ATOM      5  S   UNL d   1      14.955  14.201  -1.881  0.00  0.00    -0.070 SA
ATOM      6  C   UNL d   1      14.779  13.174  -0.789  0.00  0.00     0.104 A 
ATOM      7  N   UNL d   1      14.387  12.479  -0.586  0.00  0.00    -0.294 NA
ATOM      8  C   UNL d   1      13.665  13.490  -3.418  0.00  0.00     0.103 C 
ATOM      9  C   UNL d   1      13.864  12.129  -1.124  0.00  0.00     0.099 A 
ATOM     10  C   UNL d   1      13.733  12.474  -1.863  0.00  0.00    -0.004 A 
ATOM     11  N   UNL d   1      13.224  13.346  -4.085  0.00  0.00    -0.191 NA
ATOM     12  C   UNL d   1      15.255  13.847  -0.796  0.00  0.00     0.029 C 
ATOM     13  C   UNL d   1      15.036  12.989  -0.025  0.00  0.00     0.029 C 
ATOM     14  C   UNL d   1      13.990  11.780  -0.388  0.00  0.00     0.029 C 
ATOM     15  C   UNL d   1      13.341  11.779  -1.661  0.00  0.00     0.029 C 
ENDROOT
BRANCH   1  16
ATOM     16  N   UNL d   1      14.774  14.873  -3.177  0.00  0.00    -0.201 NA
ATOM     17  C   UNL d   1      14.624  15.658  -2.974  0.00  0.00     0.280 C 
ATOM     18  O   UNL d   1      14.321  15.847  -2.234  0.00  0.00    -0.265 OA
BRANCH  17  19
ATOM     19  C   UNL d   1      14.775  16.254  -3.510  0.00  0.00     0.058 A 
ATOM     20  C   UNL d   1      14.856  16.078  -4.312  0.00  0.00     0.005 A 
ATOM     21  C   UNL d   1      15.010  16.683  -4.856  0.00  0.00     0.003 A 
ATOM     22  C   UNL d   1      15.083  17.463  -4.597  0.00  0.00     0.039 A 
ATOM     23  C   UNL d   1      15.003  17.631  -3.804  0.00  0.00     0.003 A 
ATOM     24  C   UNL d   1      14.849  17.026  -3.260  0.00  0.00     0.005 A 
BRANCH  22  25
ATOM     25  C   UNL d   1      15.237  18.062  -5.141  0.00  0.00     0.196 C 
ATOM     26  O   UNL d   1      16.007  18.295  -5.288  0.00  0.00    -0.287 OA
BRANCH  25  27
ATOM     27  C   UNL d   1      14.614  18.425  -5.536  0.00  0.00     0.039 A 
ATOM     28  C   UNL d   1      14.516  19.236  -5.508  0.00  0.00     0.003 A 
ATOM     29  C   UNL d   1      13.894  19.599  -5.902  0.00  0.00     0.000 A 
ATOM     30  C   UNL d   1      13.359  19.137  -6.333  0.00  0.00     0.000 A 
ATOM     31  C   UNL d   1      13.453  18.316  -6.364  0.00  0.00     0.000 A 
ATOM     32  C   UNL d   1      14.080  17.963  -5.966  0.00  0.00     0.003 A 
ENDBRANCH  25  27
ENDBRANCH  22  25
ENDBRANCH  17  19
ENDBRANCH   1  16
TORSDOF 4
ENDMDL
MODEL 2
REMARK VINA RESULT:      79.0      1.940      6.333
REMARK  4 active torsions:
REMARK  status: ('A' for Active; 'I' for Inactive)
REMARK    1  A    between atoms: N_6  and  C_1 
REMARK       I    between atoms: C_9  and  N_6 
REMARK    2  A    between atoms: C_15  and  C_9 
REMARK    3  A    between atoms: C_13  and  C_16 
REMARK    4  A    between atoms: C_19  and  C_13 
ROOT
ATOM      1  C   UNL d   1      14.143  16.658  -5.106  0.00  0.00     0.123 A 
ATOM      2  C   UNL d   1      14.746  17.205  -4.972  0.00  0.00     0.092 A 
ATOM      3  C   UNL d   1      14.507  17.922  -5.291  0.00  0.00     0.013 A 
ATOM      4  C   UNL d   1      13.767  17.827  -5.620  0.00  0.00     0.029 A 
ATOM      5  S   UNL d   1      13.533  17.042  -5.509  0.00  0.00    -0.070 SA
ATOM      6  C   UNL d   1      13.384  18.466  -5.987  0.00  0.00     0.104 A 
ATOM      7  N   UNL d   1      13.755  19.200  -6.018  0.00  0.00    -0.294 NA
ATOM      8  C   UNL d   1      15.452  17.046  -4.587  0.00  0.00     0.103 C 
ATOM      9  C   UNL d   1      14.506  19.296  -5.684  0.00  0.00     0.099 A 
ATOM     10  C   UNL d   1      14.885  18.657  -5.320  0.00  0.00    -0.004 A 
ATOM     11  N   UNL d   1      16.153  16.894  -4.206  0.00  0.00    -0.191 NA
ATOM     12  C   UNL d   1      12.857  17.836  -6.061  0.00  0.00     0.029 C 
ATOM     13  C   UNL d   1      12.856  18.965  -6.383  0.00  0.00     0.029 C 
ATOM     14  C   UNL d   1      14.134  19.936  -6.046  0.00  0.00     0.029 C 
ATOM     15  C   UNL d   1      15.257  19.391  -5.350  0.00  0.00     0.029 C 
ENDROOT
BRANCH   1  16
ATOM     16  N   UNL d   1      14.143  15.862  -4.878  0.00  0.00    -0.201 NA
ATOM     17  C   UNL d   1      13.480  15.536  -4.512  0.00  0.00     0.280 C 
ATOM     18  O   UNL d   1      12.814  15.998  -4.371  0.00  0.00    -0.265 OA
BRANCH  17  19
ATOM     19  C   UNL d   1      13.480  14.753  -4.288  0.00  0.00     0.058 A 
ATOM     20  C   UNL d   1      13.981  14.495  -3.686  0.00  0.00     0.005 A 
ATOM     21  C   UNL d   1      13.982  13.699  -3.458  0.00  0.00     0.003 A 
ATOM     22  C   UNL d   1      13.481  13.162  -3.833  0.00  0.00     0.039 A 
ATOM     23  C   UNL d   1      12.988  13.421  -4.427  0.00  0.00     0.003 A 
ATOM     24  C   UNL d   1      12.987  14.217  -4.655  0.00  0.00     0.005 A 
BRANCH  22  25
ATOM     25  C   UNL d   1      13.484  12.370  -3.604  0.00  0.00     0.196 C 
ATOM     26  O   UNL d   1      13.366  11.782  -4.160  0.00  0.00    -0.287 OA
BRANCH  25  27
ATOM     27  C   UNL d   1      13.607  12.174  -2.816  0.00  0.00     0.039 A 
ATOM     28  C   UNL d   1      12.975  12.086  -2.304  0.00  0.00     0.003 A 
ATOM     29  C   UNL d   1      13.098  11.890  -1.515  0.00  0.00     0.000 A 
ATOM     30  C   UNL d   1      13.869  11.780  -1.238  0.00  0.00     0.000 A 
ATOM     31  C   UNL d   1      14.510  11.867  -1.751  0.00  0.00     0.000 A 
ATOM     32  C   UNL d   1      14.378  12.063  -2.538  0.00  0.00     0.003 A 
ENDBRANCH  25  27
ENDBRANCH  22  25
ENDBRANCH  17  19
ENDBRANCH   1  16
TORSDOF 4
ENDMDL
