MODEL 1
REMARK VINA RESULT:      -5.5      0.000      0.000
REMARK  4 active torsions:
REMARK  status: ('A' for Active; 'I' for Inactive)
REMARK    1  A    between atoms: N_5  and  C_2 
REMARK    2  A    between atoms: C_9  and  C_3 
REMARK       I    between atoms: C_7  and  N_5 
REMARK    3  A    between atoms: C_8  and  C_7 
REMARK    4  A    between atoms: O_16  and  C_13 
ROOT
ATOM      1  N   UNL d   1      58.642  -0.098  30.451  0.00  0.00    -0.200 NA
ATOM      2  C   UNL d   1      57.889   0.227  30.458  0.00  0.00     0.216 A 
ATOM      3  C   UNL d   1      58.925  -0.083  29.679  0.00  0.00     0.172 A 
ATOM      4  N   UNL d   1      58.341   0.255  29.205  0.00  0.00    -0.187 NA
ATOM      5  S   UNL d   1      57.704   0.444  29.689  0.00  0.00     0.054 SA
ENDROOT
BRANCH   2   6
ATOM      6  N   UNL d   1      57.405   0.319  31.120  0.00  0.00    -0.181 NA
ATOM      7  C   UNL d   1      56.997  -0.326  31.415  0.00  0.00     0.281 C 
ATOM      8  O   UNL d   1      57.069  -1.064  31.055  0.00  0.00    -0.265 OA
BRANCH   7   9
ATOM      9  C   UNL d   1      56.513  -0.234  32.076  0.00  0.00     0.058 A 
ATOM     10  C   UNL d   1      56.275   0.518  32.311  0.00  0.00     0.007 A 
ATOM     11  C   UNL d   1      55.791   0.610  32.973  0.00  0.00     0.024 A 
ATOM     12  C   UNL d   1      55.544  -0.050  33.400  0.00  0.00     0.094 A 
ATOM     13  C   UNL d   1      55.783  -0.802  33.164  0.00  0.00     0.024 A 
ATOM     14  C   UNL d   1      56.267  -0.894  32.502  0.00  0.00     0.007 A 
BRANCH  12  15
ATOM     15  O   UNL d   1      55.060   0.042  34.061  0.00  0.00    -0.328 OA
ATOM     16  C   UNL d   1      55.303   0.517  34.687  0.00  0.00     0.181 C 
ENDBRANCH  12  15
ENDBRANCH   7   9
ENDBRANCH   2   6
BRANCH   3  17
ATOM     17  C   UNL d   1      59.654  -0.353  29.424  0.00  0.00     0.036 A 
ATOM     18  C   UNL d   1      59.699  -1.036  28.963  0.00  0.00     0.003 A 
ATOM     19  C   UNL d   1      60.441  -1.311  28.703  0.00  0.00     0.000 A 
ATOM     20  C   UNL d   1      61.133  -0.899  28.908  0.00  0.00     0.000 A 
ATOM     21  C   UNL d   1      61.078  -0.214  29.371  0.00  0.00     0.000 A 
ATOM     22  C   UNL d   1      60.345   0.058  29.628  0.00  0.00     0.003 A 
ENDBRANCH   3  17
TORSDOF 4
ENDMDL
MODEL 2
REMARK VINA RESULT:      -4.5      1.492      5.366
REMARK  4 active torsions:
REMARK  status: ('A' for Active; 'I' for Inactive)
REMARK    1  A    between atoms: N_5  and  C_2 
REMARK    2  A    between atoms: C_9  and  C_3 
REMARK       I    between atoms: C_7  and  N_5 
REMARK    3  A    between atoms: C_8  and  C_7 
REMARK    4  A    between atoms: O_16  and  C_13 
ROOT
ATOM      1  N   UNL d   1      56.572  -0.078  32.728  0.00  0.00    -0.200 NA
ATOM      2  C   UNL d   1      56.774  -0.604  32.133  0.00  0.00     0.216 A 
ATOM      3  C   UNL d   1      55.917  -0.376  33.127  0.00  0.00     0.172 A 
ATOM      4  N   UNL d   1      55.713  -1.093  32.774  0.00  0.00    -0.187 NA
ATOM      5  S   UNL d   1      56.244  -1.230  32.162  0.00  0.00     0.054 SA
ENDROOT
BRANCH   2   6
ATOM      6  N   UNL d   1      57.398  -0.520  31.600  0.00  0.00    -0.181 NA
ATOM      7  C   UNL d   1      57.387   0.095  31.059  0.00  0.00     0.281 C 
ATOM      8  O   UNL d   1      56.758   0.626  31.045  0.00  0.00    -0.265 OA
BRANCH   7   9
ATOM      9  C   UNL d   1      58.012   0.179  30.526  0.00  0.00     0.058 A 
ATOM     10  C   UNL d   1      57.960  -0.153  29.775  0.00  0.00     0.007 A 
ATOM     11  C   UNL d   1      58.584  -0.068  29.242  0.00  0.00     0.024 A 
ATOM     12  C   UNL d   1      59.260   0.348  29.461  0.00  0.00     0.094 A 
ATOM     13  C   UNL d   1      59.311   0.680  30.212  0.00  0.00     0.024 A 
ATOM     14  C   UNL d   1      58.687   0.595  30.745  0.00  0.00     0.007 A 
BRANCH  12  15
ATOM     15  O   UNL d   1      59.884   0.433  28.928  0.00  0.00    -0.328 OA
ATOM     16  C   UNL d   1      60.309  -0.228  28.682  0.00  0.00     0.181 C 
ENDBRANCH  12  15
ENDBRANCH   7   9
ENDBRANCH   2   6
BRANCH   3  17
ATOM     17  C   UNL d   1      55.534  -0.026  33.760  0.00  0.00     0.036 A 
ATOM     18  C   UNL d   1      55.969   0.222  34.416  0.00  0.00     0.003 A 
ATOM     19  C   UNL d   1      55.579   0.578  35.060  0.00  0.00     0.000 A 
ATOM     20  C   UNL d   1      54.755   0.682  35.042  0.00  0.00     0.000 A 
ATOM     21  C   UNL d   1      54.326   0.430  34.380  0.00  0.00     0.000 A 
ATOM     22  C   UNL d   1      54.711   0.078  33.743  0.00  0.00     0.003 A 
ENDBRANCH   3  17
TORSDOF 4
ENDMDL
