MODEL 1
REMARK VINA RESULT:      43.0      0.000      0.000
REMARK  5 active torsions:
REMARK  status: ('A' for Active; 'I' for Inactive)
REMARK    1  A    between atoms: C_15  and  C_4 
REMARK    2  A    between atoms: S_10  and  C_5 
REMARK    3  A    between atoms: C_17  and  S_10 
REMARK    4  A    between atoms: C_11  and  C_14 
REMARK    5  A    between atoms: C_14  and  C_17 
ROOT
ATOM      1  N   UNL d   1      46.346 -17.928  41.482  0.00  0.00    -0.206 N 
ATOM      2  C   UNL d   1      46.403 -18.533  42.041  0.00  0.00     0.166 A 
ATOM      3  N   UNL d   1      46.207 -16.989  42.520  0.00  0.00    -0.163 NA
ATOM      4  C   UNL d   1      46.363 -18.368  42.833  0.00  0.00     0.055 A 
ATOM      5  C   UNL d   1      46.389 -18.114  40.699  0.00  0.00     0.116 A 
ATOM      6  C   UNL d   1      46.263 -17.584  43.069  0.00  0.00     0.104 A 
ATOM      7  N   UNL d   1      46.502 -19.308  41.802  0.00  0.00    -0.227 NA
ATOM      8  C   UNL d   1      46.487 -18.882  40.443  0.00  0.00     0.045 A 
ATOM      9  C   UNL d   1      46.544 -19.484  40.998  0.00  0.00     0.085 A 
ATOM     10  C   UNL d   1      46.223 -17.423  43.858  0.00  0.00     0.023 C 
ATOM     11  C   UNL d   1      46.647 -20.292  40.748  0.00  0.00     0.021 C 
ENDROOT
BRANCH   5  12
ATOM     12  S   UNL d   1      46.330 -17.490  40.123  0.00  0.00    -0.064 SA
BRANCH  12  13
ATOM     13  C   UNL d   1      46.220 -17.084  39.392  0.00  0.00     0.079 C 
BRANCH  13  14
ATOM     14  C   UNL d   1      45.456 -17.087  39.021  0.00  0.00     0.202 C 
ATOM     15  O   UNL d   1      44.846 -17.585  39.327  0.00  0.00    -0.286 OA
BRANCH  14  16
ATOM     16  C   UNL d   1      45.308 -16.597  38.355  0.00  0.00     0.043 A 
ATOM     17  C   UNL d   1      44.554 -16.611  37.972  0.00  0.00     0.049 A 
ATOM     18  C   UNL d   1      44.409 -16.112  37.297  0.00  0.00     0.234 A 
ATOM     19  O   UNL d   1      43.648 -16.126  36.912  0.00  0.00    -0.283 OA
ATOM     20  C   UNL d   1      45.017 -15.605  37.009  0.00  0.00     0.234 A 
ATOM     21  C   UNL d   1      45.772 -15.586  37.385  0.00  0.00     0.045 A 
ATOM     22  O   UNL d   1      44.881 -15.109  36.340  0.00  0.00    -0.283 OA
ATOM     23  C   UNL d   1      45.917 -16.084  38.059  0.00  0.00     0.007 A 
ENDBRANCH  14  16
ENDBRANCH  13  14
ENDBRANCH  12  13
ENDBRANCH   5  12
BRANCH   4  24
ATOM     24  C   UNL d   1      46.419 -18.964  43.383  0.00  0.00     0.004 A 
ATOM     25  C   UNL d   1      46.466 -19.731  43.145  0.00  0.00     0.000 A 
ATOM     26  C   UNL d   1      46.522 -20.327  43.695  0.00  0.00     0.000 A 
ATOM     27  C   UNL d   1      46.531 -20.155  44.483  0.00  0.00     0.000 A 
ATOM     28  C   UNL d   1      46.483 -19.365  44.721  0.00  0.00     0.000 A 
ATOM     29  C   UNL d   1      46.428 -18.788  44.169  0.00  0.00     0.000 A 
ENDBRANCH   4  24
TORSDOF 5
ENDMDL
