MODEL 1
REMARK VINA RESULT:      -9.3      0.000      0.000
REMARK  1 active torsions:
REMARK  status: ('A' for Active; 'I' for Inactive)
REMARK    1  A    between atoms: C_8  and  C_3 
ROOT
ATOM      1  N   UNL d   1      54.694  32.739  53.736  0.00  0.00    -0.145 NA
ATOM      2  N   UNL d   1      55.132  33.315  54.151  0.00  0.00    -0.106 NA
ATOM      3  C   UNL d   1      54.059  32.369  54.101  0.00  0.00     0.103 A 
ATOM      4  C   UNL d   1      54.927  33.511  54.925  0.00  0.00     0.297 A 
ATOM      5  C   UNL d   1      53.857  32.571  54.883  0.00  0.00     0.026 A 
ATOM      6  C   UNL d   1      54.286  33.132  55.284  0.00  0.00     0.066 A 
ATOM      7  O   UNL d   1      55.358  34.076  55.329  0.00  0.00    -0.264 OA
ENDROOT
BRANCH   3   8
ATOM      8  C   UNL d   1      53.622  31.803  53.708  0.00  0.00     0.019 A 
ATOM      9  C   UNL d   1      52.997  32.050  53.217  0.00  0.00     0.002 A 
ATOM     10  C   UNL d   1      52.548  31.482  52.814  0.00  0.00     0.000 A 
ATOM     11  C   UNL d   1      52.723  30.678  52.902  0.00  0.00     0.000 A 
ATOM     12  C   UNL d   1      53.342  30.437  53.389  0.00  0.00     0.000 A 
ATOM     13  C   UNL d   1      53.787  31.005  53.789  0.00  0.00     0.002 A 
ENDBRANCH   3   8
TORSDOF 1
ENDMDL
MODEL 2
REMARK VINA RESULT:      -9.1      1.824      3.138
REMARK  1 active torsions:
REMARK  status: ('A' for Active; 'I' for Inactive)
REMARK    1  A    between atoms: C_8  and  C_3 
ROOT
ATOM      1  N   UNL d   1      53.149  32.075  53.160  0.00  0.00    -0.145 NA
ATOM      2  N   UNL d   1      52.741  31.470  52.755  0.00  0.00    -0.106 NA
ATOM      3  C   UNL d   1      53.694  31.881  53.741  0.00  0.00     0.103 A 
ATOM      4  C   UNL d   1      52.887  30.680  52.939  0.00  0.00     0.297 A 
ATOM      5  C   UNL d   1      53.837  31.081  53.922  0.00  0.00     0.026 A 
ATOM      6  C   UNL d   1      53.439  30.495  53.525  0.00  0.00     0.066 A 
ATOM      7  O   UNL d   1      52.487  30.090  52.540  0.00  0.00    -0.264 OA
ENDROOT
BRANCH   3   8
ATOM      8  C   UNL d   1      54.100  32.462  54.145  0.00  0.00     0.019 A 
ATOM      9  C   UNL d   1      54.695  32.886  53.747  0.00  0.00     0.002 A 
ATOM     10  C   UNL d   1      55.112  33.478  54.151  0.00  0.00     0.000 A 
ATOM     11  C   UNL d   1      54.935  33.642  54.943  0.00  0.00     0.000 A 
ATOM     12  C   UNL d   1      54.345  33.220  55.334  0.00  0.00     0.000 A 
ATOM     13  C   UNL d   1      53.932  32.631  54.929  0.00  0.00     0.002 A 
ENDBRANCH   3   8
TORSDOF 1
ENDMDL
MODEL 3
REMARK VINA RESULT:      -8.5      1.900      2.145
REMARK  1 active torsions:
REMARK  status: ('A' for Active; 'I' for Inactive)
REMARK    1  A    between atoms: C_8  and  C_3 
ROOT
ATOM      1  N   UNL d   1      53.353  33.983  54.744  0.00  0.00    -0.145 NA
ATOM      2  N   UNL d   1      53.288  34.781  54.979  0.00  0.00    -0.106 NA
ATOM      3  C   UNL d   1      53.148  33.765  53.980  0.00  0.00     0.103 A 
ATOM      4  C   UNL d   1      53.019  35.348  54.445  0.00  0.00     0.297 A 
ATOM      5  C   UNL d   1      52.878  34.343  53.446  0.00  0.00     0.026 A 
ATOM      6  C   UNL d   1      52.816  35.118  53.678  0.00  0.00     0.066 A 
ATOM      7  O   UNL d   1      52.957  36.128  54.679  0.00  0.00    -0.264 OA
ENDROOT
BRANCH   3   8
ATOM      8  C   UNL d   1      53.207  32.989  53.736  0.00  0.00     0.019 A 
ATOM      9  C   UNL d   1      53.871  32.546  53.967  0.00  0.00     0.002 A 
ATOM     10  C   UNL d   1      53.939  31.756  53.724  0.00  0.00     0.000 A 
ATOM     11  C   UNL d   1      53.346  31.416  53.255  0.00  0.00     0.000 A 
ATOM     12  C   UNL d   1      52.689  31.859  53.028  0.00  0.00     0.000 A 
ATOM     13  C   UNL d   1      52.626  32.644  53.273  0.00  0.00     0.002 A 
ENDBRANCH   3   8
TORSDOF 1
ENDMDL
MODEL 4
REMARK VINA RESULT:      -8.4      1.852      2.318
REMARK  1 active torsions:
REMARK  status: ('A' for Active; 'I' for Inactive)
REMARK    1  A    between atoms: C_8  and  C_3 
ROOT
ATOM      1  N   UNL d   1      53.490  34.486  54.723  0.00  0.00    -0.145 NA
ATOM      2  N   UNL d   1      54.182  34.449  55.187  0.00  0.00    -0.106 NA
ATOM      3  C   UNL d   1      53.352  33.915  54.150  0.00  0.00     0.103 A 
ATOM      4  C   UNL d   1      54.725  33.840  55.069  0.00  0.00     0.297 A 
ATOM      5  C   UNL d   1      53.904  33.303  54.037  0.00  0.00     0.026 A 
ATOM      6  C   UNL d   1      54.578  33.270  54.490  0.00  0.00     0.066 A 
ATOM      7  O   UNL d   1      55.403  33.807  55.525  0.00  0.00    -0.264 OA
ENDROOT
BRANCH   3   8
ATOM      8  C   UNL d   1      52.679  33.938  53.689  0.00  0.00     0.019 A 
ATOM      9  C   UNL d   1      52.606  34.537  53.117  0.00  0.00     0.002 A 
ATOM     10  C   UNL d   1      51.926  34.568  52.645  0.00  0.00     0.000 A 
ATOM     11  C   UNL d   1      51.327  34.005  52.745  0.00  0.00     0.000 A 
ATOM     12  C   UNL d   1      51.403  33.413  53.313  0.00  0.00     0.000 A 
ATOM     13  C   UNL d   1      52.081  33.386  53.782  0.00  0.00     0.002 A 
ENDBRANCH   3   8
TORSDOF 1
ENDMDL
MODEL 5
REMARK VINA RESULT:      -8.4      2.522      3.372
REMARK  1 active torsions:
REMARK  status: ('A' for Active; 'I' for Inactive)
REMARK    1  A    between atoms: C_8  and  C_3 
ROOT
ATOM      1  N   UNL d   1      51.928  33.147  53.668  0.00  0.00    -0.145 NA
ATOM      2  N   UNL d   1      51.193  33.337  53.322  0.00  0.00    -0.106 NA
ATOM      3  C   UNL d   1      52.557  33.669  53.599  0.00  0.00     0.103 A 
ATOM      4  C   UNL d   1      51.100  34.047  52.913  0.00  0.00     0.297 A 
ATOM      5  C   UNL d   1      52.457  34.384  53.184  0.00  0.00     0.026 A 
ATOM      6  C   UNL d   1      51.740  34.566  52.849  0.00  0.00     0.066 A 
ATOM      7  O   UNL d   1      50.379  34.230  52.576  0.00  0.00    -0.264 OA
ENDROOT
BRANCH   3   8
ATOM      8  C   UNL d   1      53.282  33.496  53.931  0.00  0.00     0.019 A 
ATOM      9  C   UNL d   1      53.472  33.827  54.671  0.00  0.00     0.002 A 
ATOM     10  C   UNL d   1      54.206  33.657  55.016  0.00  0.00     0.000 A 
ATOM     11  C   UNL d   1      54.742  33.162  54.624  0.00  0.00     0.000 A 
ATOM     12  C   UNL d   1      54.551  32.836  53.892  0.00  0.00     0.000 A 
ATOM     13  C   UNL d   1      53.819  33.008  53.552  0.00  0.00     0.002 A 
ENDBRANCH   3   8
TORSDOF 1
ENDMDL
MODEL 6
REMARK VINA RESULT:      -8.2      2.253      3.164
REMARK  1 active torsions:
REMARK  status: ('A' for Active; 'I' for Inactive)
REMARK    1  A    between atoms: C_8  and  C_3 
ROOT
ATOM      1  N   UNL d   1      52.550  32.348  52.793  0.00  0.00    -0.145 NA
ATOM      2  N   UNL d   1      52.584  31.535  52.608  0.00  0.00    -0.106 NA
ATOM      3  C   UNL d   1      53.014  32.647  53.400  0.00  0.00     0.103 A 
ATOM      4  C   UNL d   1      53.082  31.036  53.034  0.00  0.00     0.297 A 
ATOM      5  C   UNL d   1      53.515  32.137  53.826  0.00  0.00     0.026 A 
ATOM      6  C   UNL d   1      53.545  31.347  53.643  0.00  0.00     0.066 A 
ATOM      7  O   UNL d   1      53.113  30.240  52.850  0.00  0.00    -0.264 OA
ENDROOT
BRANCH   3   8
ATOM      8  C   UNL d   1      52.991  33.440  53.592  0.00  0.00     0.019 A 
ATOM      9  C   UNL d   1      52.617  33.968  53.069  0.00  0.00     0.002 A 
ATOM     10  C   UNL d   1      52.590  34.775  53.257  0.00  0.00     0.000 A 
ATOM     11  C   UNL d   1      52.933  35.048  53.960  0.00  0.00     0.000 A 
ATOM     12  C   UNL d   1      53.302  34.522  54.475  0.00  0.00     0.000 A 
ATOM     13  C   UNL d   1      53.327  33.719  54.284  0.00  0.00     0.002 A 
ENDBRANCH   3   8
TORSDOF 1
ENDMDL
