MODEL 1
REMARK VINA RESULT:      61.6      0.000      0.000
REMARK  4 active torsions:
REMARK  status: ('A' for Active; 'I' for Inactive)
REMARK       I    between atoms: C_3  and  N_1 
REMARK    1  A    between atoms: C_5  and  N_2 
REMARK    2  A    between atoms: C_4  and  C_3 
REMARK    3  A    between atoms: C_7  and  C_4 
REMARK    4  A    between atoms: C_13  and  C_7 
ROOT
ATOM      1  N   UNL d   1     -48.597  28.661  34.876  0.00  0.00    -0.269 N 
ATOM      2  N   UNL d   1     -49.547  27.456  34.256  0.00  0.00    -0.301 N 
ATOM      3  C   UNL d   1     -48.125  29.253  35.192  0.00  0.00     0.265 C 
ATOM      4  C   UNL d   1     -48.738  27.965  35.318  0.00  0.00     0.102 A 
ATOM      5  C   UNL d   1     -48.936  28.741  34.129  0.00  0.00     0.102 A 
ATOM      6  C   UNL d   1     -49.213  27.363  35.006  0.00  0.00     0.100 A 
ATOM      7  C   UNL d   1     -49.410  28.145  33.815  0.00  0.00     0.100 A 
ATOM      8  O   UNL d   1     -47.789  29.172  35.934  0.00  0.00    -0.267 OA
ENDROOT
BRANCH   3   9
ATOM      9  C   UNL d   1     -47.985  29.944  34.755  0.00  0.00     0.061 C 
BRANCH   9  10
ATOM     10  C   UNL d   1     -47.693  30.621  35.129  0.00  0.00     0.005 C 
BRANCH  10  11
ATOM     11  C   UNL d   1     -47.707  31.343  34.739  0.00  0.00     0.000 A 
ATOM     12  C   UNL d   1     -47.129  31.901  34.905  0.00  0.00     0.002 A 
ATOM     13  C   UNL d   1     -47.137  32.628  34.516  0.00  0.00     0.030 A 
ATOM     14  C   UNL d   1     -47.732  32.789  33.959  0.00  0.00     0.140 A 
ATOM     15  C   UNL d   1     -48.303  32.223  33.801  0.00  0.00     0.030 A 
ATOM     16  F   UNL d   1     -47.740  33.515  33.570  0.00  0.00    -0.204 F 
ATOM     17  C   UNL d   1     -48.289  31.501  34.192  0.00  0.00     0.002 A 
ENDBRANCH  10  11
ENDBRANCH   9  10
ENDBRANCH   3   9
BRANCH   2  18
ATOM     18  C   UNL d   1     -50.022  26.857  33.941  0.00  0.00     0.065 A 
ATOM     19  C   UNL d   1     -50.821  27.004  33.786  0.00  0.00     0.029 A 
ATOM     20  C   UNL d   1     -51.298  26.410  33.472  0.00  0.00     0.059 A 
ATOM     21 CL   UNL d   1     -52.096  26.559  33.317  0.00  0.00    -0.082 Cl
ATOM     22  C   UNL d   1     -50.978  25.664  33.311  0.00  0.00     0.011 A 
ATOM     23  C   UNL d   1     -50.176  25.522  33.468  0.00  0.00     0.002 A 
ATOM     24  C   UNL d   1     -49.697  26.119  33.784  0.00  0.00     0.018 A 
ENDBRANCH   2  18
TORSDOF 4
ENDMDL
MODEL 2
REMARK VINA RESULT:      64.0      2.634      5.569
REMARK  4 active torsions:
REMARK  status: ('A' for Active; 'I' for Inactive)
REMARK       I    between atoms: C_3  and  N_1 
REMARK    1  A    between atoms: C_5  and  N_2 
REMARK    2  A    between atoms: C_4  and  C_3 
REMARK    3  A    between atoms: C_7  and  C_4 
REMARK    4  A    between atoms: C_13  and  C_7 
ROOT
ATOM      1  N   UNL d   1     -48.566  28.273  34.381  0.00  0.00    -0.269 N 
ATOM      2  N   UNL d   1     -48.047  29.789  34.795  0.00  0.00    -0.301 N 
ATOM      3  C   UNL d   1     -48.814  27.518  34.179  0.00  0.00     0.265 C 
ATOM      4  C   UNL d   1     -47.833  28.377  34.770  0.00  0.00     0.102 A 
ATOM      5  C   UNL d   1     -49.027  28.933  34.206  0.00  0.00     0.102 A 
ATOM      6  C   UNL d   1     -47.574  29.136  34.977  0.00  0.00     0.100 A 
ATOM      7  C   UNL d   1     -48.774  29.690  34.409  0.00  0.00     0.100 A 
ATOM      8  O   UNL d   1     -48.355  26.863  34.354  0.00  0.00    -0.267 OA
ENDROOT
BRANCH   3   9
ATOM      9  C   UNL d   1     -49.541  27.414  33.794  0.00  0.00     0.061 C 
BRANCH   9  10
ATOM     10  C   UNL d   1     -49.678  26.735  33.341  0.00  0.00     0.005 C 
BRANCH  10  11
ATOM     11  C   UNL d   1     -50.424  26.393  33.332  0.00  0.00     0.000 A 
ATOM     12  C   UNL d   1     -50.491  25.575  33.316  0.00  0.00     0.002 A 
ATOM     13  C   UNL d   1     -51.237  25.225  33.308  0.00  0.00     0.030 A 
ATOM     14  C   UNL d   1     -51.915  25.704  33.315  0.00  0.00     0.140 A 
ATOM     15  C   UNL d   1     -51.836  26.519  33.331  0.00  0.00     0.030 A 
ATOM     16  F   UNL d   1     -52.662  25.353  33.307  0.00  0.00    -0.204 F 
ATOM     17  C   UNL d   1     -51.090  26.861  33.339  0.00  0.00     0.002 A 
ENDBRANCH  10  11
ENDBRANCH   9  10
ENDBRANCH   3   9
BRANCH   2  18
ATOM     18  C   UNL d   1     -47.792  30.549  35.000  0.00  0.00     0.065 A 
ATOM     19  C   UNL d   1     -47.880  31.170  34.462  0.00  0.00     0.029 A 
ATOM     20  C   UNL d   1     -47.628  31.929  34.662  0.00  0.00     0.059 A 
ATOM     21 CL   UNL d   1     -47.716  32.550  34.124  0.00  0.00    -0.082 Cl
ATOM     22  C   UNL d   1     -47.287  32.071  35.402  0.00  0.00     0.011 A 
ATOM     23  C   UNL d   1     -47.202  31.443  35.938  0.00  0.00     0.002 A 
ATOM     24  C   UNL d   1     -47.455  30.681  35.737  0.00  0.00     0.018 A 
ENDBRANCH   2  18
TORSDOF 4
ENDMDL
