MODEL 1
REMARK VINA RESULT:      -4.2      0.000      0.000
REMARK  5 active torsions:
REMARK  status: ('A' for Active; 'I' for Inactive)
REMARK       I    between atoms: N_2  and  C_1 
REMARK    1  A    between atoms: C_11  and  C_1 
REMARK    2  A    between atoms: C_4  and  N_2 
REMARK    3  A    between atoms: C_3  and  C_4 
REMARK    4  A    between atoms: C_5  and  C_3 
REMARK    5  A    between atoms: N_6  and  C_3 
ROOT
ATOM      1  C   UNL d   1      58.899  -0.424  29.592  0.00  0.00     0.088 C 
ENDROOT
BRANCH   1   2
ATOM      2  C   UNL d   1      58.248  -0.032  29.913  0.00  0.00     0.101 C 
ATOM      3  C   UNL d   1      57.887   0.572  29.492  0.00  0.00     0.022 C 
BRANCH   2   4
ATOM      4  N   UNL d   1      57.968  -0.252  30.655  0.00  0.00    -0.206 NA
ATOM      5  C   UNL d   1      57.285   0.107  30.963  0.00  0.00     0.279 C 
ATOM      6  O   UNL d   1      56.894   0.682  30.521  0.00  0.00    -0.265 OA
BRANCH   5   7
ATOM      7  C   UNL d   1      57.005  -0.114  31.705  0.00  0.00     0.058 A 
ATOM      8  C   UNL d   1      56.593  -0.829  31.805  0.00  0.00     0.005 A 
ATOM      9  C   UNL d   1      56.318  -1.038  32.549  0.00  0.00     0.000 A 
ATOM     10  C   UNL d   1      56.448  -0.543  33.203  0.00  0.00     0.000 A 
ATOM     11  C   UNL d   1      56.856   0.164  33.098  0.00  0.00     0.000 A 
ATOM     12  C   UNL d   1      57.136   0.381  32.351  0.00  0.00     0.005 A 
ENDBRANCH   5   7
ENDBRANCH   2   4
ENDBRANCH   1   2
BRANCH   1  13
ATOM     13  C   UNL d   1      58.814  -1.186  29.286  0.00  0.00     0.047 A 
ATOM     14  S   UNL d   1      58.575  -1.386  28.517  0.00  0.00    -0.085 SA
ATOM     15  C   UNL d   1      58.567  -2.208  28.455  0.00  0.00     0.035 A 
ATOM     16  C   UNL d   1      58.800  -2.531  29.181  0.00  0.00     0.007 A 
ATOM     17  C   UNL d   1      58.955  -1.897  29.702  0.00  0.00     0.009 A 
ENDBRANCH   1  13
BRANCH   1  18
ATOM     18  N   UNL d   1      59.644  -0.056  29.574  0.00  0.00    -0.299 N 
ATOM     19  C   UNL d   1      59.942   0.233  28.869  0.00  0.00     0.107 A 
ATOM     20  C   UNL d   1      60.679   0.599  28.841  0.00  0.00     0.142 A 
ATOM     21  O   UNL d   1      61.133   0.682  29.535  0.00  0.00    -0.300 OA
ATOM     22  C   UNL d   1      60.827   0.387  30.251  0.00  0.00     0.142 A 
ATOM     23  C   UNL d   1      60.086   0.021  30.270  0.00  0.00     0.107 A 
ENDBRANCH   1  18
TORSDOF 5
ENDMDL
MODEL 2
REMARK VINA RESULT:      -4.0      1.131      2.050
REMARK  5 active torsions:
REMARK  status: ('A' for Active; 'I' for Inactive)
REMARK       I    between atoms: N_2  and  C_1 
REMARK    1  A    between atoms: C_11  and  C_1 
REMARK    2  A    between atoms: C_4  and  N_2 
REMARK    3  A    between atoms: C_3  and  C_4 
REMARK    4  A    between atoms: C_5  and  C_3 
REMARK    5  A    between atoms: N_6  and  C_3 
ROOT
ATOM      1  C   UNL d   1      59.218  -0.467  29.424  0.00  0.00     0.088 C 
ENDROOT
BRANCH   1   2
ATOM      2  C   UNL d   1      58.526  -0.091  29.668  0.00  0.00     0.101 C 
ATOM      3  C   UNL d   1      58.117   0.391  29.145  0.00  0.00     0.022 C 
BRANCH   2   4
ATOM      4  N   UNL d   1      58.252  -0.205  30.435  0.00  0.00    -0.206 NA
ATOM      5  C   UNL d   1      57.564   0.184  30.691  0.00  0.00     0.279 C 
ATOM      6  O   UNL d   1      57.161   0.682  30.172  0.00  0.00    -0.265 OA
BRANCH   5   7
ATOM      7  C   UNL d   1      57.289   0.070  31.460  0.00  0.00     0.058 A 
ATOM      8  C   UNL d   1      56.793  -0.572  31.640  0.00  0.00     0.005 A 
ATOM      9  C   UNL d   1      56.526  -0.676  32.408  0.00  0.00     0.000 A 
ATOM     10  C   UNL d   1      56.747  -0.146  33.008  0.00  0.00     0.000 A 
ATOM     11  C   UNL d   1      57.239   0.489  32.824  0.00  0.00     0.000 A 
ATOM     12  C   UNL d   1      57.511   0.599  32.052  0.00  0.00     0.005 A 
ENDBRANCH   5   7
ENDBRANCH   2   4
ENDBRANCH   1   2
BRANCH   1  13
ATOM     13  C   UNL d   1      59.916  -0.034  29.337  0.00  0.00     0.047 A 
ATOM     14  S   UNL d   1      60.206   0.301  28.637  0.00  0.00    -0.085 SA
ATOM     15  C   UNL d   1      60.917   0.682  28.808  0.00  0.00     0.035 A 
ATOM     16  C   UNL d   1      61.080   0.590  29.614  0.00  0.00     0.007 A 
ATOM     17  C   UNL d   1      60.458   0.144  29.949  0.00  0.00     0.009 A 
ENDBRANCH   1  13
BRANCH   1  18
ATOM     18  N   UNL d   1      59.219  -1.282  29.263  0.00  0.00    -0.299 N 
ATOM     19  C   UNL d   1      58.794  -1.575  28.628  0.00  0.00     0.107 A 
ATOM     20  C   UNL d   1      58.788  -2.382  28.461  0.00  0.00     0.142 A 
ATOM     21  O   UNL d   1      59.217  -2.913  28.939  0.00  0.00    -0.300 OA
ATOM     22  C   UNL d   1      59.648  -2.612  29.585  0.00  0.00     0.142 A 
ATOM     23  C   UNL d   1      59.648  -1.800  29.746  0.00  0.00     0.107 A 
ENDBRANCH   1  18
TORSDOF 5
ENDMDL
