MODEL 1
REMARK VINA RESULT:      40.7      0.000      0.000
REMARK  6 active torsions:
REMARK  status: ('A' for Active; 'I' for Inactive)
REMARK    1  A    between atoms: C_4  and  C_1 
REMARK    2  A    between atoms: C_13  and  N_3 
REMARK    3  A    between atoms: C_11  and  N_5 
REMARK    4  A    between atoms: C_16  and  C_13 
REMARK    5  A    between atoms: O_14  and  C_16 
REMARK    6  A    between atoms: C_15  and  O_14 
ROOT
ATOM      1  C   UNL d   1      13.574  12.417  -3.013  0.00  0.00     0.149 A 
ATOM      2  N   UNL d   1      13.512  11.801  -3.562  0.00  0.00    -0.227 NA
ATOM      3  N   UNL d   1      13.387  13.134  -3.405  0.00  0.00    -0.287 N 
ATOM      4  C   UNL d   1      13.212  12.947  -4.197  0.00  0.00     0.083 A 
ATOM      5  C   UNL d   1      13.287  12.129  -4.298  0.00  0.00     0.099 A 
ATOM      6  C   UNL d   1      12.991  13.425  -4.842  0.00  0.00     0.019 A 
ATOM      7  C   UNL d   1      13.146  11.783  -5.030  0.00  0.00     0.021 A 
ATOM      8  C   UNL d   1      12.850  13.071  -5.580  0.00  0.00     0.002 A 
ATOM      9  C   UNL d   1      12.927  12.252  -5.674  0.00  0.00     0.002 A 
ENDROOT
BRANCH   1  10
ATOM     10  C   UNL d   1      13.782  12.346  -2.219  0.00  0.00     0.057 A 
ATOM     11  C   UNL d   1      14.486  12.593  -1.877  0.00  0.00     0.081 A 
ATOM     12  N   UNL d   1      14.454  12.411  -1.068  0.00  0.00    -0.298 N 
ATOM     13  C   UNL d   1      13.729  12.051  -0.916  0.00  0.00     0.261 A 
ATOM     14  C   UNL d   1      13.311  12.010  -1.626  0.00  0.00     0.065 A 
ATOM     15  O   UNL d   1      13.469  11.782  -0.185  0.00  0.00    -0.267 OA
BRANCH  12  16
ATOM     16  C   UNL d   1      15.048  12.564  -0.516  0.00  0.00     0.071 C 
ATOM     17  C   UNL d   1      15.314  11.954  -0.029  0.00  0.00     0.023 C 
ATOM     18  C   UNL d   1      15.633  12.838  -0.014  0.00  0.00     0.023 C 
ATOM     19  C   UNL d   1      15.366  13.316  -0.455  0.00  0.00     0.023 C 
ENDBRANCH  12  16
ENDBRANCH   1  10
BRANCH   3  20
ATOM     20  C   UNL d   1      13.380  13.881  -3.069  0.00  0.00     0.108 C 
BRANCH  20  21
ATOM     21  C   UNL d   1      13.698  14.526  -3.480  0.00  0.00     0.142 C 
BRANCH  21  22
ATOM     22  O   UNL d   1      13.948  15.193  -3.077  0.00  0.00    -0.304 OA
BRANCH  22  23
ATOM     23  C   UNL d   1      14.396  15.763  -3.477  0.00  0.00     0.100 A 
ATOM     24  C   UNL d   1      14.798  16.334  -3.036  0.00  0.00     0.025 A 
ATOM     25  C   UNL d   1      15.246  16.905  -3.435  0.00  0.00     0.002 A 
ATOM     26  C   UNL d   1      15.290  16.903  -4.256  0.00  0.00     0.000 A 
ATOM     27  C   UNL d   1      14.881  16.322  -4.685  0.00  0.00     0.002 A 
ATOM     28  C   UNL d   1      14.435  15.755  -4.289  0.00  0.00     0.025 A 
ENDBRANCH  22  23
ENDBRANCH  21  22
ENDBRANCH  20  21
ENDBRANCH   3  20
TORSDOF 6
ENDMDL
