MODEL 1
REMARK VINA RESULT:      -4.7      0.000      0.000
REMARK  4 active torsions:
REMARK  status: ('A' for Active; 'I' for Inactive)
REMARK    1  A    between atoms: C_4  and  C_10 
REMARK    2  A    between atoms: C_18  and  C_7 
REMARK       I    between atoms: C_10  and  N_17 
REMARK    3  A    between atoms: N_17  and  C_20 
REMARK    4  A    between atoms: C_20  and  C_18 
ROOT
ATOM      1  C   UNL d   1      57.754   0.199  30.198  0.00  0.00     0.042 C 
ENDROOT
BRANCH   1   2
ATOM      2  C   UNL d   1      57.505   0.150  30.988  0.00  0.00     0.102 A 
ATOM      3  N   UNL d   1      56.982  -0.402  31.291  0.00  0.00    -0.227 NA
ATOM      4  C   UNL d   1      56.884  -0.260  32.090  0.00  0.00     0.148 A 
ATOM      5  N   UNL d   1      57.350   0.391  32.294  0.00  0.00    -0.288 N 
ATOM      6  C   UNL d   1      56.433  -0.629  32.673  0.00  0.00     0.035 A 
ATOM      7  C   UNL d   1      57.737   0.645  31.605  0.00  0.00     0.101 A 
ATOM      8  C   UNL d   1      57.368   0.669  33.068  0.00  0.00     0.082 A 
ATOM      9  C   UNL d   1      56.918   0.298  33.643  0.00  0.00     0.019 A 
ATOM     10  C   UNL d   1      56.444  -0.358  33.448  0.00  0.00     0.004 A 
ATOM     11  C   UNL d   1      55.957  -1.288  32.479  0.00  0.00     0.003 C 
ENDBRANCH   1   2
BRANCH   1  12
ATOM     12  C   UNL d   1      58.456  -0.171  29.961  0.00  0.00     0.104 C 
BRANCH  12  13
ATOM     13  N   UNL d   1      58.981   0.220  29.469  0.00  0.00    -0.205 NA
ATOM     14  C   UNL d   1      59.501  -0.210  28.989  0.00  0.00     0.302 C 
ATOM     15  O   UNL d   1      60.020   0.184  28.503  0.00  0.00    -0.263 OA
BRANCH  14  16
ATOM     16  C   UNL d   1      59.485  -1.036  29.011  0.00  0.00     0.158 A 
ATOM     17  O   UNL d   1      58.916  -1.586  28.794  0.00  0.00    -0.296 OA
ATOM     18  C   UNL d   1      59.213  -2.343  28.943  0.00  0.00     0.134 A 
ATOM     19 BR   UNL d   1      58.841  -3.069  28.814  0.00  0.00    -0.022 Br
ATOM     20  C   UNL d   1      59.962  -2.241  29.250  0.00  0.00     0.034 A 
ATOM     21  C   UNL d   1      60.141  -1.445  29.297  0.00  0.00     0.032 A 
ENDBRANCH  14  16
ENDBRANCH  12  13
ENDBRANCH   1  12
TORSDOF 4
ENDMDL
MODEL 2
REMARK VINA RESULT:      -4.1      1.546      1.772
REMARK  4 active torsions:
REMARK  status: ('A' for Active; 'I' for Inactive)
REMARK    1  A    between atoms: C_4  and  C_10 
REMARK    2  A    between atoms: C_18  and  C_7 
REMARK       I    between atoms: C_10  and  N_17 
REMARK    3  A    between atoms: N_17  and  C_20 
REMARK    4  A    between atoms: C_20  and  C_18 
ROOT
ATOM      1  C   UNL d   1      57.581  -0.779  30.836  0.00  0.00     0.042 C 
ENDROOT
BRANCH   1   2
ATOM      2  C   UNL d   1      57.106  -0.583  31.488  0.00  0.00     0.102 A 
ATOM      3  N   UNL d   1      56.669  -1.112  31.936  0.00  0.00    -0.227 NA
ATOM      4  C   UNL d   1      56.281  -0.698  32.524  0.00  0.00     0.148 A 
ATOM      5  N   UNL d   1      56.476   0.101  32.447  0.00  0.00    -0.288 N 
ATOM      6  C   UNL d   1      55.771  -0.930  33.129  0.00  0.00     0.035 A 
ATOM      7  C   UNL d   1      56.991   0.170  31.800  0.00  0.00     0.101 A 
ATOM      8  C   UNL d   1      56.168   0.661  32.965  0.00  0.00     0.082 A 
ATOM      9  C   UNL d   1      55.662   0.424  33.564  0.00  0.00     0.019 A 
ATOM     10  C   UNL d   1      55.459  -0.379  33.651  0.00  0.00     0.004 A 
ATOM     11  C   UNL d   1      55.566  -1.736  33.217  0.00  0.00     0.003 C 
ENDBRANCH   1   2
BRANCH   1  12
ATOM     12  C   UNL d   1      58.069  -0.204  30.492  0.00  0.00     0.104 C 
BRANCH  12  13
ATOM     13  N   UNL d   1      57.967   0.005  29.706  0.00  0.00    -0.205 NA
ATOM     14  C   UNL d   1      58.621   0.214  29.243  0.00  0.00     0.302 C 
ATOM     15  O   UNL d   1      58.513   0.420  28.464  0.00  0.00    -0.263 OA
BRANCH  14  16
ATOM     16  C   UNL d   1      59.376   0.211  29.580  0.00  0.00     0.158 A 
ATOM     17  O   UNL d   1      59.711   0.640  30.194  0.00  0.00    -0.296 OA
ATOM     18  C   UNL d   1      60.495   0.396  30.285  0.00  0.00     0.134 A 
ATOM     19 BR   UNL d   1      61.052   0.670  30.831  0.00  0.00    -0.022 Br
ATOM     20  C   UNL d   1      60.625  -0.181  29.723  0.00  0.00     0.034 A 
ATOM     21  C   UNL d   1      59.948  -0.304  29.284  0.00  0.00     0.032 A 
ENDBRANCH  14  16
ENDBRANCH  12  13
ENDBRANCH   1  12
TORSDOF 4
ENDMDL
MODEL 3
REMARK VINA RESULT:      -3.8      2.536      4.711
REMARK  4 active torsions:
REMARK  status: ('A' for Active; 'I' for Inactive)
REMARK    1  A    between atoms: C_4  and  C_10 
REMARK    2  A    between atoms: C_18  and  C_7 
REMARK       I    between atoms: C_10  and  N_17 
REMARK    3  A    between atoms: N_17  and  C_20 
REMARK    4  A    between atoms: C_20  and  C_18 
ROOT
ATOM      1  C   UNL d   1      57.063   0.089  31.062  0.00  0.00     0.042 C 
ENDROOT
BRANCH   1   2
ATOM      2  C   UNL d   1      57.793   0.069  30.667  0.00  0.00     0.102 A 
ATOM      3  N   UNL d   1      57.975  -0.404  30.024  0.00  0.00    -0.227 NA
ATOM      4  C   UNL d   1      58.748  -0.257  29.801  0.00  0.00     0.148 A 
ATOM      5  N   UNL d   1      59.057   0.315  30.310  0.00  0.00    -0.288 N 
ATOM      6  C   UNL d   1      59.226  -0.562  29.202  0.00  0.00     0.035 A 
ATOM      7  C   UNL d   1      58.460   0.517  30.849  0.00  0.00     0.101 A 
ATOM      8  C   UNL d   1      59.831   0.580  30.223  0.00  0.00     0.082 A 
ATOM      9  C   UNL d   1      60.301   0.273  29.627  0.00  0.00     0.019 A 
ATOM     10  C   UNL d   1      59.999  -0.304  29.109  0.00  0.00     0.004 A 
ATOM     11  C   UNL d   1      58.923  -1.142  28.681  0.00  0.00     0.003 C 
ENDBRANCH   1   2
BRANCH   1  12
ATOM     12  C   UNL d   1      56.989  -0.256  31.812  0.00  0.00     0.104 C 
BRANCH  12  13
ATOM     13  N   UNL d   1      56.671  -1.007  31.888  0.00  0.00    -0.205 NA
ATOM     14  C   UNL d   1      56.202  -1.195  32.544  0.00  0.00     0.302 C 
ATOM     15  O   UNL d   1      55.890  -1.943  32.614  0.00  0.00    -0.263 OA
BRANCH  14  16
ATOM     16  C   UNL d   1      56.056  -0.620  33.119  0.00  0.00     0.158 A 
ATOM     17  O   UNL d   1      56.499  -0.344  33.752  0.00  0.00    -0.296 OA
ATOM     18  C   UNL d   1      56.065   0.243  34.139  0.00  0.00     0.134 A 
ATOM     19 BR   UNL d   1      56.283   0.681  34.805  0.00  0.00    -0.022 Br
ATOM     20  C   UNL d   1      55.361   0.315  33.733  0.00  0.00     0.034 A 
ATOM     21  C   UNL d   1      55.342  -0.207  33.106  0.00  0.00     0.032 A 
ENDBRANCH  14  16
ENDBRANCH  12  13
ENDBRANCH   1  12
TORSDOF 4
ENDMDL
MODEL 4
REMARK VINA RESULT:      -2.9      2.108      4.447
REMARK  4 active torsions:
REMARK  status: ('A' for Active; 'I' for Inactive)
REMARK    1  A    between atoms: C_4  and  C_10 
REMARK    2  A    between atoms: C_18  and  C_7 
REMARK       I    between atoms: C_10  and  N_17 
REMARK    3  A    between atoms: N_17  and  C_20 
REMARK    4  A    between atoms: C_20  and  C_18 
ROOT
ATOM      1  C   UNL d   1      57.464   0.157  30.635  0.00  0.00     0.042 C 
ENDROOT
BRANCH   1   2
ATOM      2  C   UNL d   1      58.037  -0.197  30.149  0.00  0.00     0.102 A 
ATOM      3  N   UNL d   1      58.084  -0.995  29.970  0.00  0.00    -0.227 NA
ATOM      4  C   UNL d   1      58.724  -1.114  29.476  0.00  0.00     0.148 A 
ATOM      5  N   UNL d   1      59.085  -0.383  29.341  0.00  0.00    -0.288 N 
ATOM      6  C   UNL d   1      59.040  -1.789  29.121  0.00  0.00     0.035 A 
ATOM      7  C   UNL d   1      58.654   0.187  29.762  0.00  0.00     0.101 A 
ATOM      8  C   UNL d   1      59.750  -0.325  28.860  0.00  0.00     0.082 A 
ATOM      9  C   UNL d   1      60.058  -0.999  28.511  0.00  0.00     0.019 A 
ATOM     10  C   UNL d   1      59.703  -1.740  28.640  0.00  0.00     0.004 A 
ATOM     11  C   UNL d   1      58.684  -2.534  29.251  0.00  0.00     0.003 C 
ENDBRANCH   1   2
BRANCH   1  12
ATOM     12  C   UNL d   1      57.372  -0.097  31.418  0.00  0.00     0.104 C 
BRANCH  12  13
ATOM     13  N   UNL d   1      57.754   0.299  32.026  0.00  0.00    -0.205 NA
ATOM     14  C   UNL d   1      57.440   0.287  32.791  0.00  0.00     0.302 C 
ATOM     15  O   UNL d   1      57.824   0.681  33.390  0.00  0.00    -0.263 OA
BRANCH  14  16
ATOM     16  C   UNL d   1      56.739  -0.126  32.937  0.00  0.00     0.158 A 
ATOM     17  O   UNL d   1      56.531  -0.915  32.850  0.00  0.00    -0.296 OA
ATOM     18  C   UNL d   1      55.745  -1.007  33.087  0.00  0.00     0.134 A 
ATOM     19 BR   UNL d   1      55.294  -1.699  33.097  0.00  0.00    -0.022 Br
ATOM     20  C   UNL d   1      55.485  -0.267  33.315  0.00  0.00     0.034 A 
ATOM     21  C   UNL d   1      56.083   0.281  33.228  0.00  0.00     0.032 A 
ENDBRANCH  14  16
ENDBRANCH  12  13
ENDBRANCH   1  12
TORSDOF 4
ENDMDL
