MODEL 1
REMARK VINA RESULT:       5.6      0.000      0.000
REMARK  1 active torsions:
REMARK  status: ('A' for Active; 'I' for Inactive)
REMARK    1  A    between atoms: C_6  and  C_3 
ROOT
ATOM      1  N   UNL d   1     -52.688  24.467  33.356  0.00  0.00    -0.228 NA
ATOM      2  C   UNL d   1     -52.735  23.644  33.343  0.00  0.00     0.166 A 
ATOM      3  C   UNL d   1     -51.889  24.671  33.333  0.00  0.00     0.089 A 
ATOM      4  S   UNL d   1     -51.977  23.343  33.313  0.00  0.00    -0.055 SA
ATOM      5  C   UNL d   1     -51.442  23.974  33.306  0.00  0.00     0.057 A 
ATOM      6  S   UNL d   1     -53.435  23.203  33.359  0.00  0.00    -0.050 SA
ENDROOT
BRANCH   3   7
ATOM      7  C   UNL d   1     -51.585  25.441  33.335  0.00  0.00     0.018 A 
ATOM      8  C   UNL d   1     -52.096  26.082  33.306  0.00  0.00     0.002 A 
ATOM      9  C   UNL d   1     -51.800  26.849  33.309  0.00  0.00     0.000 A 
ATOM     10  C   UNL d   1     -50.977  26.974  33.341  0.00  0.00     0.000 A 
ATOM     11  C   UNL d   1     -50.472  26.328  33.370  0.00  0.00     0.000 A 
ATOM     12  C   UNL d   1     -50.772  25.560  33.367  0.00  0.00     0.002 A 
ENDBRANCH   3   7
TORSDOF 1
ENDMDL
MODEL 2
REMARK VINA RESULT:       7.8      1.788      3.071
REMARK  1 active torsions:
REMARK  status: ('A' for Active; 'I' for Inactive)
REMARK    1  A    between atoms: C_6  and  C_3 
ROOT
ATOM      1  N   UNL d   1     -50.649  25.668  33.318  0.00  0.00    -0.228 NA
ATOM      2  C   UNL d   1     -50.512  26.481  33.317  0.00  0.00     0.166 A 
ATOM      3  C   UNL d   1     -51.465  25.553  33.312  0.00  0.00     0.089 A 
ATOM      4  S   UNL d   1     -51.233  26.863  33.310  0.00  0.00    -0.055 SA
ATOM      5  C   UNL d   1     -51.835  26.294  33.307  0.00  0.00     0.057 A 
ATOM      6  S   UNL d   1     -49.768  26.843  33.322  0.00  0.00    -0.050 SA
ENDROOT
BRANCH   3   7
ATOM      7  C   UNL d   1     -51.853  24.820  33.310  0.00  0.00     0.018 A 
ATOM      8  C   UNL d   1     -51.413  24.127  33.307  0.00  0.00     0.002 A 
ATOM      9  C   UNL d   1     -51.792  23.398  33.306  0.00  0.00     0.000 A 
ATOM     10  C   UNL d   1     -52.625  23.364  33.308  0.00  0.00     0.000 A 
ATOM     11  C   UNL d   1     -53.056  24.061  33.311  0.00  0.00     0.000 A 
ATOM     12  C   UNL d   1     -52.674  24.792  33.312  0.00  0.00     0.002 A 
ENDBRANCH   3   7
TORSDOF 1
ENDMDL
