MODEL 1
REMARK VINA RESULT:     -11.9      0.000      0.000
REMARK  2 active torsions:
REMARK  status: ('A' for Active; 'I' for Inactive)
REMARK    1  A    between atoms: N_4  and  C_1 
REMARK    2  A    between atoms: C_11  and  C_3 
ROOT
ATOM      1  C   UNL d   1      52.114  32.832  53.085  0.00  0.00     0.148 A 
ATOM      2  N   UNL d   1      52.130  32.052  52.883  0.00  0.00    -0.228 NA
ATOM      3  C   UNL d   1      53.359  32.650  53.778  0.00  0.00     0.004 A 
ATOM      4  C   UNL d   1      52.737  33.136  53.539  0.00  0.00     0.037 A 
ATOM      5  C   UNL d   1      53.350  31.852  53.556  0.00  0.00     0.018 A 
ATOM      6  C   UNL d   1      52.727  31.548  53.102  0.00  0.00     0.083 A 
ATOM      7  C   UNL d   1      53.970  31.369  53.794  0.00  0.00     0.002 A 
ATOM      8  C   UNL d   1      52.742  30.771  52.900  0.00  0.00     0.019 A 
ATOM      9  C   UNL d   1      53.963  30.568  53.573  0.00  0.00     0.000 A 
ATOM     10  C   UNL d   1      53.340  30.264  53.118  0.00  0.00     0.002 A 
ENDROOT
BRANCH   1  11
ATOM     11  N   UNL d   1      51.521  33.329  52.866  0.00  0.00    -0.286 N 
ATOM     12  C   UNL d   1      51.549  33.820  52.196  0.00  0.00     0.101 A 
ATOM     13  C   UNL d   1      50.955  34.319  51.975  0.00  0.00     0.100 A 
ATOM     14  N   UNL d   1      50.270  34.348  52.441  0.00  0.00    -0.299 N 
ATOM     15  C   UNL d   1      50.221  33.877  53.101  0.00  0.00     0.100 A 
ATOM     16  C   UNL d   1      49.664  34.851  52.224  0.00  0.00     0.100 C 
ATOM     17  C   UNL d   1      50.836  33.358  53.333  0.00  0.00     0.101 A 
ENDBRANCH   1  11
BRANCH   3  18
ATOM     18  C   UNL d   1      53.964  32.945  54.219  0.00  0.00     0.000 A 
ATOM     19  C   UNL d   1      54.644  33.239  53.857  0.00  0.00     0.000 A 
ATOM     20  C   UNL d   1      55.240  33.529  54.291  0.00  0.00     0.000 A 
ATOM     21  C   UNL d   1      55.202  33.547  55.121  0.00  0.00     0.000 A 
ATOM     22  C   UNL d   1      54.510  33.248  55.480  0.00  0.00     0.000 A 
ATOM     23  C   UNL d   1      53.915  32.958  55.046  0.00  0.00     0.000 A 
ENDBRANCH   3  18
TORSDOF 2
ENDMDL
MODEL 2
REMARK VINA RESULT:     -10.5      0.714      2.233
REMARK  2 active torsions:
REMARK  status: ('A' for Active; 'I' for Inactive)
REMARK    1  A    between atoms: N_4  and  C_1 
REMARK    2  A    between atoms: C_11  and  C_3 
ROOT
ATOM      1  C   UNL d   1      52.238  33.465  53.393  0.00  0.00     0.148 A 
ATOM      2  N   UNL d   1      52.701  33.931  53.861  0.00  0.00    -0.228 NA
ATOM      3  C   UNL d   1      53.096  32.355  53.698  0.00  0.00     0.004 A 
ATOM      4  C   UNL d   1      52.438  32.665  53.311  0.00  0.00     0.037 A 
ATOM      5  C   UNL d   1      53.554  32.855  54.173  0.00  0.00     0.018 A 
ATOM      6  C   UNL d   1      53.354  33.656  54.256  0.00  0.00     0.083 A 
ATOM      7  C   UNL d   1      54.208  32.544  54.558  0.00  0.00     0.002 A 
ATOM      8  C   UNL d   1      53.814  34.120  54.721  0.00  0.00     0.019 A 
ATOM      9  C   UNL d   1      54.670  33.046  55.036  0.00  0.00     0.000 A 
ATOM     10  C   UNL d   1      54.469  33.846  55.118  0.00  0.00     0.002 A 
ENDROOT
BRANCH   1  11
ATOM     11  N   UNL d   1      51.592  33.742  53.004  0.00  0.00    -0.286 N 
ATOM     12  C   UNL d   1      51.612  34.058  52.235  0.00  0.00     0.101 A 
ATOM     13  C   UNL d   1      50.964  34.336  51.842  0.00  0.00     0.100 A 
ATOM     14  N   UNL d   1      50.229  34.307  52.224  0.00  0.00    -0.299 N 
ATOM     15  C   UNL d   1      50.185  34.002  52.976  0.00  0.00     0.100 A 
ATOM     16  C   UNL d   1      49.569  34.586  51.834  0.00  0.00     0.100 C 
ATOM     17  C   UNL d   1      50.856  33.713  53.386  0.00  0.00     0.101 A 
ENDBRANCH   1  11
BRANCH   3  18
ATOM     18  C   UNL d   1      53.290  31.578  53.618  0.00  0.00     0.000 A 
ATOM     19  C   UNL d   1      53.802  31.331  53.020  0.00  0.00     0.000 A 
ATOM     20  C   UNL d   1      53.993  30.567  52.941  0.00  0.00     0.000 A 
ATOM     21  C   UNL d   1      53.688  29.989  53.454  0.00  0.00     0.000 A 
ATOM     22  C   UNL d   1      53.171  30.246  54.057  0.00  0.00     0.000 A 
ATOM     23  C   UNL d   1      52.979  31.010  54.136  0.00  0.00     0.000 A 
ENDBRANCH   3  18
TORSDOF 2
ENDMDL
MODEL 3
REMARK VINA RESULT:      -9.7      1.298      4.034
REMARK  2 active torsions:
REMARK  status: ('A' for Active; 'I' for Inactive)
REMARK    1  A    between atoms: N_4  and  C_1 
REMARK    2  A    between atoms: C_11  and  C_3 
ROOT
ATOM      1  C   UNL d   1      52.878  32.441  53.592  0.00  0.00     0.148 A 
ATOM      2  N   UNL d   1      53.358  32.948  53.997  0.00  0.00    -0.228 NA
ATOM      3  C   UNL d   1      52.065  33.562  53.211  0.00  0.00     0.004 A 
ATOM      4  C   UNL d   1      52.222  32.753  53.193  0.00  0.00     0.037 A 
ATOM      5  C   UNL d   1      52.574  34.059  53.635  0.00  0.00     0.018 A 
ATOM      6  C   UNL d   1      53.230  33.748  54.034  0.00  0.00     0.083 A 
ATOM      7  C   UNL d   1      52.415  34.864  53.651  0.00  0.00     0.002 A 
ATOM      8  C   UNL d   1      53.708  34.250  54.437  0.00  0.00     0.019 A 
ATOM      9  C   UNL d   1      52.925  35.365  54.076  0.00  0.00     0.000 A 
ATOM     10  C   UNL d   1      53.582  35.054  54.475  0.00  0.00     0.002 A 
ENDROOT
BRANCH   1  11
ATOM     11  N   UNL d   1      53.008  31.649  53.558  0.00  0.00    -0.286 N 
ATOM     12  C   UNL d   1      52.778  31.168  52.919  0.00  0.00     0.101 A 
ATOM     13  C   UNL d   1      52.907  30.372  52.883  0.00  0.00     0.100 A 
ATOM     14  N   UNL d   1      53.293  30.005  53.519  0.00  0.00    -0.299 N 
ATOM     15  C   UNL d   1      53.527  30.457  54.154  0.00  0.00     0.100 A 
ATOM     16  C   UNL d   1      53.427  29.201  53.490  0.00  0.00     0.100 C 
ATOM     17  C   UNL d   1      53.394  31.283  54.194  0.00  0.00     0.101 A 
ENDBRANCH   1  11
BRANCH   3  18
ATOM     18  C   UNL d   1      51.427  33.865  52.823  0.00  0.00     0.000 A 
ATOM     19  C   UNL d   1      51.484  34.089  52.032  0.00  0.00     0.000 A 
ATOM     20  C   UNL d   1      50.856  34.387  51.651  0.00  0.00     0.000 A 
ATOM     21  C   UNL d   1      50.124  34.483  52.031  0.00  0.00     0.000 A 
ATOM     22  C   UNL d   1      50.075  34.253  52.832  0.00  0.00     0.000 A 
ATOM     23  C   UNL d   1      50.702  33.956  53.213  0.00  0.00     0.000 A 
ENDBRANCH   3  18
TORSDOF 2
ENDMDL
MODEL 4
REMARK VINA RESULT:      -9.4      1.164      3.284
REMARK  2 active torsions:
REMARK  status: ('A' for Active; 'I' for Inactive)
REMARK    1  A    between atoms: N_4  and  C_1 
REMARK    2  A    between atoms: C_11  and  C_3 
ROOT
ATOM      1  C   UNL d   1      53.040  31.854  53.520  0.00  0.00     0.148 A 
ATOM      2  N   UNL d   1      52.510  32.343  53.158  0.00  0.00    -0.228 NA
ATOM      3  C   UNL d   1      53.722  33.014  54.023  0.00  0.00     0.004 A 
ATOM      4  C   UNL d   1      53.655  32.195  53.959  0.00  0.00     0.037 A 
ATOM      5  C   UNL d   1      53.164  33.492  53.641  0.00  0.00     0.018 A 
ATOM      6  C   UNL d   1      52.549  33.152  53.202  0.00  0.00     0.083 A 
ATOM      7  C   UNL d   1      53.233  34.307  53.706  0.00  0.00     0.002 A 
ATOM      8  C   UNL d   1      52.021  33.637  52.841  0.00  0.00     0.019 A 
ATOM      9  C   UNL d   1      52.673  34.789  53.323  0.00  0.00     0.000 A 
ATOM     10  C   UNL d   1      52.058  34.449  52.884  0.00  0.00     0.002 A 
ENDROOT
BRANCH   1  11
ATOM     11  N   UNL d   1      52.998  31.053  53.475  0.00  0.00    -0.286 N 
ATOM     12  C   UNL d   1      53.199  30.541  54.099  0.00  0.00     0.101 A 
ATOM     13  C   UNL d   1      53.158  29.736  54.055  0.00  0.00     0.100 A 
ATOM     14  N   UNL d   1      52.900  29.392  53.346  0.00  0.00    -0.299 N 
ATOM     15  C   UNL d   1      52.698  29.874  52.723  0.00  0.00     0.100 A 
ATOM     16  C   UNL d   1      52.856  28.579  53.293  0.00  0.00     0.100 C 
ATOM     17  C   UNL d   1      52.740  30.709  52.766  0.00  0.00     0.101 A 
ENDBRANCH   1  11
BRANCH   3  18
ATOM     18  C   UNL d   1      54.320  33.344  54.449  0.00  0.00     0.000 A 
ATOM     19  C   UNL d   1      54.227  33.500  55.254  0.00  0.00     0.000 A 
ATOM     20  C   UNL d   1      54.815  33.825  55.673  0.00  0.00     0.000 A 
ATOM     21  C   UNL d   1      55.542  34.020  55.321  0.00  0.00     0.000 A 
ATOM     22  C   UNL d   1      55.628  33.860  54.506  0.00  0.00     0.000 A 
ATOM     23  C   UNL d   1      55.040  33.534  54.086  0.00  0.00     0.000 A 
ENDBRANCH   3  18
TORSDOF 2
ENDMDL
