MODEL 1
REMARK VINA RESULT:      72.2      0.000      0.000
REMARK  2 active torsions:
REMARK  status: ('A' for Active; 'I' for Inactive)
REMARK    1  A    between atoms: N_10  and  C_3 
REMARK    2  A    between atoms: C_11  and  C_5 
ROOT
ATOM      1  N   UNL d   1      58.926  49.329  50.582  0.00  0.00    -0.196 N 
ATOM      2  C   UNL d   1      59.485  49.426  51.187  0.00  0.00     0.167 A 
ATOM      3  C   UNL d   1      58.127  49.352  50.769  0.00  0.00     0.152 A 
ATOM      4  N   UNL d   1      59.971  49.192  49.646  0.00  0.00    -0.163 NA
ATOM      5  C   UNL d   1      60.277  49.406  51.024  0.00  0.00     0.055 A 
ATOM      6  N   UNL d   1      59.232  49.543  51.967  0.00  0.00    -0.227 NA
ATOM      7  C   UNL d   1      57.875  49.468  51.536  0.00  0.00     0.052 A 
ATOM      8  C   UNL d   1      60.527  49.289  50.248  0.00  0.00     0.104 A 
ATOM      9  C   UNL d   1      58.430  49.564  52.138  0.00  0.00     0.086 A 
ATOM     10  C   UNL d   1      57.063  49.488  51.703  0.00  0.00     0.004 A 
ATOM     11  C   UNL d   1      61.313  49.267  50.073  0.00  0.00     0.023 C 
ATOM     12  C   UNL d   1      58.180  49.682  52.914  0.00  0.00     0.019 A 
ATOM     13  C   UNL d   1      56.814  49.608  52.492  0.00  0.00     0.000 A 
ATOM     14  C   UNL d   1      57.369  49.704  53.095  0.00  0.00     0.002 A 
ENDROOT
BRANCH   3  15
ATOM     15  N   UNL d   1      57.556  49.254  50.156  0.00  0.00    -0.285 N 
ATOM     16  C   UNL d   1      57.616  49.704  49.438  0.00  0.00     0.108 A 
ATOM     17  C   UNL d   1      57.047  49.604  48.831  0.00  0.00     0.142 A 
ATOM     18  O   UNL d   1      56.403  49.052  48.927  0.00  0.00    -0.300 OA
ATOM     19  C   UNL d   1      56.353  48.609  49.646  0.00  0.00     0.142 A 
ATOM     20  C   UNL d   1      56.922  48.709  50.253  0.00  0.00     0.108 A 
ENDBRANCH   3  15
BRANCH   5  21
ATOM     21  C   UNL d   1      60.832  49.502  51.627  0.00  0.00     0.004 A 
ATOM     22  C   UNL d   1      60.578  49.600  52.394  0.00  0.00     0.000 A 
ATOM     23  C   UNL d   1      61.134  49.696  52.996  0.00  0.00     0.000 A 
ATOM     24  C   UNL d   1      61.935  49.693  52.822  0.00  0.00     0.000 A 
ATOM     25  C   UNL d   1      62.181  49.594  52.046  0.00  0.00     0.000 A 
ATOM     26  C   UNL d   1      61.626  49.498  51.444  0.00  0.00     0.000 A 
ENDBRANCH   5  21
TORSDOF 2
ENDMDL
