MODEL 1
REMARK VINA RESULT:      82.7      0.000      0.000
REMARK  8 active torsions:
REMARK  status: ('A' for Active; 'I' for Inactive)
REMARK    1  A    between atoms: C_4  and  N_1 
REMARK    2  A    between atoms: C_10  and  C_2 
REMARK    3  A    between atoms: N_14  and  C_4 
REMARK    4  A    between atoms: O_17  and  C_8 
REMARK    5  A    between atoms: O_15  and  C_10 
REMARK    6  A    between atoms: O_18  and  C_11 
REMARK    7  A    between atoms: C_16  and  O_15 
REMARK    8  A    between atoms: C_25  and  C_19 
ROOT
ATOM      1  N   UNL d   1      58.498  49.405  49.724  0.00  0.00    -0.280 N 
ATOM      2  C   UNL d   1      58.860  49.496  50.460  0.00  0.00     0.091 A 
ATOM      3  C   UNL d   1      59.671  49.426  50.524  0.00  0.00     0.020 A 
ATOM      4  C   UNL d   1      60.129  49.264  49.857  0.00  0.00     0.005 A 
ATOM      5  C   UNL d   1      60.030  49.517  51.258  0.00  0.00     0.028 A 
ATOM      6  C   UNL d   1      58.956  49.243  49.057  0.00  0.00     0.082 A 
ATOM      7  C   UNL d   1      60.849  49.447  51.327  0.00  0.00     0.116 A 
ATOM      8  C   UNL d   1      60.945  49.194  49.924  0.00  0.00     0.026 A 
ATOM      9  C   UNL d   1      61.307  49.285  50.660  0.00  0.00     0.116 A 
ATOM     10  C   UNL d   1      59.776  49.173  49.126  0.00  0.00     0.019 A 
ENDROOT
BRANCH   2  11
ATOM     11  C   UNL d   1      58.403  49.658  51.127  0.00  0.00     0.140 C 
BRANCH  11  12
ATOM     12  O   UNL d   1      58.740  49.618  51.879  0.00  0.00    -0.304 OA
BRANCH  12  13
ATOM     13  C   UNL d   1      58.259  49.542  52.545  0.00  0.00     0.100 A 
ATOM     14  C   UNL d   1      58.563  49.704  53.294  0.00  0.00     0.025 A 
ATOM     15  C   UNL d   1      58.081  49.628  53.960  0.00  0.00     0.002 A 
ATOM     16  C   UNL d   1      57.295  49.389  53.875  0.00  0.00     0.000 A 
ATOM     17  C   UNL d   1      56.991  49.227  53.125  0.00  0.00     0.002 A 
ATOM     18  C   UNL d   1      57.473  49.304  52.459  0.00  0.00     0.025 A 
BRANCH  16  19
ATOM     19  C   UNL d   1      56.813  49.313  54.540  0.00  0.00     0.000 C 
ATOM     20  C   UNL d   1      56.091  49.705  54.574  0.00  0.00     0.000 C 
ENDBRANCH  16  19
ENDBRANCH  12  13
ENDBRANCH  11  12
ENDBRANCH   2  11
BRANCH   1  21
ATOM     21  C   UNL d   1      57.672  49.475  49.649  0.00  0.00     0.206 C 
ATOM     22  S   UNL d   1      57.311  49.336  48.910  0.00  0.00    -0.038 SA
BRANCH  21  23
ATOM     23  N   UNL d   1      57.217  49.680  50.297  0.00  0.00    -0.215 NA
ATOM     24  C   UNL d   1      56.451  49.385  50.378  0.00  0.00     0.122 C 
ENDBRANCH  21  23
ENDBRANCH   1  21
BRANCH   7  25
ATOM     25  O   UNL d   1      61.215  49.538  52.066  0.00  0.00    -0.326 OA
ATOM     26  C   UNL d   1      60.800  49.370  52.769  0.00  0.00     0.181 C 
ENDBRANCH   7  25
BRANCH   9  27
ATOM     27  O   UNL d   1      62.131  49.214  50.732  0.00  0.00    -0.326 OA
ATOM     28  C   UNL d   1      62.553  48.682  50.249  0.00  0.00     0.181 C 
ENDBRANCH   9  27
TORSDOF 8
ENDMDL
