MODEL 1
REMARK VINA RESULT:       8.1      0.000      0.000
REMARK  6 active torsions:
REMARK  status: ('A' for Active; 'I' for Inactive)
REMARK    1  A    between atoms: S_4  and  C_1 
REMARK    2  A    between atoms: C_9  and  N_2 
REMARK    3  A    between atoms: C_11  and  S_4 
REMARK    4  A    between atoms: C_6  and  C_11 
REMARK       I    between atoms: N_8  and  C_6 
REMARK    5  A    between atoms: C_12  and  N_8 
REMARK    6  A    between atoms: O_18  and  C_13 
ROOT
ATOM      1  S   UNL d   1      46.425 -18.047  44.093  0.00  0.00    -0.044 SA
ENDROOT
BRANCH   1   2
ATOM      2  C   UNL d   1      46.451 -18.864  44.220  0.00  0.00     0.180 A 
ATOM      3  N   UNL d   1      46.494 -19.437  43.638  0.00  0.00    -0.284 N 
ATOM      4  C   UNL d   1      46.508 -20.172  44.015  0.00  0.00     0.103 A 
ATOM      5  C   UNL d   1      46.474 -20.042  44.841  0.00  0.00     0.120 A 
ATOM      6  N   UNL d   1      46.440 -19.239  44.951  0.00  0.00    -0.219 NA
BRANCH   3   7
ATOM      7  C   UNL d   1      46.520 -19.342  42.819  0.00  0.00     0.066 A 
ATOM      8  C   UNL d   1      46.621 -19.990  42.332  0.00  0.00     0.018 A 
ATOM      9  C   UNL d   1      46.647 -19.895  41.512  0.00  0.00     0.002 A 
ATOM     10  C   UNL d   1      46.571 -19.151  41.181  0.00  0.00     0.000 A 
ATOM     11  C   UNL d   1      46.469 -18.494  41.670  0.00  0.00     0.002 A 
ATOM     12  C   UNL d   1      46.443 -18.589  42.489  0.00  0.00     0.018 A 
ENDBRANCH   3   7
ENDBRANCH   1   2
BRANCH   1  13
ATOM     13  C   UNL d   1      46.006 -17.558  44.611  0.00  0.00     0.101 C 
BRANCH  13  14
ATOM     14  C   UNL d   1      46.003 -16.752  44.508  0.00  0.00     0.286 C 
ATOM     15  N   UNL d   1      45.490 -16.288  44.942  0.00  0.00    -0.208 NA
ATOM     16  O   UNL d   1      46.519 -16.411  43.965  0.00  0.00    -0.265 OA
BRANCH  15  17
ATOM     17  C   UNL d   1      45.483 -15.475  44.842  0.00  0.00     0.085 A 
ATOM     18  C   UNL d   1      46.187 -15.044  44.896  0.00  0.00     0.021 A 
ATOM     19  C   UNL d   1      46.186 -14.224  44.797  0.00  0.00     0.026 A 
ATOM     20  C   UNL d   1      45.477 -13.836  44.643  0.00  0.00     0.094 A 
ATOM     21  C   UNL d   1      44.776 -14.279  44.590  0.00  0.00     0.026 A 
ATOM     22  C   UNL d   1      44.782 -15.084  44.689  0.00  0.00     0.021 A 
BRANCH  20  23
ATOM     23  O   UNL d   1      45.479 -13.010  44.543  0.00  0.00    -0.328 OA
ATOM     24  C   UNL d   1      45.454 -12.699  43.777  0.00  0.00     0.181 C 
ENDBRANCH  20  23
ENDBRANCH  15  17
ENDBRANCH  13  14
ENDBRANCH   1  13
TORSDOF 6
ENDMDL
