MODEL 1
REMARK VINA RESULT:      -8.2      0.000      0.000
REMARK  3 active torsions:
REMARK  status: ('A' for Active; 'I' for Inactive)
REMARK    1  A    between atoms: C_6  and  N_1 
REMARK    2  A    between atoms: C_3  and  C_2 
REMARK       I    between atoms: N_4  and  C_3 
REMARK    3  A    between atoms: C_9  and  N_4 
ROOT
ATOM      1  C   UNL d   1     -47.726  13.898  22.523  0.00  0.00     0.069 A 
ATOM      2  C   UNL d   1     -47.562  13.156  22.197  0.00  0.00     0.064 A 
ATOM      3  C   UNL d   1     -46.194  13.283  22.596  0.00  0.00     0.128 A 
ATOM      4  C   UNL d   1     -46.800  12.849  22.233  0.00  0.00     0.035 A 
ATOM      5  C   UNL d   1     -47.120  14.333  22.885  0.00  0.00     0.007 A 
ATOM      6  C   UNL d   1     -46.354  14.023  22.921  0.00  0.00     0.024 A 
ATOM      7 CL   UNL d   1     -48.160  12.718  21.834  0.00  0.00    -0.082 Cl
ENDROOT
BRANCH   1   8
ATOM      8  C   UNL d   1     -48.489  14.206  22.486  0.00  0.00     0.281 C 
ATOM      9  N   UNL d   1     -48.867  14.453  23.177  0.00  0.00    -0.189 NA
ATOM     10  O   UNL d   1     -48.871  14.265  21.758  0.00  0.00    -0.265 OA
BRANCH   9  11
ATOM     11  C   UNL d   1     -49.607  14.780  23.352  0.00  0.00     0.166 A 
ATOM     12  N   UNL d   1     -50.267  14.287  23.414  0.00  0.00    -0.225 NA
ATOM     13  C   UNL d   1     -50.990  14.624  23.587  0.00  0.00     0.101 A 
ATOM     14  C   UNL d   1     -51.064  15.437  23.698  0.00  0.00     0.021 A 
ATOM     15  C   UNL d   1     -50.405  15.921  23.635  0.00  0.00     0.005 A 
ATOM     16  C   UNL d   1     -49.669  15.594  23.460  0.00  0.00     0.039 A 
ENDBRANCH   9  11
ENDBRANCH   1   8
BRANCH   3  17
ATOM     17  N   UNL d   1     -45.428  12.968  22.629  0.00  0.00    -0.114 N 
ATOM     18  O   UNL d   1     -44.825  13.317  22.188  0.00  0.00    -0.532 OA
ATOM     19  O   UNL d   1     -45.268  12.311  23.099  0.00  0.00    -0.532 OA
ENDBRANCH   3  17
TORSDOF 3
ENDMDL
MODEL 2
REMARK VINA RESULT:      -7.8      1.090      1.470
REMARK  3 active torsions:
REMARK  status: ('A' for Active; 'I' for Inactive)
REMARK    1  A    between atoms: C_6  and  N_1 
REMARK    2  A    between atoms: C_3  and  C_2 
REMARK       I    between atoms: N_4  and  C_3 
REMARK    3  A    between atoms: C_9  and  N_4 
ROOT
ATOM      1  C   UNL d   1     -47.656  13.504  22.966  0.00  0.00     0.069 A 
ATOM      2  C   UNL d   1     -46.849  13.686  22.970  0.00  0.00     0.064 A 
ATOM      3  C   UNL d   1     -46.543  12.321  23.268  0.00  0.00     0.128 A 
ATOM      4  C   UNL d   1     -46.294  13.098  23.120  0.00  0.00     0.035 A 
ATOM      5  C   UNL d   1     -47.904  12.727  23.113  0.00  0.00     0.007 A 
ATOM      6  C   UNL d   1     -47.345  12.136  23.264  0.00  0.00     0.024 A 
ATOM      7 CL   UNL d   1     -46.594  14.457  22.824  0.00  0.00    -0.082 Cl
ENDROOT
BRANCH   1   8
ATOM      8  C   UNL d   1     -48.211  14.093  22.815  0.00  0.00     0.281 C 
ATOM      9  N   UNL d   1     -48.941  14.080  23.200  0.00  0.00    -0.189 NA
ATOM     10  O   UNL d   1     -48.034  14.694  22.279  0.00  0.00    -0.265 OA
BRANCH   9  11
ATOM     11  C   UNL d   1     -49.615  14.561  23.190  0.00  0.00     0.166 A 
ATOM     12  N   UNL d   1     -49.596  15.298  23.562  0.00  0.00    -0.225 NA
ATOM     13  C   UNL d   1     -50.268  15.760  23.544  0.00  0.00     0.101 A 
ATOM     14  C   UNL d   1     -50.952  15.501  23.164  0.00  0.00     0.021 A 
ATOM     15  C   UNL d   1     -50.964  14.768  22.797  0.00  0.00     0.005 A 
ATOM     16  C   UNL d   1     -50.292  14.291  22.807  0.00  0.00     0.039 A 
ENDBRANCH   9  11
ENDBRANCH   1   8
BRANCH   3  17
ATOM     17  N   UNL d   1     -45.979  11.732  23.418  0.00  0.00    -0.114 N 
ATOM     18  O   UNL d   1     -46.223  10.996  23.697  0.00  0.00    -0.532 OA
ATOM     19  O   UNL d   1     -45.178  11.881  23.291  0.00  0.00    -0.532 OA
ENDBRANCH   3  17
TORSDOF 3
ENDMDL
MODEL 3
REMARK VINA RESULT:      -7.1      1.693      4.293
REMARK  3 active torsions:
REMARK  status: ('A' for Active; 'I' for Inactive)
REMARK    1  A    between atoms: C_6  and  N_1 
REMARK    2  A    between atoms: C_3  and  C_2 
REMARK       I    between atoms: N_4  and  C_3 
REMARK    3  A    between atoms: C_9  and  N_4 
ROOT
ATOM      1  C   UNL d   1     -48.649  13.842  22.679  0.00  0.00     0.069 A 
ATOM      2  C   UNL d   1     -48.554  14.661  22.605  0.00  0.00     0.064 A 
ATOM      3  C   UNL d   1     -49.958  14.842  22.811  0.00  0.00     0.128 A 
ATOM      4  C   UNL d   1     -49.205  15.159  22.671  0.00  0.00     0.035 A 
ATOM      5  C   UNL d   1     -49.402  13.525  22.819  0.00  0.00     0.007 A 
ATOM      6  C   UNL d   1     -50.056  14.028  22.884  0.00  0.00     0.024 A 
ATOM      7 CL   UNL d   1     -47.808  14.984  22.466  0.00  0.00    -0.082 Cl
ENDROOT
BRANCH   1   8
ATOM      8  C   UNL d   1     -47.997  13.343  22.613  0.00  0.00     0.281 C 
ATOM      9  N   UNL d   1     -47.784  12.858  23.245  0.00  0.00    -0.189 NA
ATOM     10  O   UNL d   1     -47.561  13.331  21.913  0.00  0.00    -0.265 OA
BRANCH   9  11
ATOM     11  C   UNL d   1     -47.184  12.303  23.379  0.00  0.00     0.166 A 
ATOM     12  N   UNL d   1     -46.393  12.536  23.325  0.00  0.00    -0.225 NA
ATOM     13  C   UNL d   1     -45.813  11.978  23.459  0.00  0.00     0.101 A 
ATOM     14  C   UNL d   1     -46.008  11.199  23.644  0.00  0.00     0.021 A 
ATOM     15  C   UNL d   1     -46.795  10.974  23.696  0.00  0.00     0.005 A 
ATOM     16  C   UNL d   1     -47.391  11.528  23.563  0.00  0.00     0.039 A 
ENDBRANCH   9  11
ENDBRANCH   1   8
BRANCH   3  17
ATOM     17  N   UNL d   1     -50.610  15.349  22.876  0.00  0.00    -0.114 N 
ATOM     18  O   UNL d   1     -51.064  15.517  22.208  0.00  0.00    -0.532 OA
ATOM     19  O   UNL d   1     -50.805  15.685  23.603  0.00  0.00    -0.532 OA
ENDBRANCH   3  17
TORSDOF 3
ENDMDL
MODEL 4
REMARK VINA RESULT:      -6.2      1.512      4.608
REMARK  3 active torsions:
REMARK  status: ('A' for Active; 'I' for Inactive)
REMARK    1  A    between atoms: C_6  and  N_1 
REMARK    2  A    between atoms: C_3  and  C_2 
REMARK       I    between atoms: N_4  and  C_3 
REMARK    3  A    between atoms: C_9  and  N_4 
ROOT
ATOM      1  C   UNL d   1     -46.989  13.422  22.950  0.00  0.00     0.069 A 
ATOM      2  C   UNL d   1     -47.660  12.962  23.098  0.00  0.00     0.064 A 
ATOM      3  C   UNL d   1     -48.493  14.101  22.857  0.00  0.00     0.128 A 
ATOM      4  C   UNL d   1     -48.409  13.299  23.051  0.00  0.00     0.035 A 
ATOM      5  C   UNL d   1     -47.073  14.224  22.755  0.00  0.00     0.007 A 
ATOM      6  C   UNL d   1     -47.827  14.561  22.709  0.00  0.00     0.024 A 
ATOM      7 CL   UNL d   1     -47.585  12.164  23.292  0.00  0.00    -0.082 Cl
ENDROOT
BRANCH   1   8
ATOM      8  C   UNL d   1     -46.239  13.085  22.996  0.00  0.00     0.281 C 
ATOM      9  N   UNL d   1     -45.736  13.107  22.343  0.00  0.00    -0.189 NA
ATOM     10  O   UNL d   1     -45.995  12.727  23.698  0.00  0.00    -0.265 OA
BRANCH   9  11
ATOM     11  C   UNL d   1     -44.969  12.836  22.187  0.00  0.00     0.166 A 
ATOM     12  N   UNL d   1     -44.685  12.167  22.580  0.00  0.00    -0.225 NA
ATOM     13  C   UNL d   1     -43.927  11.912  22.416  0.00  0.00     0.101 A 
ATOM     14  C   UNL d   1     -43.453  12.311  21.872  0.00  0.00     0.021 A 
ATOM     15  C   UNL d   1     -43.742  12.974  21.485  0.00  0.00     0.005 A 
ATOM     16  C   UNL d   1     -44.505  13.242  21.642  0.00  0.00     0.039 A 
ENDBRANCH   9  11
ENDBRANCH   1   8
BRANCH   3  17
ATOM     17  N   UNL d   1     -49.250  14.434  22.812  0.00  0.00    -0.114 N 
ATOM     18  O   UNL d   1     -49.534  14.886  23.440  0.00  0.00    -0.532 OA
ATOM     19  O   UNL d   1     -49.718  14.315  22.144  0.00  0.00    -0.532 OA
ENDBRANCH   3  17
TORSDOF 3
ENDMDL
