MODEL 1
REMARK VINA RESULT:     109.1      0.000      0.000
REMARK  4 active torsions:
REMARK  status: ('A' for Active; 'I' for Inactive)
REMARK    1  A    between atoms: S_6  and  C_1 
REMARK    2  A    between atoms: N_9  and  N_2 
REMARK    3  A    between atoms: C_12  and  S_6 
REMARK       I    between atoms: C_10  and  N_9 
REMARK    4  A    between atoms: C_11  and  C_10 
ROOT
ATOM      1  C   UNL d   1      59.961  48.810  50.591  0.00  0.00     0.146 A 
ATOM      2  N   UNL d   1      61.206  48.346  50.400  0.00  0.00    -0.188 N 
ATOM      3  C   UNL d   1      60.466  48.448  50.047  0.00  0.00     0.199 A 
ATOM      4  C   UNL d   1      61.163  48.647  51.171  0.00  0.00     0.184 A 
ATOM      5  C   UNL d   1      60.396  48.933  51.290  0.00  0.00     0.131 A 
ATOM      6  N   UNL d   1      61.716  48.699  51.778  0.00  0.00    -0.224 NA
ATOM      7  N   UNL d   1      60.189  49.267  52.010  0.00  0.00    -0.240 NA
ATOM      8  C   UNL d   1      61.507  49.035  52.502  0.00  0.00     0.101 A 
ATOM      9  C   UNL d   1      60.736  49.319  52.610  0.00  0.00     0.099 A 
ATOM     10  N   UNL d   1      60.268  48.224  49.281  0.00  0.00    -0.126 N 
ATOM     11  C   UNL d   1      62.060  49.088  53.109  0.00  0.00     0.021 A 
ATOM     12  C   UNL d   1      60.522  49.657  53.336  0.00  0.00     0.021 A 
ATOM     13  C   UNL d   1      61.079  49.708  53.942  0.00  0.00     0.002 A 
ATOM     14  C   UNL d   1      61.850  49.424  53.834  0.00  0.00     0.002 A 
ENDROOT
BRANCH   1  15
ATOM     15  S   UNL d   1      59.182  49.011  50.471  0.00  0.00     0.214 S 
ATOM     16  O   UNL d   1      59.206  49.699  50.009  0.00  0.00    -0.217 OA
ATOM     17  O   UNL d   1      59.157  48.329  50.929  0.00  0.00    -0.217 OA
BRANCH  15  18
ATOM     18  C   UNL d   1      58.387  49.206  50.356  0.00  0.00     0.088 A 
ATOM     19  C   UNL d   1      57.882  49.545  50.914  0.00  0.00     0.011 A 
ATOM     20  C   UNL d   1      57.100  49.708  50.715  0.00  0.00     0.001 A 
ATOM     21  C   UNL d   1      56.822  49.533  49.960  0.00  0.00     0.000 A 
ATOM     22  C   UNL d   1      57.324  49.194  49.404  0.00  0.00     0.001 A 
ATOM     23  C   UNL d   1      56.041  49.695  49.761  0.00  0.00     0.000 C 
ATOM     24  C   UNL d   1      58.117  49.028  49.600  0.00  0.00     0.011 A 
ENDBRANCH  15  18
ENDBRANCH   1  15
BRANCH   2  25
ATOM     25  N   UNL d   1      61.872  48.008  50.058  0.00  0.00    -0.120 NA
ATOM     26  C   UNL d   1      61.932  47.186  49.989  0.00  0.00     0.295 C 
ATOM     27  O   UNL d   1      62.598  46.855  49.647  0.00  0.00    -0.264 OA
BRANCH  26  28
ATOM     28  C   UNL d   1      61.322  46.703  50.263  0.00  0.00     0.059 A 
ATOM     29  C   UNL d   1      60.908  46.360  50.892  0.00  0.00     0.005 A 
ATOM     30  C   UNL d   1      60.679  46.208  50.115  0.00  0.00     0.005 A 
ENDBRANCH  26  28
ENDBRANCH   2  25
TORSDOF 4
ENDMDL
