MODEL 1
REMARK VINA RESULT:      -6.0      0.000      0.000
REMARK  4 active torsions:
REMARK  status: ('A' for Active; 'I' for Inactive)
REMARK    1  A    between atoms: N_6  and  C_2 
REMARK    2  A    between atoms: C_7  and  C_3 
REMARK    3  A    between atoms: C_10  and  N_6 
REMARK    4  A    between atoms: O_14  and  C_11 
ROOT
ATOM      1  N   UNL d   1     -41.596-122.192 -51.705  0.00  0.00    -0.221 NA
ATOM      2  C   UNL d   1     -41.270-122.449 -52.415  0.00  0.00     0.194 A 
ATOM      3  C   UNL d   1     -41.640-122.839 -51.211  0.00  0.00     0.090 A 
ATOM      4  S   UNL d   1     -41.123-123.248 -52.336  0.00  0.00    -0.046 SA
ATOM      5  C   UNL d   1     -41.348-123.496 -51.599  0.00  0.00     0.058 A 
ENDROOT
BRANCH   3   6
ATOM      6  C   UNL d   1     -41.919-122.905 -50.437  0.00  0.00     0.018 A 
ATOM      7  C   UNL d   1     -42.616-122.611 -50.224  0.00  0.00     0.004 A 
ATOM      8  C   UNL d   1     -42.884-122.686 -49.438  0.00  0.00     0.024 A 
ATOM      9  C   UNL d   1     -42.432-123.053 -48.914  0.00  0.00     0.094 A 
ATOM     10  C   UNL d   1     -41.708-123.366 -49.110  0.00  0.00     0.024 A 
ATOM     11  C   UNL d   1     -41.429-123.300 -49.882  0.00  0.00     0.004 A 
BRANCH   9  12
ATOM     12  O   UNL d   1     -42.717-123.123 -48.113  0.00  0.00    -0.328 OA
ATOM     13  C   UNL d   1     -42.158-123.216 -47.507  0.00  0.00     0.181 C 
ENDBRANCH   9  12
ENDBRANCH   3   6
BRANCH   2  14
ATOM     14  N   UNL d   1     -41.126-121.969 -53.074  0.00  0.00    -0.221 NA
BRANCH  14  15
ATOM     15  C   UNL d   1     -41.531-122.103 -53.770  0.00  0.00     0.084 A 
ATOM     16  C   UNL d   1     -41.260-122.664 -54.325  0.00  0.00     0.019 A 
ATOM     17  C   UNL d   1     -41.668-122.811 -55.043  0.00  0.00     0.002 A 
ATOM     18  C   UNL d   1     -42.360-122.386 -55.205  0.00  0.00     0.000 A 
ATOM     19  C   UNL d   1     -42.641-121.807 -54.635  0.00  0.00     0.002 A 
ATOM     20  C   UNL d   1     -42.236-121.670 -53.935  0.00  0.00     0.019 A 
ENDBRANCH  14  15
ENDBRANCH   2  14
TORSDOF 4
ENDMDL
MODEL 2
REMARK VINA RESULT:      -5.9      1.854      4.731
REMARK  4 active torsions:
REMARK  status: ('A' for Active; 'I' for Inactive)
REMARK    1  A    between atoms: N_6  and  C_2 
REMARK    2  A    between atoms: C_7  and  C_3 
REMARK    3  A    between atoms: C_10  and  N_6 
REMARK    4  A    between atoms: O_14  and  C_11 
ROOT
ATOM      1  N   UNL d   1     -41.286-122.555 -51.824  0.00  0.00    -0.221 NA
ATOM      2  C   UNL d   1     -41.175-123.059 -51.184  0.00  0.00     0.194 A 
ATOM      3  C   UNL d   1     -41.305-123.016 -52.496  0.00  0.00     0.090 A 
ATOM      4  S   UNL d   1     -41.128-123.817 -51.482  0.00  0.00    -0.046 SA
ATOM      5  C   UNL d   1     -41.207-123.800 -52.288  0.00  0.00     0.058 A 
ENDROOT
BRANCH   3   6
ATOM      6  C   UNL d   1     -41.402-122.807 -53.288  0.00  0.00     0.018 A 
ATOM      7  C   UNL d   1     -41.162-123.277 -53.870  0.00  0.00     0.004 A 
ATOM      8  C   UNL d   1     -41.268-123.051 -54.666  0.00  0.00     0.024 A 
ATOM      9  C   UNL d   1     -41.608-122.364 -54.826  0.00  0.00     0.094 A 
ATOM     10  C   UNL d   1     -41.864-121.861 -54.242  0.00  0.00     0.024 A 
ATOM     11  C   UNL d   1     -41.767-122.069 -53.451  0.00  0.00     0.004 A 
BRANCH   9  12
ATOM     12  O   UNL d   1     -41.710-122.144 -55.644  0.00  0.00    -0.328 OA
ATOM     13  C   UNL d   1     -42.478-121.982 -55.911  0.00  0.00     0.181 C 
ENDBRANCH   9  12
ENDBRANCH   3   6
BRANCH   2  14
ATOM     14  N   UNL d   1     -41.123-122.821 -50.393  0.00  0.00    -0.221 NA
BRANCH  14  15
ATOM     15  C   UNL d   1     -41.736-122.982 -49.879  0.00  0.00     0.084 A 
ATOM     16  C   UNL d   1     -41.707-123.641 -49.368  0.00  0.00     0.019 A 
ATOM     17  C   UNL d   1     -42.331-123.817 -48.836  0.00  0.00     0.002 A 
ATOM     18  C   UNL d   1     -42.994-123.322 -48.817  0.00  0.00     0.000 A 
ATOM     19  C   UNL d   1     -43.026-122.642 -49.343  0.00  0.00     0.002 A 
ATOM     20  C   UNL d   1     -42.411-122.477 -49.860  0.00  0.00     0.019 A 
ENDBRANCH  14  15
ENDBRANCH   2  14
TORSDOF 4
ENDMDL
