MODEL 1
REMARK VINA RESULT:      -9.5      0.000      0.000
REMARK  3 active torsions:
REMARK  status: ('A' for Active; 'I' for Inactive)
REMARK    1  A    between atoms: N_2  and  S_1 
REMARK    2  A    between atoms: C_4  and  S_1 
REMARK    3  A    between atoms: C_3  and  N_2 
ROOT
ATOM      1  N   UNL d   1      52.374  34.199  53.614  0.00  0.00    -0.157 NA
ENDROOT
BRANCH   1   2
ATOM      2  S   UNL d   1      51.709  34.249  53.127  0.00  0.00     0.285 S 
ATOM      3  O   UNL d   1      51.255  33.885  53.711  0.00  0.00    -0.198 OA
ATOM      4  O   UNL d   1      52.161  34.617  52.535  0.00  0.00    -0.198 OA
BRANCH   2   5
ATOM      5  C   UNL d   1      51.046  34.300  52.640  0.00  0.00     0.105 A 
ATOM      6  C   UNL d   1      50.289  34.392  52.975  0.00  0.00     0.013 A 
ATOM      7  C   UNL d   1      49.624  34.443  52.487  0.00  0.00     0.001 A 
ATOM      8  C   UNL d   1      49.707  34.402  51.669  0.00  0.00     0.000 A 
ATOM      9  C   UNL d   1      50.455  34.311  51.334  0.00  0.00     0.001 A 
ATOM     10  C   UNL d   1      49.036  34.454  51.185  0.00  0.00     0.000 C 
ATOM     11  C   UNL d   1      51.122  34.260  51.819  0.00  0.00     0.013 A 
ENDBRANCH   2   5
ENDBRANCH   1   2
BRANCH   1  12
ATOM     12  C   UNL d   1      52.818  33.504  53.634  0.00  0.00     0.111 A 
ATOM     13  C   UNL d   1      53.470  33.442  54.139  0.00  0.00     0.100 A 
ATOM     14  N   UNL d   1      53.679  34.084  54.629  0.00  0.00    -0.242 NA
ATOM     15  C   UNL d   1      53.914  32.747  54.159  0.00  0.00     0.019 A 
ATOM     16  C   UNL d   1      54.334  34.023  55.137  0.00  0.00     0.099 A 
ATOM     17  C   UNL d   1      54.778  33.328  55.157  0.00  0.00     0.021 A 
ATOM     18  C   UNL d   1      54.570  32.692  54.670  0.00  0.00     0.003 A 
ATOM     19  C   UNL d   1      53.708  32.112  53.675  0.00  0.00     0.002 A 
ATOM     20  C   UNL d   1      53.058  32.171  53.170  0.00  0.00     0.002 A 
ATOM     21  C   UNL d   1      52.614  32.866  53.150  0.00  0.00     0.021 A 
ENDBRANCH   1  12
TORSDOF 3
ENDMDL
MODEL 2
REMARK VINA RESULT:      -9.2      0.791      1.528
REMARK  3 active torsions:
REMARK  status: ('A' for Active; 'I' for Inactive)
REMARK    1  A    between atoms: N_2  and  S_1 
REMARK    2  A    between atoms: C_4  and  S_1 
REMARK    3  A    between atoms: C_3  and  N_2 
ROOT
ATOM      1  N   UNL d   1      52.228  33.496  53.209  0.00  0.00    -0.157 NA
ENDROOT
BRANCH   1   2
ATOM      2  S   UNL d   1      51.528  33.779  52.875  0.00  0.00     0.285 S 
ATOM      3  O   UNL d   1      51.952  34.059  52.225  0.00  0.00    -0.198 OA
ATOM      4  O   UNL d   1      51.094  33.500  53.526  0.00  0.00    -0.198 OA
BRANCH   2   5
ATOM      5  C   UNL d   1      50.829  34.062  52.542  0.00  0.00     0.105 A 
ATOM      6  C   UNL d   1      50.742  34.089  51.714  0.00  0.00     0.013 A 
ATOM      7  C   UNL d   1      50.042  34.372  51.381  0.00  0.00     0.001 A 
ATOM      8  C   UNL d   1      49.426  34.628  51.864  0.00  0.00     0.000 A 
ATOM      9  C   UNL d   1      49.508  34.602  52.684  0.00  0.00     0.001 A 
ATOM     10  C   UNL d   1      48.726  34.911  51.523  0.00  0.00     0.000 C 
ATOM     11  C   UNL d   1      50.208  34.319  53.021  0.00  0.00     0.013 A 
ENDBRANCH   2   5
ENDBRANCH   1   2
BRANCH   1  12
ATOM     12  C   UNL d   1      52.677  33.984  53.699  0.00  0.00     0.111 A 
ATOM     13  C   UNL d   1      53.264  33.661  54.183  0.00  0.00     0.100 A 
ATOM     14  N   UNL d   1      53.402  32.838  54.177  0.00  0.00    -0.242 NA
ATOM     15  C   UNL d   1      53.714  34.149  54.673  0.00  0.00     0.019 A 
ATOM     16  C   UNL d   1      53.991  32.511  54.662  0.00  0.00     0.099 A 
ATOM     17  C   UNL d   1      54.441  32.999  55.152  0.00  0.00     0.021 A 
ATOM     18  C   UNL d   1      54.303  33.816  55.158  0.00  0.00     0.003 A 
ATOM     19  C   UNL d   1      53.579  34.963  54.680  0.00  0.00     0.002 A 
ATOM     20  C   UNL d   1      52.994  35.289  54.198  0.00  0.00     0.002 A 
ATOM     21  C   UNL d   1      52.544  34.800  53.708  0.00  0.00     0.021 A 
ENDBRANCH   1  12
TORSDOF 3
ENDMDL
MODEL 3
REMARK VINA RESULT:      -9.1      2.172      3.723
REMARK  3 active torsions:
REMARK  status: ('A' for Active; 'I' for Inactive)
REMARK    1  A    between atoms: N_2  and  S_1 
REMARK    2  A    between atoms: C_4  and  S_1 
REMARK    3  A    between atoms: C_3  and  N_2 
ROOT
ATOM      1  N   UNL d   1      53.546  32.783  53.273  0.00  0.00    -0.157 NA
ENDROOT
BRANCH   1   2
ATOM      2  S   UNL d   1      53.400  31.972  53.322  0.00  0.00     0.285 S 
ATOM      3  O   UNL d   1      54.205  31.821  53.232  0.00  0.00    -0.198 OA
ATOM      4  O   UNL d   1      52.587  32.116  53.414  0.00  0.00    -0.198 OA
BRANCH   2   5
ATOM      5  C   UNL d   1      53.253  31.162  53.372  0.00  0.00     0.105 A 
ATOM      6  C   UNL d   1      52.581  30.837  53.002  0.00  0.00     0.013 A 
ATOM      7  C   UNL d   1      52.434  30.026  53.052  0.00  0.00     0.001 A 
ATOM      8  C   UNL d   1      52.949  29.536  53.467  0.00  0.00     0.000 A 
ATOM      9  C   UNL d   1      53.615  29.854  53.835  0.00  0.00     0.001 A 
ATOM     10  C   UNL d   1      52.795  28.723  53.513  0.00  0.00     0.000 C 
ATOM     11  C   UNL d   1      53.765  30.666  53.787  0.00  0.00     0.013 A 
ENDBRANCH   2   5
ENDBRANCH   1   2
BRANCH   1  12
ATOM     12  C   UNL d   1      53.722  33.212  53.955  0.00  0.00     0.111 A 
ATOM     13  C   UNL d   1      53.440  33.984  54.045  0.00  0.00     0.100 A 
ATOM     14  N   UNL d   1      52.976  34.330  53.443  0.00  0.00    -0.242 NA
ATOM     15  C   UNL d   1      53.615  34.414  54.727  0.00  0.00     0.019 A 
ATOM     16  C   UNL d   1      52.692  35.106  53.531  0.00  0.00     0.099 A 
ATOM     17  C   UNL d   1      52.867  35.535  54.213  0.00  0.00     0.021 A 
ATOM     18  C   UNL d   1      53.327  35.191  54.810  0.00  0.00     0.003 A 
ATOM     19  C   UNL d   1      54.073  34.073  55.322  0.00  0.00     0.002 A 
ATOM     20  C   UNL d   1      54.356  33.303  55.236  0.00  0.00     0.002 A 
ATOM     21  C   UNL d   1      54.181  32.873  54.553  0.00  0.00     0.021 A 
ENDBRANCH   1  12
TORSDOF 3
ENDMDL
MODEL 4
REMARK VINA RESULT:      -7.9      2.511      3.517
REMARK  3 active torsions:
REMARK  status: ('A' for Active; 'I' for Inactive)
REMARK    1  A    between atoms: N_2  and  S_1 
REMARK    2  A    between atoms: C_4  and  S_1 
REMARK    3  A    between atoms: C_3  and  N_2 
ROOT
ATOM      1  N   UNL d   1      53.962  31.834  54.036  0.00  0.00    -0.157 NA
ENDROOT
BRANCH   1   2
ATOM      2  S   UNL d   1      53.775  32.633  54.119  0.00  0.00     0.285 S 
ATOM      3  O   UNL d   1      54.227  32.809  53.453  0.00  0.00    -0.198 OA
ATOM      4  O   UNL d   1      53.317  32.465  54.792  0.00  0.00    -0.198 OA
BRANCH   2   5
ATOM      5  C   UNL d   1      53.588  33.432  54.204  0.00  0.00     0.105 A 
ATOM      6  C   UNL d   1      53.650  33.799  54.949  0.00  0.00     0.013 A 
ATOM      7  C   UNL d   1      53.462  34.598  55.033  0.00  0.00     0.001 A 
ATOM      8  C   UNL d   1      53.214  35.037  54.382  0.00  0.00     0.000 A 
ATOM      9  C   UNL d   1      53.151  34.677  53.642  0.00  0.00     0.001 A 
ATOM     10  C   UNL d   1      53.027  35.839  54.474  0.00  0.00     0.000 C 
ATOM     11  C   UNL d   1      53.338  33.877  53.554  0.00  0.00     0.013 A 
ENDBRANCH   2   5
ENDBRANCH   1   2
BRANCH   1  12
ATOM     12  C   UNL d   1      53.466  31.338  53.601  0.00  0.00     0.111 A 
ATOM     13  C   UNL d   1      53.382  30.544  53.813  0.00  0.00     0.100 A 
ATOM     14  N   UNL d   1      53.800  30.242  54.470  0.00  0.00    -0.242 NA
ATOM     15  C   UNL d   1      52.886  30.048  53.378  0.00  0.00     0.019 A 
ATOM     16  C   UNL d   1      53.717  29.444  54.685  0.00  0.00     0.099 A 
ATOM     17  C   UNL d   1      53.221  28.948  54.250  0.00  0.00     0.021 A 
ATOM     18  C   UNL d   1      52.806  29.249  53.598  0.00  0.00     0.003 A 
ATOM     19  C   UNL d   1      52.472  30.345  52.730  0.00  0.00     0.002 A 
ATOM     20  C   UNL d   1      52.554  31.138  52.515  0.00  0.00     0.002 A 
ATOM     21  C   UNL d   1      53.050  31.633  52.950  0.00  0.00     0.021 A 
ENDBRANCH   1  12
TORSDOF 3
ENDMDL
