MODEL 1
REMARK VINA RESULT:      43.7      0.000      0.000
REMARK  6 active torsions:
REMARK  status: ('A' for Active; 'I' for Inactive)
REMARK       I    between atoms: C_6  and  N_1 
REMARK    1  A    between atoms: C_7  and  C_3 
REMARK    2  A    between atoms: C_14  and  C_4 
REMARK    3  A    between atoms: C_20  and  C_6 
REMARK    4  A    between atoms: C_11  and  C_22 
REMARK    5  A    between atoms: C_21  and  C_20 
REMARK    6  A    between atoms: C_22  and  C_21 
ROOT
ATOM      1  N   UNL d   1      46.061 -16.927  43.760  0.00  0.00    -0.195 N 
ATOM      2  N   UNL d   1      45.906 -16.225  44.197  0.00  0.00    -0.163 NA
ATOM      3  C   UNL d   1      45.979 -16.751  42.970  0.00  0.00     0.088 A 
ATOM      4  C   UNL d   1      45.731 -15.628  43.651  0.00  0.00     0.103 A 
ATOM      5  C   UNL d   1      45.781 -15.973  42.888  0.00  0.00     0.040 A 
ATOM      6  C   UNL d   1      46.267 -17.683  44.121  0.00  0.00     0.280 C 
ATOM      7  O   UNL d   1      46.322 -17.744  44.953  0.00  0.00    -0.265 OA
ENDROOT
BRANCH   3   8
ATOM      8  C   UNL d   1      46.084 -17.288  42.350  0.00  0.00     0.019 A 
ATOM      9  C   UNL d   1      45.747 -18.016  42.371  0.00  0.00     0.022 A 
ATOM     10  C   UNL d   1      45.852 -18.553  41.750  0.00  0.00     0.099 A 
ATOM     11  N   UNL d   1      45.509 -19.265  41.796  0.00  0.00    -0.241 NA
ATOM     12  C   UNL d   1      46.311 -18.342  41.094  0.00  0.00     0.099 A 
ATOM     13  C   UNL d   1      45.618 -19.821  41.153  0.00  0.00     0.120 A 
ATOM     14  C   UNL d   1      46.062 -19.627  40.508  0.00  0.00     0.120 A 
ATOM     15  N   UNL d   1      46.412 -18.860  40.495  0.00  0.00    -0.241 NA
ATOM     16  C   UNL d   1      46.645 -17.594  41.094  0.00  0.00     0.021 A 
ATOM     17  C   UNL d   1      46.543 -17.076  41.693  0.00  0.00     0.003 A 
ENDBRANCH   3   8
BRANCH   6  18
ATOM     18  C   UNL d   1      46.403 -18.318  43.630  0.00  0.00     0.063 C 
BRANCH  18  19
ATOM     19  C   UNL d   1      46.646 -19.043  43.963  0.00  0.00     0.011 C 
BRANCH  19  20
ATOM     20  C   UNL d   1      46.148 -19.400  44.509  0.00  0.00     0.070 C 
BRANCH  20  21
ATOM     21  C   UNL d   1      45.622 -19.992  44.292  0.00  0.00     0.211 C 
ATOM     22  O   UNL d   1      45.059 -20.253  44.844  0.00  0.00    -0.644 OA
ATOM     23  O   UNL d   1      45.641 -20.329  43.543  0.00  0.00    -0.644 OA
ENDBRANCH  20  21
ENDBRANCH  19  20
ENDBRANCH  18  19
ENDBRANCH   6  18
BRANCH   4  24
ATOM     24  C   UNL d   1      45.539 -14.825  43.840  0.00  0.00     0.019 A 
ATOM     25  C   UNL d   1      45.142 -14.657  44.517  0.00  0.00     0.002 A 
ATOM     26  C   UNL d   1      44.948 -13.879  44.714  0.00  0.00     0.000 A 
ATOM     27  C   UNL d   1      45.166 -13.275  44.209  0.00  0.00     0.000 A 
ATOM     28  C   UNL d   1      45.575 -13.451  43.513  0.00  0.00     0.000 A 
ATOM     29  C   UNL d   1      45.768 -14.228  43.315  0.00  0.00     0.002 A 
ENDBRANCH   4  24
TORSDOF 6
ENDMDL
