MODEL 1
REMARK VINA RESULT:      13.1      0.000      0.000
REMARK  1 active torsions:
REMARK  status: ('A' for Active; 'I' for Inactive)
REMARK    1  A    between atoms: C_6  and  C_1 
ROOT
ATOM      1  C   UNL d   1      43.981 -15.434  36.716  0.00  0.00     0.162 A 
ATOM      2  N   UNL d   1      44.270 -14.813  37.117  0.00  0.00    -0.225 NA
ATOM      3  N   UNL d   1      44.622 -15.829  36.369  0.00  0.00    -0.225 NA
ATOM      4  C   UNL d   1      45.085 -14.789  37.044  0.00  0.00     0.101 A 
ATOM      5  C   UNL d   1      45.307 -15.430  36.572  0.00  0.00     0.101 A 
ATOM      6  C   UNL d   1      45.621 -14.278  37.341  0.00  0.00     0.021 A 
ATOM      7  C   UNL d   1      46.061 -15.549  36.404  0.00  0.00     0.021 A 
ATOM      8  C   UNL d   1      46.425 -14.410  37.159  0.00  0.00     0.002 A 
ATOM      9  C   UNL d   1      46.647 -15.051  36.687  0.00  0.00     0.002 A 
ENDROOT
BRANCH   1  10
ATOM     10  C   UNL d   1      43.258 -15.686  36.620  0.00  0.00     0.036 A 
ATOM     11  C   UNL d   1      43.124 -16.480  36.440  0.00  0.00     0.005 A 
ATOM     12  C   UNL d   1      42.335 -16.750  36.337  0.00  0.00     0.021 A 
ATOM     13  C   UNL d   1      41.707 -16.187  36.424  0.00  0.00     0.103 A 
ATOM     14  C   UNL d   1      41.850 -15.423  36.599  0.00  0.00     0.021 A 
ATOM     15  N   UNL d   1      40.903 -16.404  36.332  0.00  0.00    -0.148 N 
ATOM     16  C   UNL d   1      42.638 -15.153  36.702  0.00  0.00     0.005 A 
ENDBRANCH   1  10
TORSDOF 1
ENDMDL
MODEL 2
REMARK VINA RESULT:      14.5      7.791      8.509
REMARK  1 active torsions:
REMARK  status: ('A' for Active; 'I' for Inactive)
REMARK    1  A    between atoms: C_6  and  C_1 
ROOT
ATOM      1  C   UNL d   1      45.928 -16.843  44.442  0.00  0.00     0.162 A 
ATOM      2  N   UNL d   1      46.039 -17.444  44.948  0.00  0.00    -0.225 NA
ATOM      3  N   UNL d   1      46.053 -17.133  43.675  0.00  0.00    -0.225 NA
ATOM      4  C   UNL d   1      46.235 -18.123  44.535  0.00  0.00     0.101 A 
ATOM      5  C   UNL d   1      46.243 -17.927  43.732  0.00  0.00     0.101 A 
ATOM      6  C   UNL d   1      46.397 -18.861  44.790  0.00  0.00     0.021 A 
ATOM      7  C   UNL d   1      46.415 -18.472  43.198  0.00  0.00     0.021 A 
ATOM      8  C   UNL d   1      46.579 -19.439  44.217  0.00  0.00     0.002 A 
ATOM      9  C   UNL d   1      46.588 -19.243  43.414  0.00  0.00     0.002 A 
ENDROOT
BRANCH   1  10
ATOM     10  C   UNL d   1      45.738 -16.104  44.563  0.00  0.00     0.036 A 
ATOM     11  C   UNL d   1      44.979 -15.916  44.825  0.00  0.00     0.005 A 
ATOM     12  C   UNL d   1      44.778 -15.111  44.955  0.00  0.00     0.021 A 
ATOM     13  C   UNL d   1      45.371 -14.524  44.809  0.00  0.00     0.103 A 
ATOM     14  C   UNL d   1      46.101 -14.718  44.555  0.00  0.00     0.021 A 
ATOM     15  N   UNL d   1      45.222 -13.707  44.923  0.00  0.00    -0.148 N 
ATOM     16  C   UNL d   1      46.303 -15.523  44.425  0.00  0.00     0.005 A 
ENDBRANCH   1  10
TORSDOF 1
ENDMDL
MODEL 3
REMARK VINA RESULT:      14.9      7.746      8.393
REMARK  1 active torsions:
REMARK  status: ('A' for Active; 'I' for Inactive)
REMARK    1  A    between atoms: C_6  and  C_1 
ROOT
ATOM      1  C   UNL d   1      45.767 -16.420  44.411  0.00  0.00     0.162 A 
ATOM      2  N   UNL d   1      45.099 -16.104  44.702  0.00  0.00    -0.225 NA
ATOM      3  N   UNL d   1      46.281 -15.797  44.227  0.00  0.00    -0.225 NA
ATOM      4  C   UNL d   1      45.161 -15.287  44.715  0.00  0.00     0.101 A 
ATOM      5  C   UNL d   1      45.906 -15.094  44.416  0.00  0.00     0.101 A 
ATOM      6  C   UNL d   1      44.644 -14.729  44.955  0.00  0.00     0.021 A 
ATOM      7  C   UNL d   1      46.123 -14.345  44.361  0.00  0.00     0.021 A 
ATOM      8  C   UNL d   1      44.881 -13.931  44.895  0.00  0.00     0.002 A 
ATOM      9  C   UNL d   1      45.626 -13.737  44.596  0.00  0.00     0.002 A 
ENDROOT
BRANCH   1  10
ATOM     10  C   UNL d   1      45.972 -17.155  44.291  0.00  0.00     0.036 A 
ATOM     11  C   UNL d   1      46.103 -17.421  43.522  0.00  0.00     0.005 A 
ATOM     12  C   UNL d   1      46.326 -18.221  43.396  0.00  0.00     0.021 A 
ATOM     13  C   UNL d   1      46.406 -18.723  44.075  0.00  0.00     0.103 A 
ATOM     14  C   UNL d   1      46.276 -18.454  44.814  0.00  0.00     0.021 A 
ATOM     15  N   UNL d   1      46.626 -19.528  44.005  0.00  0.00    -0.148 N 
ATOM     16  C   UNL d   1      46.053 -17.654  44.939  0.00  0.00     0.005 A 
ENDBRANCH   1  10
TORSDOF 1
ENDMDL
MODEL 4
REMARK VINA RESULT:      15.5      7.661      8.243
REMARK  1 active torsions:
REMARK  status: ('A' for Active; 'I' for Inactive)
REMARK    1  A    between atoms: C_6  and  C_1 
ROOT
ATOM      1  C   UNL d   1      45.704 -14.761  44.427  0.00  0.00     0.162 A 
ATOM      2  N   UNL d   1      46.050 -14.232  44.907  0.00  0.00    -0.225 NA
ATOM      3  N   UNL d   1      45.289 -14.339  43.846  0.00  0.00    -0.225 NA
ATOM      4  C   UNL d   1      45.874 -13.472  44.659  0.00  0.00     0.101 A 
ATOM      5  C   UNL d   1      45.394 -13.540  43.990  0.00  0.00     0.101 A 
ATOM      6  C   UNL d   1      46.089 -12.763  44.955  0.00  0.00     0.021 A 
ATOM      7  C   UNL d   1      45.137 -12.896  43.627  0.00  0.00     0.021 A 
ATOM      8  C   UNL d   1      45.811 -12.080  44.565  0.00  0.00     0.002 A 
ATOM      9  C   UNL d   1      45.331 -12.147  43.896  0.00  0.00     0.002 A 
ENDROOT
BRANCH   1  10
ATOM     10  C   UNL d   1      45.707 -15.533  44.433  0.00  0.00     0.036 A 
ATOM     11  C   UNL d   1      45.207 -15.937  44.951  0.00  0.00     0.005 A 
ATOM     12  C   UNL d   1      45.214 -16.777  44.954  0.00  0.00     0.021 A 
ATOM     13  C   UNL d   1      45.738 -17.174  44.420  0.00  0.00     0.103 A 
ATOM     14  C   UNL d   1      46.216 -16.772  43.925  0.00  0.00     0.021 A 
ATOM     15  N   UNL d   1      45.783 -18.010  44.383  0.00  0.00    -0.148 N 
ATOM     16  C   UNL d   1      46.210 -15.932  43.921  0.00  0.00     0.005 A 
ENDBRANCH   1  10
TORSDOF 1
ENDMDL
