MODEL 1
REMARK VINA RESULT:     -10.8      0.000      0.000
REMARK  5 active torsions:
REMARK  status: ('A' for Active; 'I' for Inactive)
REMARK    1  A    between atoms: C_10  and  C_4 
REMARK    2  A    between atoms: N_11  and  C_7 
REMARK    3  A    between atoms: C_13  and  N_11 
REMARK    4  A    between atoms: C_15  and  C_13 
REMARK    5  A    between atoms: O_25  and  C_17 
ROOT
ATOM      1  C   UNL d   1      52.773  34.207  53.782  0.00  0.00     0.186 A 
ATOM      2  N   UNL d   1      53.273  34.660  54.280  0.00  0.00    -0.193 N 
ATOM      3  N   UNL d   1      52.967  33.416  53.626  0.00  0.00    -0.206 NA
ATOM      4  C   UNL d   1      52.150  34.698  53.541  0.00  0.00     0.140 A 
ATOM      5  N   UNL d   1      52.951  35.424  54.340  0.00  0.00    -0.058 NA
ATOM      6  N   UNL d   1      52.260  35.442  53.883  0.00  0.00    -0.127 NA
ATOM      7  C   UNL d   1      53.639  33.072  53.953  0.00  0.00     0.166 A 
ATOM      8  C   UNL d   1      54.127  33.529  54.445  0.00  0.00     0.054 A 
ATOM      9  C   UNL d   1      53.946  34.316  54.607  0.00  0.00     0.089 A 
ATOM     10  C   UNL d   1      54.800  33.184  54.772  0.00  0.00     0.005 A 
ATOM     11  C   UNL d   1      54.436  34.761  55.097  0.00  0.00     0.019 A 
ATOM     12  C   UNL d   1      55.291  33.629  55.262  0.00  0.00     0.000 A 
ATOM     13  C   UNL d   1      55.109  34.416  55.424  0.00  0.00     0.002 A 
ENDROOT
BRANCH   7  14
ATOM     14  N   UNL d   1      53.831  32.285  53.798  0.00  0.00    -0.225 NA
BRANCH  14  15
ATOM     15  C   UNL d   1      53.322  31.822  53.338  0.00  0.00     0.101 C 
BRANCH  15  16
ATOM     16  C   UNL d   1      53.253  31.011  53.476  0.00  0.00     0.019 A 
ATOM     17  C   UNL d   1      53.894  30.587  53.770  0.00  0.00     0.004 A 
ATOM     18  C   UNL d   1      53.825  29.776  53.908  0.00  0.00     0.024 A 
ATOM     19  C   UNL d   1      53.104  29.390  53.746  0.00  0.00     0.094 A 
ATOM     20  C   UNL d   1      52.464  29.827  53.449  0.00  0.00     0.024 A 
ATOM     21  C   UNL d   1      52.544  30.637  53.316  0.00  0.00     0.004 A 
BRANCH  19  22
ATOM     22  O   UNL d   1      53.032  28.580  53.882  0.00  0.00    -0.328 OA
ATOM     23  C   UNL d   1      53.334  28.254  54.579  0.00  0.00     0.181 C 
ENDBRANCH  19  22
ENDBRANCH  15  16
ENDBRANCH  14  15
ENDBRANCH   7  14
BRANCH   4  24
ATOM     24  C   UNL d   1      51.536  34.474  53.048  0.00  0.00     0.025 A 
ATOM     25  C   UNL d   1      51.639  34.505  52.232  0.00  0.00     0.031 A 
ATOM     26  C   UNL d   1      51.020  34.279  51.726  0.00  0.00     0.140 A 
ATOM     27  F   UNL d   1      51.124  34.310  50.909  0.00  0.00    -0.204 F 
ATOM     28  C   UNL d   1      50.304  34.024  52.048  0.00  0.00     0.030 A 
ATOM     29  C   UNL d   1      50.209  33.996  52.874  0.00  0.00     0.002 A 
ATOM     30  C   UNL d   1      50.822  34.220  53.368  0.00  0.00     0.002 A 
ENDBRANCH   4  24
TORSDOF 5
ENDMDL
MODEL 2
REMARK VINA RESULT:     -10.4      1.399      3.278
REMARK  5 active torsions:
REMARK  status: ('A' for Active; 'I' for Inactive)
REMARK    1  A    between atoms: C_10  and  C_4 
REMARK    2  A    between atoms: N_11  and  C_7 
REMARK    3  A    between atoms: C_13  and  N_11 
REMARK    4  A    between atoms: C_15  and  C_13 
REMARK    5  A    between atoms: O_25  and  C_17 
ROOT
ATOM      1  C   UNL d   1      52.840  34.066  53.885  0.00  0.00     0.186 A 
ATOM      2  N   UNL d   1      52.218  34.582  53.663  0.00  0.00    -0.193 N 
ATOM      3  N   UNL d   1      52.796  33.264  53.679  0.00  0.00    -0.206 NA
ATOM      4  C   UNL d   1      53.403  34.518  54.294  0.00  0.00     0.140 A 
ATOM      5  N   UNL d   1      52.405  35.343  53.937  0.00  0.00    -0.058 NA
ATOM      6  N   UNL d   1      53.136  35.298  54.325  0.00  0.00    -0.127 NA
ATOM      7  C   UNL d   1      52.151  32.969  53.261  0.00  0.00     0.166 A 
ATOM      8  C   UNL d   1      51.539  33.488  53.045  0.00  0.00     0.054 A 
ATOM      9  C   UNL d   1      51.572  34.287  53.244  0.00  0.00     0.089 A 
ATOM     10  C   UNL d   1      50.894  33.193  52.627  0.00  0.00     0.005 A 
ATOM     11  C   UNL d   1      50.960  34.792  53.026  0.00  0.00     0.019 A 
ATOM     12  C   UNL d   1      50.282  33.699  52.408  0.00  0.00     0.000 A 
ATOM     13  C   UNL d   1      50.315  34.497  52.607  0.00  0.00     0.002 A 
ENDROOT
BRANCH   7  14
ATOM     14  N   UNL d   1      52.106  32.172  53.056  0.00  0.00    -0.225 NA
BRANCH  14  15
ATOM     15  C   UNL d   1      52.801  31.752  52.891  0.00  0.00     0.101 C 
BRANCH  15  16
ATOM     16  C   UNL d   1      52.905  30.986  53.179  0.00  0.00     0.019 A 
ATOM     17  C   UNL d   1      52.330  30.413  53.046  0.00  0.00     0.004 A 
ATOM     18  C   UNL d   1      52.435  29.647  53.334  0.00  0.00     0.024 A 
ATOM     19  C   UNL d   1      53.127  29.457  53.759  0.00  0.00     0.094 A 
ATOM     20  C   UNL d   1      53.700  30.042  53.888  0.00  0.00     0.024 A 
ATOM     21  C   UNL d   1      53.585  30.805  53.596  0.00  0.00     0.004 A 
BRANCH  19  22
ATOM     22  O   UNL d   1      53.235  28.692  54.049  0.00  0.00    -0.328 OA
ATOM     23  C   UNL d   1      53.406  28.579  54.850  0.00  0.00     0.181 C 
ENDBRANCH  19  22
ENDBRANCH  15  16
ENDBRANCH  14  15
ENDBRANCH   7  14
BRANCH   4  24
ATOM     24  C   UNL d   1      54.101  34.229  54.609  0.00  0.00     0.025 A 
ATOM     25  C   UNL d   1      54.092  33.858  55.344  0.00  0.00     0.031 A 
ATOM     26  C   UNL d   1      54.797  33.563  55.670  0.00  0.00     0.140 A 
ATOM     27  F   UNL d   1      54.787  33.192  56.405  0.00  0.00    -0.204 F 
ATOM     28  C   UNL d   1      55.504  33.644  55.251  0.00  0.00     0.030 A 
ATOM     29  C   UNL d   1      55.504  34.019  54.508  0.00  0.00     0.002 A 
ATOM     30  C   UNL d   1      54.806  34.309  54.192  0.00  0.00     0.002 A 
ENDBRANCH   4  24
TORSDOF 5
ENDMDL
MODEL 3
REMARK VINA RESULT:      -9.7      2.098      4.359
REMARK  5 active torsions:
REMARK  status: ('A' for Active; 'I' for Inactive)
REMARK    1  A    between atoms: C_10  and  C_4 
REMARK    2  A    between atoms: N_11  and  C_7 
REMARK    3  A    between atoms: C_13  and  N_11 
REMARK    4  A    between atoms: C_15  and  C_13 
REMARK    5  A    between atoms: O_25  and  C_17 
ROOT
ATOM      1  C   UNL d   1      53.317  32.837  54.011  0.00  0.00     0.186 A 
ATOM      2  N   UNL d   1      53.724  33.356  54.528  0.00  0.00    -0.193 N 
ATOM      3  N   UNL d   1      52.707  33.134  53.535  0.00  0.00    -0.206 NA
ATOM      4  C   UNL d   1      53.648  32.083  54.106  0.00  0.00     0.140 A 
ATOM      5  N   UNL d   1      54.300  32.916  54.933  0.00  0.00    -0.058 NA
ATOM      6  N   UNL d   1      54.249  32.132  54.670  0.00  0.00    -0.127 NA
ATOM      7  C   UNL d   1      52.497  33.929  53.562  0.00  0.00     0.166 A 
ATOM      8  C   UNL d   1      52.906  34.437  54.078  0.00  0.00     0.054 A 
ATOM      9  C   UNL d   1      53.514  34.153  54.556  0.00  0.00     0.089 A 
ATOM     10  C   UNL d   1      52.695  35.232  54.105  0.00  0.00     0.005 A 
ATOM     11  C   UNL d   1      53.913  34.664  55.063  0.00  0.00     0.019 A 
ATOM     12  C   UNL d   1      53.095  35.744  54.613  0.00  0.00     0.000 A 
ATOM     13  C   UNL d   1      53.703  35.460  55.091  0.00  0.00     0.002 A 
ENDROOT
BRANCH   7  14
ATOM     14  N   UNL d   1      51.891  34.225  53.089  0.00  0.00    -0.225 NA
BRANCH  14  15
ATOM     15  C   UNL d   1      51.223  33.758  52.939  0.00  0.00     0.101 C 
BRANCH  15  16
ATOM     16  C   UNL d   1      50.579  34.068  52.527  0.00  0.00     0.019 A 
ATOM     17  C   UNL d   1      50.574  34.065  51.704  0.00  0.00     0.004 A 
ATOM     18  C   UNL d   1      49.929  34.375  51.293  0.00  0.00     0.024 A 
ATOM     19  C   UNL d   1      49.284  34.691  51.716  0.00  0.00     0.094 A 
ATOM     20  C   UNL d   1      49.298  34.689  52.545  0.00  0.00     0.024 A 
ATOM     21  C   UNL d   1      49.948  34.377  52.946  0.00  0.00     0.004 A 
BRANCH  19  22
ATOM     22  O   UNL d   1      48.637  35.001  51.308  0.00  0.00    -0.328 OA
ATOM     23  C   UNL d   1      48.316  34.582  50.672  0.00  0.00     0.181 C 
ENDBRANCH  19  22
ENDBRANCH  15  16
ENDBRANCH  14  15
ENDBRANCH   7  14
BRANCH   4  24
ATOM     24  C   UNL d   1      53.412  31.410  53.703  0.00  0.00     0.025 A 
ATOM     25  C   UNL d   1      52.973  30.835  54.096  0.00  0.00     0.031 A 
ATOM     26  C   UNL d   1      52.730  30.150  53.694  0.00  0.00     0.140 A 
ATOM     27  F   UNL d   1      52.290  29.575  54.087  0.00  0.00    -0.204 F 
ATOM     28  C   UNL d   1      52.933  30.051  52.900  0.00  0.00     0.030 A 
ATOM     29  C   UNL d   1      53.378  30.637  52.510  0.00  0.00     0.002 A 
ATOM     30  C   UNL d   1      53.614  31.310  52.912  0.00  0.00     0.002 A 
ENDBRANCH   4  24
TORSDOF 5
ENDMDL
