MODEL 1
REMARK VINA RESULT:      51.0      0.000      0.000
REMARK  4 active torsions:
REMARK  status: ('A' for Active; 'I' for Inactive)
REMARK    1  A    between atoms: C_7  and  N_1 
REMARK    2  A    between atoms: C_9  and  C_7 
REMARK       I    between atoms: N_16  and  C_9 
REMARK    3  A    between atoms: C_21  and  N_16 
REMARK    4  A    between atoms: C_20  and  C_21 
ROOT
ATOM      1  C   UNL d   1     -56.813 -98.755 -43.977  0.00  0.00     0.146 C 
ENDROOT
BRANCH   1   2
ATOM      2  N   UNL d   1     -57.457 -98.756 -44.483  0.00  0.00    -0.269 N 
ATOM      3  C   UNL d   1     -57.308 -98.756 -45.288  0.00  0.00     0.265 A 
ATOM      4  C   UNL d   1     -57.907 -98.756 -45.912  0.00  0.00     0.068 A 
ATOM      5  O   UNL d   1     -56.504 -98.756 -45.523  0.00  0.00    -0.267 OA
ATOM      6  C   UNL d   1     -58.754 -98.756 -45.824  0.00  0.00     0.034 A 
ATOM      7  C   UNL d   1     -59.192 -98.757 -46.508  0.00  0.00     0.007 C 
ATOM      8  S   UNL d   1     -59.175 -98.756 -45.120  0.00  0.00    -0.085 SA
ATOM      9  C   UNL d   1     -58.894 -98.756 -44.479  0.00  0.00     0.046 A 
ATOM     10  C   UNL d   1     -58.111 -98.756 -44.168  0.00  0.00     0.073 A 
ATOM     11  C   UNL d   1     -59.545 -98.756 -43.950  0.00  0.00     0.008 A 
ATOM     12  C   UNL d   1     -57.982 -98.755 -43.346  0.00  0.00     0.018 A 
ATOM     13  C   UNL d   1     -58.631 -98.755 -42.825  0.00  0.00     0.002 A 
ATOM     14  C   UNL d   1     -59.416 -98.756 -43.128  0.00  0.00     0.001 A 
ENDBRANCH   1   2
BRANCH   1  15
ATOM     15  C   UNL d   1     -56.168 -99.236 -44.147  0.00  0.00     0.297 C 
ATOM     16  N   UNL d   1     -55.747 -99.604 -43.555  0.00  0.00    -0.205 NA
ATOM     17  O   UNL d   1     -55.948 -99.346 -44.928  0.00  0.00    -0.264 OA
BRANCH  16  18
ATOM     18  C   UNL d   1     -55.113-100.077 -43.729  0.00  0.00     0.102 C 
BRANCH  18  19
ATOM     19  C   UNL d   1     -55.012-100.789 -43.342  0.00  0.00     0.021 A 
ATOM     20  C   UNL d   1     -54.975-100.801 -42.520  0.00  0.00     0.028 A 
ATOM     21  C   UNL d   1     -54.873-101.526 -42.129  0.00  0.00     0.119 A 
ATOM     22  O   UNL d   1     -54.816-101.719 -41.348  0.00  0.00    -0.300 OA
ATOM     23  C   UNL d   1     -54.811-102.212 -42.565  0.00  0.00     0.119 A 
ATOM     24  C   UNL d   1     -54.718-102.526 -41.289  0.00  0.00     0.304 A 
ATOM     25  O   UNL d   1     -54.714-102.838 -42.042  0.00  0.00    -0.300 OA
ATOM     26  C   UNL d   1     -54.850-102.185 -43.389  0.00  0.00     0.026 A 
ATOM     27  C   UNL d   1     -54.951-101.467 -43.769  0.00  0.00     0.004 A 
ENDBRANCH  18  19
ENDBRANCH  16  18
ENDBRANCH   1  15
TORSDOF 4
ENDMDL
