MODEL 1
REMARK VINA RESULT:      -1.9      0.000      0.000
REMARK  7 active torsions:
REMARK  status: ('A' for Active; 'I' for Inactive)
REMARK    1  A    between atoms: C_11  and  C_4 
REMARK    2  A    between atoms: N_12  and  C_5 
REMARK    3  A    between atoms: C_10  and  C_8 
REMARK    4  A    between atoms: C_15  and  N_12 
REMARK    5  A    between atoms: N_13  and  C_19 
REMARK    6  A    between atoms: C_14  and  C_15 
REMARK    7  A    between atoms: C_19  and  C_14 
ROOT
ATOM      1  C   UNL d   1      58.752  -0.578  30.183  0.00  0.00     0.168 A 
ATOM      2  N   UNL d   1      58.118  -0.605  30.730  0.00  0.00    -0.184 N 
ATOM      3  N   UNL d   1      58.873  -1.202  29.670  0.00  0.00    -0.231 NA
ATOM      4  C   UNL d   1      59.243   0.064  30.161  0.00  0.00     0.057 A 
ATOM      5  C   UNL d   1      57.641  -1.255  30.734  0.00  0.00     0.217 A 
ATOM      6  N   UNL d   1      58.496   0.654  31.209  0.00  0.00    -0.160 NA
ATOM      7  C   UNL d   1      57.753  -1.887  30.225  0.00  0.00     0.067 A 
ATOM      8  C   UNL d   1      58.377  -1.860  29.686  0.00  0.00     0.064 A 
ATOM      9  C   UNL d   1      59.120   0.681  30.670  0.00  0.00     0.124 A 
ENDROOT
BRANCH   5  10
ATOM     10  N   UNL d   1      56.997  -1.282  31.291  0.00  0.00    -0.380 NA
BRANCH  10  11
ATOM     11  C   UNL d   1      56.408  -1.320  31.896  0.00  0.00     0.164 C 
BRANCH  11  12
ATOM     12  C   UNL d   1      56.483  -0.803  32.569  0.00  0.00     0.054 C 
BRANCH  12  13
ATOM     13  C   UNL d   1      55.775  -0.473  32.923  0.00  0.00     0.083 C 
BRANCH  13  14
ATOM     14  N   UNL d   1      55.843   0.063  33.575  0.00  0.00    -0.300 N 
ATOM     15  C   UNL d   1      55.018   0.258  33.533  0.00  0.00     0.100 C 
ATOM     16  C   UNL d   1      56.327   0.436  34.173  0.00  0.00     0.100 C 
ENDBRANCH  13  14
ENDBRANCH  12  13
ENDBRANCH  11  12
ENDBRANCH  10  11
ENDBRANCH   5  10
BRANCH   8  17
ATOM     17  C   UNL d   1      58.507  -2.511  29.149  0.00  0.00     0.036 C 
ATOM     18  C   UNL d   1      58.631  -3.151  28.616  0.00  0.00     0.006 C 
ATOM     19  C   UNL d   1      59.131  -3.067  29.304  0.00  0.00     0.006 C 
ATOM     20  C   UNL d   1      58.009  -2.599  28.459  0.00  0.00     0.006 C 
ENDBRANCH   8  17
BRANCH   4  21
ATOM     21  C   UNL d   1      59.867   0.091  29.622  0.00  0.00     0.004 A 
ATOM     22  C   UNL d   1      59.823   0.590  28.994  0.00  0.00     0.000 A 
ATOM     23  C   UNL d   1      60.447   0.616  28.455  0.00  0.00     0.000 A 
ATOM     24  C   UNL d   1      61.095   0.143  28.561  0.00  0.00     0.000 A 
ATOM     25  C   UNL d   1      61.133  -0.362  29.201  0.00  0.00     0.000 A 
ATOM     26  C   UNL d   1      60.509  -0.388  29.740  0.00  0.00     0.000 A 
ENDBRANCH   4  21
TORSDOF 7
ENDMDL
MODEL 2
REMARK VINA RESULT:       1.0      1.207      2.639
REMARK  7 active torsions:
REMARK  status: ('A' for Active; 'I' for Inactive)
REMARK    1  A    between atoms: C_11  and  C_4 
REMARK    2  A    between atoms: N_12  and  C_5 
REMARK    3  A    between atoms: C_10  and  C_8 
REMARK    4  A    between atoms: C_15  and  N_12 
REMARK    5  A    between atoms: N_13  and  C_19 
REMARK    6  A    between atoms: C_14  and  C_15 
REMARK    7  A    between atoms: C_19  and  C_14 
ROOT
ATOM      1  C   UNL d   1      58.877  -0.977  30.106  0.00  0.00     0.168 A 
ATOM      2  N   UNL d   1      58.169  -0.649  30.412  0.00  0.00    -0.184 N 
ATOM      3  N   UNL d   1      59.597  -0.648  30.306  0.00  0.00    -0.231 NA
ATOM      4  C   UNL d   1      58.847  -1.618  29.613  0.00  0.00     0.057 A 
ATOM      5  C   UNL d   1      58.222  -0.011  30.902  0.00  0.00     0.217 A 
ATOM      6  N   UNL d   1      57.435  -1.618  29.719  0.00  0.00    -0.160 NA
ATOM      7  C   UNL d   1      58.939   0.327  31.109  0.00  0.00     0.067 A 
ATOM      8  C   UNL d   1      59.636   0.005  30.808  0.00  0.00     0.064 A 
ATOM      9  C   UNL d   1      58.132  -1.941  29.417  0.00  0.00     0.124 A 
ENDROOT
BRANCH   5  10
ATOM     10  N   UNL d   1      57.503   0.323  31.213  0.00  0.00    -0.380 NA
BRANCH  10  11
ATOM     11  C   UNL d   1      56.765   0.584  31.532  0.00  0.00     0.164 C 
BRANCH  11  12
ATOM     12  C   UNL d   1      56.532   0.305  32.302  0.00  0.00     0.054 C 
BRANCH  12  13
ATOM     13  C   UNL d   1      55.751   0.498  32.599  0.00  0.00     0.083 C 
BRANCH  13  14
ATOM     14  N   UNL d   1      55.467   0.127  33.305  0.00  0.00    -0.300 N 
ATOM     15  C   UNL d   1      55.908   0.663  33.794  0.00  0.00     0.100 C 
ATOM     16  C   UNL d   1      54.990  -0.476  33.678  0.00  0.00     0.100 C 
ENDBRANCH  13  14
ENDBRANCH  12  13
ENDBRANCH  11  12
ENDBRANCH  10  11
ENDBRANCH   5  10
BRANCH   8  17
ATOM     17  C   UNL d   1      60.390   0.345  31.015  0.00  0.00     0.036 C 
ATOM     18  C   UNL d   1      61.133   0.681  31.224  0.00  0.00     0.006 C 
ATOM     19  C   UNL d   1      60.936   0.565  30.400  0.00  0.00     0.006 C 
ATOM     20  C   UNL d   1      60.592   0.464  31.837  0.00  0.00     0.006 C 
ENDBRANCH   8  17
BRANCH   4  21
ATOM     21  C   UNL d   1      59.544  -1.941  29.311  0.00  0.00     0.004 A 
ATOM     22  C   UNL d   1      59.790  -2.658  29.574  0.00  0.00     0.000 A 
ATOM     23  C   UNL d   1      60.487  -2.981  29.272  0.00  0.00     0.000 A 
ATOM     24  C   UNL d   1      60.915  -2.576  28.717  0.00  0.00     0.000 A 
ATOM     25  C   UNL d   1      60.659  -1.847  28.455  0.00  0.00     0.000 A 
ATOM     26  C   UNL d   1      59.962  -1.524  28.757  0.00  0.00     0.000 A 
ENDBRANCH   4  21
TORSDOF 7
ENDMDL
