MODEL 1
REMARK VINA RESULT:      -2.0      0.000      0.000
REMARK  4 active torsions:
REMARK  status: ('A' for Active; 'I' for Inactive)
REMARK    1  A    between atoms: N_2  and  S_1 
REMARK    2  A    between atoms: C_7  and  S_1 
REMARK    3  A    between atoms: C_11  and  C_4 
REMARK    4  A    between atoms: C_18  and  C_11 
ROOT
ATOM      1  N   UNL d   1      56.159  -0.707  32.723  0.00  0.00    -0.202 N 
ATOM      2  C   UNL d   1      56.072  -1.510  32.578  0.00  0.00     0.218 A 
ATOM      3  C   UNL d   1      56.662  -0.392  32.138  0.00  0.00     0.135 A 
ATOM      4  N   UNL d   1      56.517  -1.695  31.906  0.00  0.00    -0.178 NA
ATOM      5  C   UNL d   1      56.875  -1.002  31.644  0.00  0.00     0.298 A 
ATOM      6  S   UNL d   1      55.619  -2.052  33.021  0.00  0.00    -0.037 SA
ATOM      7  O   UNL d   1      57.376  -0.929  30.980  0.00  0.00    -0.264 OA
ENDROOT
BRANCH   1   8
ATOM      8  S   UNL d   1      55.776  -0.360  33.365  0.00  0.00     0.273 S 
ATOM      9  O   UNL d   1      55.247   0.017  32.845  0.00  0.00    -0.200 OA
ATOM     10  O   UNL d   1      56.300  -0.733  33.880  0.00  0.00    -0.200 OA
BRANCH   8  11
ATOM     11  C   UNL d   1      55.392  -0.013  34.006  0.00  0.00     0.104 A 
ATOM     12  C   UNL d   1      55.822   0.216  34.669  0.00  0.00     0.012 A 
ATOM     13  C   UNL d   1      55.437   0.564  35.314  0.00  0.00     0.001 A 
ATOM     14  C   UNL d   1      56.648   0.094  34.684  0.00  0.00     0.001 C 
ATOM     15  C   UNL d   1      54.623   0.682  35.292  0.00  0.00     0.000 A 
ATOM     16  C   UNL d   1      54.190   0.452  34.629  0.00  0.00     0.001 A 
ATOM     17  C   UNL d   1      54.575   0.104  33.984  0.00  0.00     0.013 A 
ATOM     18  C   UNL d   1      53.365   0.572  34.610  0.00  0.00     0.000 C 
ENDBRANCH   8  11
ENDBRANCH   1   8
BRANCH   3  19
ATOM     19  C   UNL d   1      56.910   0.391  32.056  0.00  0.00     0.023 C 
BRANCH  19  20
ATOM     20  C   UNL d   1      57.527   0.579  31.544  0.00  0.00     0.002 C 
ATOM     21  C   UNL d   1      58.286   0.676  31.840  0.00  0.00     0.000 C 
ATOM     22  C   UNL d   1      57.384   0.668  30.745  0.00  0.00     0.000 C 
ENDBRANCH  19  20
ENDBRANCH   3  19
TORSDOF 4
ENDMDL
MODEL 2
REMARK VINA RESULT:      -2.0      2.382      3.469
REMARK  4 active torsions:
REMARK  status: ('A' for Active; 'I' for Inactive)
REMARK    1  A    between atoms: N_2  and  S_1 
REMARK    2  A    between atoms: C_7  and  S_1 
REMARK    3  A    between atoms: C_11  and  C_4 
REMARK    4  A    between atoms: C_18  and  C_11 
ROOT
ATOM      1  N   UNL d   1      57.961  -0.508  30.084  0.00  0.00    -0.202 N 
ATOM      2  C   UNL d   1      57.766   0.036  29.500  0.00  0.00     0.218 A 
ATOM      3  C   UNL d   1      58.502  -1.052  29.759  0.00  0.00     0.135 A 
ATOM      4  N   UNL d   1      58.183  -0.167  28.816  0.00  0.00    -0.178 NA
ATOM      5  C   UNL d   1      58.632  -0.836  28.985  0.00  0.00     0.298 A 
ATOM      6  S   UNL d   1      57.244   0.681  29.573  0.00  0.00    -0.037 SA
ATOM      7  O   UNL d   1      59.139  -1.234  28.455  0.00  0.00    -0.264 OA
ENDROOT
BRANCH   1   8
ATOM      8  S   UNL d   1      57.626  -0.445  30.834  0.00  0.00     0.273 S 
ATOM      9  O   UNL d   1      58.125   0.200  31.003  0.00  0.00    -0.200 OA
ATOM     10  O   UNL d   1      57.132  -1.083  30.667  0.00  0.00    -0.200 OA
BRANCH   8  11
ATOM     11  C   UNL d   1      57.291  -0.382  31.584  0.00  0.00     0.104 A 
ATOM     12  C   UNL d   1      57.574   0.179  32.116  0.00  0.00     0.012 A 
ATOM     13  C   UNL d   1      57.237   0.243  32.870  0.00  0.00     0.001 A 
ATOM     14  C   UNL d   1      58.200   0.682  31.887  0.00  0.00     0.001 C 
ATOM     15  C   UNL d   1      56.620  -0.256  33.089  0.00  0.00     0.000 A 
ATOM     16  C   UNL d   1      56.336  -0.819  32.557  0.00  0.00     0.001 A 
ATOM     17  C   UNL d   1      56.673  -0.882  31.803  0.00  0.00     0.013 A 
ATOM     18  C   UNL d   1      55.711  -1.322  32.782  0.00  0.00     0.000 C 
ENDBRANCH   8  11
ENDBRANCH   1   8
BRANCH   3  19
ATOM     19  C   UNL d   1      58.853  -1.697  30.135  0.00  0.00     0.023 C 
BRANCH  19  20
ATOM     20  C   UNL d   1      59.284  -2.246  29.698  0.00  0.00     0.002 C 
ATOM     21  C   UNL d   1      60.102  -2.186  29.662  0.00  0.00     0.000 C 
ATOM     22  C   UNL d   1      58.900  -2.849  29.303  0.00  0.00     0.000 C 
ENDBRANCH  19  20
ENDBRANCH   3  19
TORSDOF 4
ENDMDL
MODEL 3
REMARK VINA RESULT:      -1.2      3.519      5.113
REMARK  4 active torsions:
REMARK  status: ('A' for Active; 'I' for Inactive)
REMARK    1  A    between atoms: N_2  and  S_1 
REMARK    2  A    between atoms: C_7  and  S_1 
REMARK    3  A    between atoms: C_11  and  C_4 
REMARK    4  A    between atoms: C_18  and  C_11 
ROOT
ATOM      1  N   UNL d   1      59.690  -0.699  29.351  0.00  0.00    -0.202 N 
ATOM      2  C   UNL d   1      60.286  -0.166  29.164  0.00  0.00     0.218 A 
ATOM      3  C   UNL d   1      59.935  -1.457  29.106  0.00  0.00     0.135 A 
ATOM      4  N   UNL d   1      60.899  -0.589  28.804  0.00  0.00    -0.178 NA
ATOM      5  C   UNL d   1      60.674  -1.379  28.774  0.00  0.00     0.298 A 
ATOM      6  S   UNL d   1      60.285   0.655  29.306  0.00  0.00    -0.037 SA
ATOM      7  O   UNL d   1      61.124  -2.006  28.455  0.00  0.00    -0.264 OA
ENDROOT
BRANCH   1   8
ATOM      8  S   UNL d   1      59.002  -0.434  29.719  0.00  0.00     0.273 S 
ATOM      9  O   UNL d   1      59.448  -0.182  30.374  0.00  0.00    -0.200 OA
ATOM     10  O   UNL d   1      58.559  -0.684  29.070  0.00  0.00    -0.200 OA
BRANCH   8  11
ATOM     11  C   UNL d   1      58.313  -0.170  30.087  0.00  0.00     0.104 A 
ATOM     12  C   UNL d   1      57.827   0.375  29.709  0.00  0.00     0.012 A 
ATOM     13  C   UNL d   1      57.136   0.641  30.078  0.00  0.00     0.001 A 
ATOM     14  C   UNL d   1      58.038   0.656  28.952  0.00  0.00     0.001 C 
ATOM     15  C   UNL d   1      56.933   0.360  30.824  0.00  0.00     0.000 A 
ATOM     16  C   UNL d   1      57.420  -0.187  31.205  0.00  0.00     0.001 A 
ATOM     17  C   UNL d   1      58.112  -0.453  30.836  0.00  0.00     0.013 A 
ATOM     18  C   UNL d   1      57.212  -0.470  31.961  0.00  0.00     0.000 C 
ENDBRANCH   8  11
ENDBRANCH   1   8
BRANCH   3  19
ATOM     19  C   UNL d   1      59.521  -2.167  29.178  0.00  0.00     0.023 C 
BRANCH  19  20
ATOM     20  C   UNL d   1      59.928  -2.879  29.238  0.00  0.00     0.002 C 
ATOM     21  C   UNL d   1      60.140  -3.168  29.977  0.00  0.00     0.000 C 
ATOM     22  C   UNL d   1      60.121  -3.299  28.564  0.00  0.00     0.000 C 
ENDBRANCH  19  20
ENDBRANCH   3  19
TORSDOF 4
ENDMDL
MODEL 4
REMARK VINA RESULT:      -0.9      2.222      4.900
REMARK  4 active torsions:
REMARK  status: ('A' for Active; 'I' for Inactive)
REMARK    1  A    between atoms: N_2  and  S_1 
REMARK    2  A    between atoms: C_7  and  S_1 
REMARK    3  A    between atoms: C_11  and  C_4 
REMARK    4  A    between atoms: C_18  and  C_11 
ROOT
ATOM      1  N   UNL d   1      57.818  -0.704  30.734  0.00  0.00    -0.202 N 
ATOM      2  C   UNL d   1      57.569  -1.473  30.590  0.00  0.00     0.218 A 
ATOM      3  C   UNL d   1      57.401  -0.418  31.396  0.00  0.00     0.135 A 
ATOM      4  N   UNL d   1      57.000  -1.666  31.158  0.00  0.00    -0.178 NA
ATOM      5  C   UNL d   1      56.904  -1.012  31.648  0.00  0.00     0.298 A 
ATOM      6  S   UNL d   1      57.835  -1.978  29.982  0.00  0.00    -0.037 SA
ATOM      7  O   UNL d   1      56.385  -0.958  32.299  0.00  0.00    -0.264 OA
ENDROOT
BRANCH   1   8
ATOM      8  S   UNL d   1      58.389  -0.358  30.251  0.00  0.00     0.273 S 
ATOM      9  O   UNL d   1      58.973  -0.838  30.598  0.00  0.00    -0.200 OA
ATOM     10  O   UNL d   1      57.810   0.117  29.907  0.00  0.00    -0.200 OA
BRANCH   8  11
ATOM     11  C   UNL d   1      58.960  -0.012  29.768  0.00  0.00     0.104 A 
ATOM     12  C   UNL d   1      58.745   0.311  29.042  0.00  0.00     0.012 A 
ATOM     13  C   UNL d   1      59.319   0.658  28.557  0.00  0.00     0.001 A 
ATOM     14  C   UNL d   1      57.946   0.284  28.802  0.00  0.00     0.001 C 
ATOM     15  C   UNL d   1      60.104   0.681  28.799  0.00  0.00     0.000 A 
ATOM     16  C   UNL d   1      60.321   0.358  29.527  0.00  0.00     0.001 A 
ATOM     17  C   UNL d   1      59.748   0.010  30.012  0.00  0.00     0.013 A 
ATOM     18  C   UNL d   1      61.118   0.382  29.770  0.00  0.00     0.000 C 
ENDBRANCH   8  11
ENDBRANCH   1   8
BRANCH   3  19
ATOM     19  C   UNL d   1      57.464   0.326  31.747  0.00  0.00     0.023 C 
BRANCH  19  20
ATOM     20  C   UNL d   1      57.006   0.514  32.405  0.00  0.00     0.002 C 
ATOM     21  C   UNL d   1      56.205   0.671  32.314  0.00  0.00     0.000 C 
ATOM     22  C   UNL d   1      57.347   0.544  33.147  0.00  0.00     0.000 C 
ENDBRANCH  19  20
ENDBRANCH   3  19
TORSDOF 4
ENDMDL
MODEL 5
REMARK VINA RESULT:      -0.8      1.931      4.551
REMARK  4 active torsions:
REMARK  status: ('A' for Active; 'I' for Inactive)
REMARK    1  A    between atoms: N_2  and  S_1 
REMARK    2  A    between atoms: C_7  and  S_1 
REMARK    3  A    between atoms: C_11  and  C_4 
REMARK    4  A    between atoms: C_18  and  C_11 
ROOT
ATOM      1  N   UNL d   1      57.880   0.136  31.858  0.00  0.00    -0.202 N 
ATOM      2  C   UNL d   1      58.452   0.490  32.329  0.00  0.00     0.218 A 
ATOM      3  C   UNL d   1      57.186   0.054  32.313  0.00  0.00     0.135 A 
ATOM      4  N   UNL d   1      58.117   0.628  33.073  0.00  0.00    -0.178 NA
ATOM      5  C   UNL d   1      57.341   0.356  33.053  0.00  0.00     0.298 A 
ATOM      6  S   UNL d   1      59.232   0.682  32.108  0.00  0.00    -0.037 SA
ATOM      7  O   UNL d   1      56.795   0.383  33.683  0.00  0.00    -0.264 OA
ENDROOT
BRANCH   1   8
ATOM      8  S   UNL d   1      58.055  -0.067  31.079  0.00  0.00     0.273 S 
ATOM      9  O   UNL d   1      58.777  -0.397  31.328  0.00  0.00    -0.200 OA
ATOM     10  O   UNL d   1      57.340   0.260  30.833  0.00  0.00    -0.200 OA
BRANCH   8  11
ATOM     11  C   UNL d   1      58.230  -0.270  30.300  0.00  0.00     0.104 A 
ATOM     12  C   UNL d   1      58.139  -1.048  30.047  0.00  0.00     0.012 A 
ATOM     13  C   UNL d   1      58.315  -1.252  29.264  0.00  0.00     0.001 A 
ATOM     14  C   UNL d   1      57.868  -1.625  30.585  0.00  0.00     0.001 C 
ATOM     15  C   UNL d   1      58.582  -0.678  28.738  0.00  0.00     0.000 A 
ATOM     16  C   UNL d   1      58.673   0.102  28.991  0.00  0.00     0.001 A 
ATOM     17  C   UNL d   1      58.497   0.306  29.774  0.00  0.00     0.013 A 
ATOM     18  C   UNL d   1      58.943   0.682  28.456  0.00  0.00     0.000 C 
ENDBRANCH   8  11
ENDBRANCH   1   8
BRANCH   3  19
ATOM     19  C   UNL d   1      56.466  -0.272  32.077  0.00  0.00     0.023 C 
BRANCH  19  20
ATOM     20  C   UNL d   1      55.887  -0.447  32.636  0.00  0.00     0.002 C 
ATOM     21  C   UNL d   1      55.429   0.157  32.952  0.00  0.00     0.000 C 
ATOM     22  C   UNL d   1      55.769  -1.219  32.876  0.00  0.00     0.000 C 
ENDBRANCH  19  20
ENDBRANCH   3  19
TORSDOF 4
ENDMDL
MODEL 6
REMARK VINA RESULT:       0.9      1.123      3.798
REMARK  4 active torsions:
REMARK  status: ('A' for Active; 'I' for Inactive)
REMARK    1  A    between atoms: N_2  and  S_1 
REMARK    2  A    between atoms: C_7  and  S_1 
REMARK    3  A    between atoms: C_11  and  C_4 
REMARK    4  A    between atoms: C_18  and  C_11 
ROOT
ATOM      1  N   UNL d   1      56.287   0.202  33.549  0.00  0.00    -0.202 N 
ATOM      2  C   UNL d   1      56.804   0.436  34.142  0.00  0.00     0.218 A 
ATOM      3  C   UNL d   1      55.510   0.266  33.843  0.00  0.00     0.135 A 
ATOM      4  N   UNL d   1      56.353   0.646  34.802  0.00  0.00    -0.178 NA
ATOM      5  C   UNL d   1      55.560   0.538  34.609  0.00  0.00     0.298 A 
ATOM      6  S   UNL d   1      57.636   0.462  34.098  0.00  0.00    -0.037 SA
ATOM      7  O   UNL d   1      54.908   0.682  35.110  0.00  0.00    -0.264 OA
ENDROOT
BRANCH   1   8
ATOM      8  S   UNL d   1      56.581  -0.041  32.818  0.00  0.00     0.273 S 
ATOM      9  O   UNL d   1      56.809  -0.768  33.151  0.00  0.00    -0.200 OA
ATOM     10  O   UNL d   1      56.356   0.680  32.488  0.00  0.00    -0.200 OA
BRANCH   8  11
ATOM     11  C   UNL d   1      56.875  -0.283  32.087  0.00  0.00     0.104 A 
ATOM     12  C   UNL d   1      56.840  -1.076  31.872  0.00  0.00     0.012 A 
ATOM     13  C   UNL d   1      57.135  -1.320  31.137  0.00  0.00     0.001 A 
ATOM     14  C   UNL d   1      56.505  -1.630  32.399  0.00  0.00     0.001 C 
ATOM     15  C   UNL d   1      57.464  -0.769  30.622  0.00  0.00     0.000 A 
ATOM     16  C   UNL d   1      57.500   0.027  30.838  0.00  0.00     0.001 A 
ATOM     17  C   UNL d   1      57.205   0.271  31.572  0.00  0.00     0.013 A 
ATOM     18  C   UNL d   1      57.834   0.583  30.314  0.00  0.00     0.000 C 
ENDBRANCH   8  11
ENDBRANCH   1   8
BRANCH   3  19
ATOM     19  C   UNL d   1      54.807   0.092  33.449  0.00  0.00     0.023 C 
BRANCH  19  20
ATOM     20  C   UNL d   1      54.100   0.036  33.867  0.00  0.00     0.002 C 
ATOM     21  C   UNL d   1      53.832   0.678  34.303  0.00  0.00     0.000 C 
ATOM     22  C   UNL d   1      53.667  -0.656  33.849  0.00  0.00     0.000 C 
ENDBRANCH  19  20
ENDBRANCH   3  19
TORSDOF 4
ENDMDL
MODEL 7
REMARK VINA RESULT:       1.0      1.147      3.718
REMARK  4 active torsions:
REMARK  status: ('A' for Active; 'I' for Inactive)
REMARK    1  A    between atoms: N_2  and  S_1 
REMARK    2  A    between atoms: C_7  and  S_1 
REMARK    3  A    between atoms: C_11  and  C_4 
REMARK    4  A    between atoms: C_18  and  C_11 
ROOT
ATOM      1  N   UNL d   1      56.616  -0.714  32.218  0.00  0.00    -0.202 N 
ATOM      2  C   UNL d   1      56.448  -1.515  32.152  0.00  0.00     0.218 A 
ATOM      3  C   UNL d   1      56.151  -0.403  32.836  0.00  0.00     0.135 A 
ATOM      4  N   UNL d   1      55.881  -1.703  32.725  0.00  0.00    -0.178 NA
ATOM      5  C   UNL d   1      55.706  -1.013  33.139  0.00  0.00     0.298 A 
ATOM      6  S   UNL d   1      56.781  -2.052  31.610  0.00  0.00    -0.037 SA
ATOM      7  O   UNL d   1      55.162  -0.943  33.768  0.00  0.00    -0.264 OA
ENDROOT
BRANCH   1   8
ATOM      8  S   UNL d   1      57.166  -0.366  31.714  0.00  0.00     0.273 S 
ATOM      9  O   UNL d   1      57.777  -0.792  32.086  0.00  0.00    -0.200 OA
ATOM     10  O   UNL d   1      56.562   0.056  31.345  0.00  0.00    -0.200 OA
BRANCH   8  11
ATOM     11  C   UNL d   1      57.717  -0.017  31.210  0.00  0.00     0.104 A 
ATOM     12  C   UNL d   1      58.419   0.286  31.513  0.00  0.00     0.012 A 
ATOM     13  C   UNL d   1      58.972   0.637  31.006  0.00  0.00     0.001 A 
ATOM     14  C   UNL d   1      58.566   0.238  32.333  0.00  0.00     0.001 C 
ATOM     15  C   UNL d   1      58.821   0.681  30.199  0.00  0.00     0.000 A 
ATOM     16  C   UNL d   1      58.117   0.377  29.893  0.00  0.00     0.001 A 
ATOM     17  C   UNL d   1      57.564   0.027  30.400  0.00  0.00     0.013 A 
ATOM     18  C   UNL d   1      57.967   0.424  29.075  0.00  0.00     0.000 C 
ENDBRANCH   8  11
ENDBRANCH   1   8
BRANCH   3  19
ATOM     19  C   UNL d   1      56.129   0.376  33.106  0.00  0.00     0.023 C 
BRANCH  19  20
ATOM     20  C   UNL d   1      55.669   0.577  33.758  0.00  0.00     0.002 C 
ATOM     21  C   UNL d   1      56.024   0.680  34.491  0.00  0.00     0.000 C 
ATOM     22  C   UNL d   1      54.862   0.673  33.677  0.00  0.00     0.000 C 
ENDBRANCH  19  20
ENDBRANCH   3  19
TORSDOF 4
ENDMDL
