MODEL 1
REMARK VINA RESULT:      -3.6      0.000      0.000
REMARK  7 active torsions:
REMARK  status: ('A' for Active; 'I' for Inactive)
REMARK    1  A    between atoms: N_2  and  C_1 
REMARK    2  A    between atoms: N_4  and  C_3 
REMARK       I    between atoms: C_6  and  N_4 
REMARK    3  A    between atoms: C_7  and  C_6 
REMARK    4  A    between atoms: C_10  and  C_7 
REMARK    5  A    between atoms: C_14  and  C_10 
REMARK    6  A    between atoms: O_16  and  C_13 
REMARK    7  A    between atoms: C_17  and  O_16 
ROOT
ATOM      1  C   UNL d   1      32.640  22.883 -20.757  0.00  0.00     0.146 A 
ATOM      2  C   UNL d   1      32.946  22.151 -20.757  0.00  0.00     0.107 A 
ATOM      3  C   UNL d   1      32.610  23.323 -20.062  0.00  0.00     0.050 A 
ATOM      4  C   UNL d   1      33.241  21.826 -20.045  0.00  0.00     0.023 A 
ATOM      5  C   UNL d   1      32.891  23.028 -19.357  0.00  0.00     0.102 A 
ATOM      6  C   UNL d   1      33.213  22.259 -19.355  0.00  0.00     0.026 A 
ENDROOT
BRANCH   2   7
ATOM      7  N   UNL d   1      32.992  21.671 -21.454  0.00  0.00    -0.206 NA
ATOM      8  C   UNL d   1      33.079  20.900 -21.345  0.00  0.00     0.279 C 
ATOM      9  O   UNL d   1      33.122  20.577 -20.817  0.00  0.00    -0.265 OA
BRANCH   8  10
ATOM     10  C   UNL d   1      33.124  20.427 -22.037  0.00  0.00     0.062 C 
BRANCH  10  11
ATOM     11  C   UNL d   1      33.085  19.602 -21.996  0.00  0.00     0.005 C 
BRANCH  11  12
ATOM     12  C   UNL d   1      33.103  19.159 -22.701  0.00  0.00     0.000 A 
ATOM     13  C   UNL d   1      33.216  19.504 -23.384  0.00  0.00     0.000 A 
ATOM     14  C   UNL d   1      33.227  19.021 -24.064  0.00  0.00     0.000 A 
ATOM     15  C   UNL d   1      33.122  18.220 -23.993  0.00  0.00     0.000 A 
ATOM     16  C   UNL d   1      33.009  17.876 -23.303  0.00  0.00     0.000 A 
ATOM     17  C   UNL d   1      32.996  18.342 -22.626  0.00  0.00     0.000 A 
ENDBRANCH  11  12
ENDBRANCH  10  11
ENDBRANCH   8  10
ENDBRANCH   2   7
BRANCH   1  18
ATOM     18  N   UNL d   1      32.352  23.181 -21.488  0.00  0.00    -0.112 N 
ATOM     19  O   UNL d   1      31.555  23.202 -21.658  0.00  0.00    -0.532 OA
ATOM     20  O   UNL d   1      32.908  23.472 -22.072  0.00  0.00    -0.532 OA
ENDBRANCH   1  18
BRANCH   5  21
ATOM     21  O   UNL d   1      32.854  23.488 -18.659  0.00  0.00    -0.305 OA
BRANCH  21  22
ATOM     22  C   UNL d   1      32.862  23.161 -17.935  0.00  0.00     0.123 C 
ATOM     23  C   UNL d   1      32.908  23.655 -17.239  0.00  0.00     0.029 C 
ENDBRANCH  21  22
ENDBRANCH   5  21
TORSDOF 7
ENDMDL
