MODEL 1
REMARK VINA RESULT:       2.3      0.000      0.000
REMARK  5 active torsions:
REMARK  status: ('A' for Active; 'I' for Inactive)
REMARK    1  A    between atoms: C_10  and  N_6 
REMARK    2  A    between atoms: S_13  and  C_9 
REMARK    3  A    between atoms: C_14  and  C_10 
REMARK    4  A    between atoms: C_22  and  S_13 
REMARK    5  A    between atoms: C_24  and  C_22 
ROOT
ATOM      1  C   UNL d   1     -41.943-121.547 -53.670  0.00  0.00     0.174 A 
ATOM      2  C   UNL d   1     -41.713-122.260 -53.327  0.00  0.00     0.158 A 
ATOM      3  N   UNL d   1     -41.815-120.952 -53.129  0.00  0.00    -0.203 NA
ATOM      4  N   UNL d   1     -42.239-121.545 -54.437  0.00  0.00    -0.240 N 
ATOM      5  N   UNL d   1     -42.085-122.963 -54.539  0.00  0.00    -0.223 N 
ATOM      6  N   UNL d   1     -41.410-122.135 -52.498  0.00  0.00    -0.279 N 
ATOM      7  C   UNL d   1     -42.315-122.250 -54.882  0.00  0.00     0.343 A 
ATOM      8  C   UNL d   1     -41.780-122.971 -53.751  0.00  0.00     0.287 A 
ATOM      9  C   UNL d   1     -41.501-121.317 -52.447  0.00  0.00     0.181 A 
ATOM     10  O   UNL d   1     -42.615-122.253 -55.659  0.00  0.00    -0.245 OA
ATOM     11  O   UNL d   1     -41.550-123.685 -53.408  0.00  0.00    -0.265 OA
ATOM     12  C   UNL d   1     -42.469-120.832 -54.780  0.00  0.00     0.105 C 
ATOM     13  C   UNL d   1     -42.152-123.674 -54.963  0.00  0.00     0.107 C 
ENDROOT
BRANCH   6  14
ATOM     14  C   UNL d   1     -41.124-122.679 -51.951  0.00  0.00     0.082 C 
BRANCH  14  15
ATOM     15  C   UNL d   1     -41.576-122.859 -51.285  0.00  0.00     0.018 A 
ATOM     16  C   UNL d   1     -41.212-123.136 -50.603  0.00  0.00     0.002 A 
ATOM     17  C   UNL d   1     -41.656-123.318 -49.935  0.00  0.00     0.000 A 
ATOM     18  C   UNL d   1     -41.230-123.592 -49.281  0.00  0.00     0.000 C 
ATOM     19  C   UNL d   1     -42.483-123.220 -49.953  0.00  0.00     0.000 A 
ATOM     20  C   UNL d   1     -42.847-122.941 -50.640  0.00  0.00     0.000 A 
ATOM     21  C   UNL d   1     -42.397-122.761 -51.304  0.00  0.00     0.002 A 
ENDBRANCH  14  15
ENDBRANCH   6  14
BRANCH   9  22
ATOM     22  S   UNL d   1     -41.289-120.917 -51.757  0.00  0.00    -0.046 SA
BRANCH  22  23
ATOM     23  C   UNL d   1     -41.171-120.212 -51.352  0.00  0.00     0.084 C 
BRANCH  23  24
ATOM     24  C   UNL d   1     -41.123-119.504 -51.768  0.00  0.00     0.241 C 
ATOM     25  O   UNL d   1     -41.245-118.790 -51.377  0.00  0.00    -0.283 OA
ENDBRANCH  23  24
ENDBRANCH  22  23
ENDBRANCH   9  22
TORSDOF 5
ENDMDL
