MODEL 1
REMARK VINA RESULT:      15.1      0.000      0.000
REMARK  2 active torsions:
REMARK  status: ('A' for Active; 'I' for Inactive)
REMARK    1  A    between atoms: N_10  and  C_1 
REMARK       I    between atoms: C_12  and  N_10 
REMARK    2  A    between atoms: C_17  and  C_12 
ROOT
ATOM      1  C   UNL d   1      45.769 -16.261  44.436  0.00  0.00     0.197 A 
ATOM      2  C   UNL d   1      46.099 -17.525  44.209  0.00  0.00     0.057 A 
ATOM      3  C   UNL d   1      46.277 -18.307  44.242  0.00  0.00     0.056 A 
ATOM      4  N   UNL d   1      45.900 -16.316  43.647  0.00  0.00    -0.221 NA
ATOM      5  S   UNL d   1      45.883 -16.994  44.822  0.00  0.00    -0.046 SA
ATOM      6  N   UNL d   1      46.626 -19.489  43.755  0.00  0.00    -0.238 NA
ATOM      7  S   UNL d   1      46.311 -18.842  44.852  0.00  0.00    -0.066 SA
ATOM      8  C   UNL d   1      46.109 -17.114  43.497  0.00  0.00     0.090 A 
ATOM      9  C   UNL d   1      46.477 -18.724  43.554  0.00  0.00     0.088 A 
ATOM     10  C   UNL d   1      46.538 -19.609  44.531  0.00  0.00     0.111 A 
ATOM     11  C   UNL d   1      46.306 -17.513  42.803  0.00  0.00     0.021 A 
ATOM     12  C   UNL d   1      46.495 -18.336  42.829  0.00  0.00     0.021 A 
ATOM     13  C   UNL d   1      46.645 -20.330  44.947  0.00  0.00     0.028 C 
ENDROOT
BRANCH   1  14
ATOM     14  N   UNL d   1      45.541 -15.545  44.847  0.00  0.00    -0.183 NA
ATOM     15  C   UNL d   1      45.806 -14.827  44.558  0.00  0.00     0.281 C 
ATOM     16  O   UNL d   1      46.298 -14.860  43.858  0.00  0.00    -0.265 OA
BRANCH  15  17
ATOM     17  C   UNL d   1      45.596 -14.168  44.935  0.00  0.00     0.063 C 
ATOM     18  C   UNL d   1      45.982 -13.335  44.668  0.00  0.00     0.005 C 
ENDBRANCH  15  17
ENDBRANCH   1  14
TORSDOF 2
ENDMDL
