MODEL 1
REMARK VINA RESULT:      79.6      0.000      0.000
REMARK  4 active torsions:
REMARK  status: ('A' for Active; 'I' for Inactive)
REMARK    1  A    between atoms: C_6  and  C_1 
REMARK    2  A    between atoms: C_3  and  C_15 
REMARK    3  A    between atoms: O_11  and  C_6 
REMARK    4  A    between atoms: C_15  and  O_11 
ROOT
ATOM      1  C   UNL d   1      59.843  49.326  50.909  0.00  0.00     0.127 A 
ATOM      2  C   UNL d   1      59.707  49.429  51.706  0.00  0.00     0.305 A 
ATOM      3  C   UNL d   1      59.206  49.342  50.376  0.00  0.00     0.013 A 
ATOM      4  C   UNL d   1      58.445  49.465  50.692  0.00  0.00     0.023 A 
ATOM      5  O   UNL d   1      58.970  49.549  52.022  0.00  0.00    -0.273 OA
ATOM      6  C   UNL d   1      58.309  49.567  51.484  0.00  0.00     0.103 A 
ATOM      7  C   UNL d   1      57.786  49.483  50.160  0.00  0.00     0.002 A 
ATOM      8  O   UNL d   1      60.387  49.409  52.245  0.00  0.00    -0.259 OA
ATOM      9  C   UNL d   1      57.543  49.691  51.808  0.00  0.00     0.025 A 
ATOM     10  C   UNL d   1      57.024  49.606  50.476  0.00  0.00     0.000 A 
ATOM     11  C   UNL d   1      56.909  49.707  51.280  0.00  0.00     0.002 A 
ATOM     12  C   UNL d   1      57.876  49.385  49.351  0.00  0.00     0.000 A 
ATOM     13  C   UNL d   1      56.380  49.628  49.994  0.00  0.00     0.000 A 
ATOM     14  C   UNL d   1      57.206  49.407  48.846  0.00  0.00     0.000 A 
ATOM     15  C   UNL d   1      56.463  49.528  49.163  0.00  0.00     0.000 A 
ENDROOT
BRANCH   1  16
ATOM     16  C   UNL d   1      60.665  49.199  50.617  0.00  0.00     0.305 C 
ATOM     17  O   UNL d   1      61.245  49.708  50.908  0.00  0.00    -0.259 OA
BRANCH  16  18
ATOM     18  O   UNL d   1      60.853  48.606  50.081  0.00  0.00    -0.271 OA
BRANCH  18  19
ATOM     19  C   UNL d   1      61.517  48.130  50.227  0.00  0.00     0.127 C 
ATOM     20  C   UNL d   1      62.196  48.480  50.562  0.00  0.00     0.029 C 
BRANCH  19  21
ATOM     21  C   UNL d   1      61.537  47.326  50.057  0.00  0.00     0.134 A 
ATOM     22  N   UNL d   1      61.296  46.702  50.517  0.00  0.00    -0.236 NA
ATOM     23  C   UNL d   1      61.449  46.007  50.059  0.00  0.00     0.088 A 
ATOM     24  C   UNL d   1      61.325  45.216  50.224  0.00  0.00     0.020 A 
ATOM     25  C   UNL d   1      61.751  46.201  49.392  0.00  0.00     0.049 A 
ATOM     26  C   UNL d   1      61.519  44.589  49.681  0.00  0.00     0.002 A 
ATOM     27  C   UNL d   1      61.833  44.823  48.995  0.00  0.00     0.001 A 
ATOM     28  C   UNL d   1      61.958  45.620  48.828  0.00  0.00     0.008 A 
ATOM     29  S   UNL d   1      61.828  47.023  49.342  0.00  0.00    -0.065 SA
ENDBRANCH  19  21
ENDBRANCH  18  19
ENDBRANCH  16  18
ENDBRANCH   1  16
TORSDOF 4
ENDMDL
