MODEL 1
REMARK VINA RESULT:      -5.7      0.000      0.000
REMARK  3 active torsions:
REMARK  status: ('A' for Active; 'I' for Inactive)
REMARK    1  A    between atoms: N_5  and  C_2 
REMARK    2  A    between atoms: C_8  and  C_3 
REMARK       I    between atoms: C_7  and  N_5 
REMARK    3  A    between atoms: C_10  and  C_7 
ROOT
ATOM      1  N   UNL d   1      58.153  -0.603  30.280  0.00  0.00    -0.200 NA
ATOM      2  C   UNL d   1      57.613  -0.055  30.555  0.00  0.00     0.216 A 
ATOM      3  C   UNL d   1      58.676  -0.218  29.762  0.00  0.00     0.172 A 
ATOM      4  N   UNL d   1      58.449   0.574  29.723  0.00  0.00    -0.187 NA
ATOM      5  S   UNL d   1      57.788   0.682  30.214  0.00  0.00     0.054 SA
ENDROOT
BRANCH   2   6
ATOM      6  N   UNL d   1      56.997  -0.205  31.082  0.00  0.00    -0.181 NA
ATOM      7  C   UNL d   1      57.085  -0.023  31.878  0.00  0.00     0.281 C 
ATOM      8  O   UNL d   1      57.789   0.310  32.149  0.00  0.00    -0.265 OA
BRANCH   7   9
ATOM      9  C   UNL d   1      56.476  -0.172  32.399  0.00  0.00     0.058 A 
ATOM     10  C   UNL d   1      56.076   0.452  32.769  0.00  0.00     0.005 A 
ATOM     11  C   UNL d   1      55.460   0.301  33.297  0.00  0.00     0.000 A 
ATOM     12  C   UNL d   1      55.243  -0.474  33.454  0.00  0.00     0.000 A 
ATOM     13  C   UNL d   1      55.630  -1.100  33.095  0.00  0.00     0.000 A 
ATOM     14  C   UNL d   1      56.253  -0.947  32.563  0.00  0.00     0.005 A 
ENDBRANCH   7   9
ENDBRANCH   2   6
BRANCH   3  15
ATOM     15  C   UNL d   1      59.303  -0.558  29.361  0.00  0.00     0.036 A 
ATOM     16  C   UNL d   1      59.171  -1.201  28.862  0.00  0.00     0.003 A 
ATOM     17  C   UNL d   1      59.805  -1.546  28.455  0.00  0.00     0.000 A 
ATOM     18  C   UNL d   1      60.569  -1.245  28.552  0.00  0.00     0.000 A 
ATOM     19  C   UNL d   1      60.701  -0.598  29.054  0.00  0.00     0.000 A 
ATOM     20  C   UNL d   1      60.062  -0.256  29.458  0.00  0.00     0.003 A 
ENDBRANCH   3  15
TORSDOF 3
ENDMDL
MODEL 2
REMARK VINA RESULT:      -5.3      0.860      4.760
REMARK  3 active torsions:
REMARK  status: ('A' for Active; 'I' for Inactive)
REMARK    1  A    between atoms: N_5  and  C_2 
REMARK    2  A    between atoms: C_8  and  C_3 
REMARK       I    between atoms: C_7  and  N_5 
REMARK    3  A    between atoms: C_10  and  C_7 
ROOT
ATOM      1  N   UNL d   1      57.754  -0.281  31.343  0.00  0.00    -0.200 NA
ATOM      2  C   UNL d   1      58.057   0.114  30.694  0.00  0.00     0.216 A 
ATOM      3  C   UNL d   1      57.005   0.035  31.515  0.00  0.00     0.172 A 
ATOM      4  N   UNL d   1      56.853   0.628  30.962  0.00  0.00    -0.187 NA
ATOM      5  S   UNL d   1      57.504   0.682  30.449  0.00  0.00     0.054 SA
ENDROOT
BRANCH   2   6
ATOM      6  N   UNL d   1      58.789  -0.027  30.341  0.00  0.00    -0.181 NA
ATOM      7  C   UNL d   1      58.824  -0.382  29.601  0.00  0.00     0.281 C 
ATOM      8  O   UNL d   1      58.130  -0.597  29.213  0.00  0.00    -0.265 OA
BRANCH   7   9
ATOM      9  C   UNL d   1      59.548  -0.522  29.252  0.00  0.00     0.058 A 
ATOM     10  C   UNL d   1      59.810  -1.296  29.120  0.00  0.00     0.005 A 
ATOM     11  C   UNL d   1      60.542  -1.437  28.767  0.00  0.00     0.000 A 
ATOM     12  C   UNL d   1      61.012  -0.804  28.545  0.00  0.00     0.000 A 
ATOM     13  C   UNL d   1      60.765  -0.033  28.669  0.00  0.00     0.000 A 
ATOM     14  C   UNL d   1      60.026   0.109  29.026  0.00  0.00     0.005 A 
ENDBRANCH   7   9
ENDBRANCH   2   6
BRANCH   3  15
ATOM     15  C   UNL d   1      56.506  -0.197  32.120  0.00  0.00     0.036 A 
ATOM     16  C   UNL d   1      56.373  -0.999  32.257  0.00  0.00     0.003 A 
ATOM     17  C   UNL d   1      55.867  -1.236  32.870  0.00  0.00     0.000 A 
ATOM     18  C   UNL d   1      55.498  -0.666  33.342  0.00  0.00     0.000 A 
ATOM     19  C   UNL d   1      55.633   0.141  33.203  0.00  0.00     0.000 A 
ATOM     20  C   UNL d   1      56.140   0.371  32.588  0.00  0.00     0.003 A 
ENDBRANCH   3  15
TORSDOF 3
ENDMDL
MODEL 3
REMARK VINA RESULT:      -4.2      1.287      4.936
REMARK  3 active torsions:
REMARK  status: ('A' for Active; 'I' for Inactive)
REMARK    1  A    between atoms: N_5  and  C_2 
REMARK    2  A    between atoms: C_8  and  C_3 
REMARK       I    between atoms: C_7  and  N_5 
REMARK    3  A    between atoms: C_10  and  C_7 
ROOT
ATOM      1  N   UNL d   1      56.901   0.511  32.170  0.00  0.00    -0.200 NA
ATOM      2  C   UNL d   1      57.215   0.068  31.560  0.00  0.00     0.216 A 
ATOM      3  C   UNL d   1      56.432   0.013  32.641  0.00  0.00     0.172 A 
ATOM      4  N   UNL d   1      56.462  -0.742  32.310  0.00  0.00    -0.187 NA
ATOM      5  S   UNL d   1      56.948  -0.714  31.637  0.00  0.00     0.054 SA
ENDROOT
BRANCH   2   6
ATOM      6  N   UNL d   1      57.714   0.348  30.965  0.00  0.00    -0.181 NA
ATOM      7  C   UNL d   1      57.990  -0.165  30.387  0.00  0.00     0.281 C 
ATOM      8  O   UNL d   1      57.769  -0.959  30.401  0.00  0.00    -0.265 OA
BRANCH   7   9
ATOM      9  C   UNL d   1      58.483   0.112  29.799  0.00  0.00     0.058 A 
ATOM     10  C   UNL d   1      58.173   0.364  29.074  0.00  0.00     0.005 A 
ATOM     11  C   UNL d   1      58.672   0.645  28.479  0.00  0.00     0.000 A 
ATOM     12  C   UNL d   1      59.480   0.673  28.610  0.00  0.00     0.000 A 
ATOM     13  C   UNL d   1      59.799   0.427  29.323  0.00  0.00     0.000 A 
ATOM     14  C   UNL d   1      59.296   0.144  29.923  0.00  0.00     0.005 A 
ENDBRANCH   7   9
ENDBRANCH   2   6
BRANCH   3  15
ATOM     15  C   UNL d   1      56.014   0.227  33.310  0.00  0.00     0.036 A 
ATOM     16  C   UNL d   1      55.189   0.208  33.303  0.00  0.00     0.003 A 
ATOM     17  C   UNL d   1      54.764   0.425  33.981  0.00  0.00     0.000 A 
ATOM     18  C   UNL d   1      55.169   0.661  34.663  0.00  0.00     0.000 A 
ATOM     19  C   UNL d   1      55.998   0.680  34.669  0.00  0.00     0.000 A 
ATOM     20  C   UNL d   1      56.418   0.461  33.987  0.00  0.00     0.003 A 
ENDBRANCH   3  15
TORSDOF 3
ENDMDL
MODEL 4
REMARK VINA RESULT:      -3.2      1.013      4.751
REMARK  3 active torsions:
REMARK  status: ('A' for Active; 'I' for Inactive)
REMARK    1  A    between atoms: N_5  and  C_2 
REMARK    2  A    between atoms: C_8  and  C_3 
REMARK       I    between atoms: C_7  and  N_5 
REMARK    3  A    between atoms: C_10  and  C_7 
ROOT
ATOM      1  N   UNL d   1      56.829  -0.647  31.601  0.00  0.00    -0.200 NA
ATOM      2  C   UNL d   1      57.301  -0.391  30.985  0.00  0.00     0.216 A 
ATOM      3  C   UNL d   1      56.614   0.012  32.058  0.00  0.00     0.172 A 
ATOM      4  N   UNL d   1      56.961   0.677  31.714  0.00  0.00    -0.187 NA
ATOM      5  S   UNL d   1      57.390   0.432  31.046  0.00  0.00     0.054 SA
ENDROOT
BRANCH   2   6
ATOM      6  N   UNL d   1      57.634  -0.868  30.401  0.00  0.00    -0.181 NA
ATOM      7  C   UNL d   1      58.450  -0.954  30.358  0.00  0.00     0.281 C 
ATOM      8  O   UNL d   1      58.934  -0.563  30.899  0.00  0.00    -0.265 OA
BRANCH   7   9
ATOM      9  C   UNL d   1      58.779  -1.426  29.780  0.00  0.00     0.058 A 
ATOM     10  C   UNL d   1      58.922  -2.229  29.923  0.00  0.00     0.005 A 
ATOM     11  C   UNL d   1      59.256  -2.706  29.338  0.00  0.00     0.000 A 
ATOM     12  C   UNL d   1      59.446  -2.380  28.611  0.00  0.00     0.000 A 
ATOM     13  C   UNL d   1      59.310  -1.587  28.456  0.00  0.00     0.000 A 
ATOM     14  C   UNL d   1      58.974  -1.106  29.047  0.00  0.00     0.005 A 
ENDBRANCH   7   9
ENDBRANCH   2   6
BRANCH   3  15
ATOM     15  C   UNL d   1      56.144   0.009  32.727  0.00  0.00     0.036 A 
ATOM     16  C   UNL d   1      55.588   0.606  32.842  0.00  0.00     0.003 A 
ATOM     17  C   UNL d   1      55.111   0.604  33.520  0.00  0.00     0.000 A 
ATOM     18  C   UNL d   1      55.196   0.001  34.080  0.00  0.00     0.000 A 
ATOM     19  C   UNL d   1      55.756  -0.600  33.965  0.00  0.00     0.000 A 
ATOM     20  C   UNL d   1      56.230  -0.592  33.283  0.00  0.00     0.003 A 
ENDBRANCH   3  15
TORSDOF 3
ENDMDL
