MODEL 1
REMARK VINA RESULT:      -5.6      0.000      0.000
REMARK  5 active torsions:
REMARK  status: ('A' for Active; 'I' for Inactive)
REMARK    1  A    between atoms: C_3  and  C_1 
REMARK    2  A    between atoms: N_2  and  C_11 
REMARK    3  A    between atoms: N_6  and  C_3 
REMARK    4  A    between atoms: C_14  and  C_5 
REMARK    5  A    between atoms: C_10  and  N_7 
ROOT
ATOM      1  C   UNL d   1      58.465  -0.404  29.208  0.00  0.00     0.143 C 
ATOM      2  S   UNL d   1      58.375   0.094  28.576  0.00  0.00    -0.057 SA
ENDROOT
BRANCH   1   3
ATOM      3  C   UNL d   1      58.200  -0.206  29.942  0.00  0.00     0.126 A 
ATOM      4  O   UNL d   1      57.501  -0.414  30.336  0.00  0.00    -0.305 OA
ATOM      5  C   UNL d   1      57.523  -0.048  31.081  0.00  0.00     0.100 A 
ATOM      6  C   UNL d   1      58.198   0.361  31.138  0.00  0.00     0.027 A 
ATOM      7  C   UNL d   1      58.635   0.276  30.438  0.00  0.00     0.029 A 
BRANCH   5   8
ATOM      8  C   UNL d   1      57.000  -0.051  31.698  0.00  0.00     0.023 A 
ATOM      9  C   UNL d   1      56.716  -0.768  32.014  0.00  0.00     0.004 A 
ATOM     10  C   UNL d   1      56.181  -0.756  32.645  0.00  0.00     0.024 A 
ATOM     11  C   UNL d   1      55.920  -0.043  32.972  0.00  0.00     0.127 A 
ATOM     12  C   UNL d   1      56.217   0.673  32.642  0.00  0.00     0.024 A 
ATOM     13  C   UNL d   1      56.740   0.662  32.025  0.00  0.00     0.004 A 
BRANCH  11  14
ATOM     14  N   UNL d   1      55.397  -0.047  33.589  0.00  0.00    -0.114 N 
ATOM     15  O   UNL d   1      54.632  -0.378  33.561  0.00  0.00    -0.532 OA
ATOM     16  O   UNL d   1      55.547   0.275  34.327  0.00  0.00    -0.532 OA
ENDBRANCH  11  14
ENDBRANCH   5   8
ENDBRANCH   1   3
BRANCH   1  17
ATOM     17  N   UNL d   1      58.847  -1.159  29.102  0.00  0.00    -0.291 N 
ATOM     18  C   UNL d   1      59.677  -1.205  29.109  0.00  0.00     0.100 A 
ATOM     19  C   UNL d   1      60.056  -1.929  29.008  0.00  0.00     0.100 A 
ATOM     20  N   UNL d   1      59.600  -2.612  28.900  0.00  0.00    -0.301 N 
ATOM     21  C   UNL d   1      58.792  -2.564  28.894  0.00  0.00     0.100 A 
ATOM     22  C   UNL d   1      58.413  -1.836  28.996  0.00  0.00     0.100 A 
BRANCH  20  23
ATOM     23  C   UNL d   1      59.979  -3.336  28.799  0.00  0.00     0.064 A 
ATOM     24  C   UNL d   1      59.503  -3.980  28.580  0.00  0.00     0.016 A 
ATOM     25  C   UNL d   1      58.683  -3.915  28.464  0.00  0.00     0.002 C 
ATOM     26  C   UNL d   1      59.861  -4.711  28.474  0.00  0.00     0.001 A 
ATOM     27  C   UNL d   1      60.685  -4.802  28.585  0.00  0.00     0.000 A 
ATOM     28  C   UNL d   1      61.133  -4.160  28.799  0.00  0.00     0.002 A 
ATOM     29  C   UNL d   1      60.781  -3.430  28.906  0.00  0.00     0.018 A 
ENDBRANCH  20  23
ENDBRANCH   1  17
TORSDOF 5
ENDMDL
