MODEL 1
REMARK VINA RESULT:      -7.0      0.000      0.000
REMARK  4 active torsions:
REMARK  status: ('A' for Active; 'I' for Inactive)
REMARK    1  A    between atoms: S_2  and  N_1 
REMARK    2  A    between atoms: C_7  and  S_2 
REMARK    3  A    between atoms: S_8  and  C_5 
REMARK    4  A    between atoms: C_16  and  S_8 
ROOT
ATOM      1  N   UNL d   1     -48.606  12.852  22.864  0.00  0.00    -0.151 N 
ATOM      2  C   UNL d   1     -47.906  13.258  23.006  0.00  0.00     0.102 A 
ATOM      3  N   UNL d   1     -48.490  12.073  23.105  0.00  0.00    -0.155 NA
ATOM      4  C   UNL d   1     -47.359  12.740  23.331  0.00  0.00     0.067 A 
ATOM      5  C   UNL d   1     -47.726  12.002  23.392  0.00  0.00     0.110 A 
ATOM      6  C   UNL d   1     -47.761  14.071  22.847  0.00  0.00     0.022 C 
ATOM      7  C   UNL d   1     -47.381  11.314  23.690  0.00  0.00     0.023 C 
ENDROOT
BRANCH   1   8
ATOM      8  S   UNL d   1     -49.297  13.155  22.544  0.00  0.00     0.292 S 
ATOM      9  O   UNL d   1     -49.044  12.926  21.792  0.00  0.00    -0.198 OA
ATOM     10  O   UNL d   1     -49.549  13.382  23.286  0.00  0.00    -0.198 OA
BRANCH   8  11
ATOM     11  C   UNL d   1     -49.993  13.458  22.213  0.00  0.00     0.135 A 
ATOM     12  S   UNL d   1     -50.411  14.108  22.477  0.00  0.00    -0.073 SA
ATOM     13  C   UNL d   1     -51.064  14.211  21.985  0.00  0.00     0.036 A 
ATOM     14  C   UNL d   1     -51.049  13.619  21.411  0.00  0.00     0.008 A 
ATOM     15  C   UNL d   1     -50.381  13.149  21.551  0.00  0.00     0.020 A 
ENDBRANCH   8  11
ENDBRANCH   1   8
BRANCH   4  16
ATOM     16  S   UNL d   1     -46.575  12.835  23.582  0.00  0.00    -0.084 SA
BRANCH  16  17
ATOM     17  C   UNL d   1     -45.969  12.873  23.021  0.00  0.00     0.029 A 
ATOM     18  C   UNL d   1     -45.809  13.580  22.625  0.00  0.00     0.006 A 
ATOM     19  C   UNL d   1     -45.204  13.602  22.071  0.00  0.00     0.001 A 
ATOM     20  C   UNL d   1     -44.755  12.934  21.905  0.00  0.00     0.000 A 
ATOM     21  C   UNL d   1     -44.916  12.231  22.302  0.00  0.00     0.001 A 
ATOM     22  C   UNL d   1     -45.519  12.200  22.857  0.00  0.00     0.006 A 
ENDBRANCH  16  17
ENDBRANCH   4  16
TORSDOF 4
ENDMDL
MODEL 2
REMARK VINA RESULT:      -7.0      1.276      4.249
REMARK  4 active torsions:
REMARK  status: ('A' for Active; 'I' for Inactive)
REMARK    1  A    between atoms: S_2  and  N_1 
REMARK    2  A    between atoms: C_7  and  S_2 
REMARK    3  A    between atoms: S_8  and  C_5 
REMARK    4  A    between atoms: C_16  and  S_8 
ROOT
ATOM      1  N   UNL d   1     -47.305  13.819  22.706  0.00  0.00    -0.151 N 
ATOM      2  C   UNL d   1     -48.001  13.500  23.006  0.00  0.00     0.102 A 
ATOM      3  N   UNL d   1     -47.460  14.603  22.510  0.00  0.00    -0.155 NA
ATOM      4  C   UNL d   1     -48.583  14.078  22.998  0.00  0.00     0.067 A 
ATOM      5  C   UNL d   1     -48.243  14.765  22.688  0.00  0.00     0.110 A 
ATOM      6  C   UNL d   1     -48.110  12.714  23.280  0.00  0.00     0.022 C 
ATOM      7  C   UNL d   1     -48.627  15.487  22.578  0.00  0.00     0.023 C 
ENDROOT
BRANCH   1   8
ATOM      8  S   UNL d   1     -46.586  13.437  22.614  0.00  0.00     0.292 S 
ATOM      9  O   UNL d   1     -46.835  13.153  21.879  0.00  0.00    -0.198 OA
ATOM     10  O   UNL d   1     -46.338  13.716  23.339  0.00  0.00    -0.198 OA
BRANCH   8  11
ATOM     11  C   UNL d   1     -45.862  13.047  22.514  0.00  0.00     0.135 A 
ATOM     12  S   UNL d   1     -45.628  12.357  22.883  0.00  0.00    -0.073 SA
ATOM     13  C   UNL d   1     -44.869  12.170  22.621  0.00  0.00     0.036 A 
ATOM     14  C   UNL d   1     -44.632  12.751  22.085  0.00  0.00     0.008 A 
ATOM     15  C   UNL d   1     -45.250  13.298  22.017  0.00  0.00     0.020 A 
ENDBRANCH   8  11
ENDBRANCH   1   8
BRANCH   4  16
ATOM     16  S   UNL d   1     -49.379  14.078  23.230  0.00  0.00    -0.084 SA
BRANCH  16  17
ATOM     17  C   UNL d   1     -49.941  13.699  22.758  0.00  0.00     0.029 A 
ATOM     18  C   UNL d   1     -50.232  14.065  22.077  0.00  0.00     0.006 A 
ATOM     19  C   UNL d   1     -50.790  13.675  21.619  0.00  0.00     0.001 A 
ATOM     20  C   UNL d   1     -51.064  12.928  21.827  0.00  0.00     0.000 A 
ATOM     21  C   UNL d   1     -50.773  12.566  22.506  0.00  0.00     0.001 A 
ATOM     22  C   UNL d   1     -50.214  12.949  22.970  0.00  0.00     0.006 A 
ENDBRANCH  16  17
ENDBRANCH   4  16
TORSDOF 4
ENDMDL
MODEL 3
REMARK VINA RESULT:      -6.9      1.123      4.091
REMARK  4 active torsions:
REMARK  status: ('A' for Active; 'I' for Inactive)
REMARK    1  A    between atoms: S_2  and  N_1 
REMARK    2  A    between atoms: C_7  and  S_2 
REMARK    3  A    between atoms: S_8  and  C_5 
REMARK    4  A    between atoms: C_16  and  S_8 
ROOT
ATOM      1  N   UNL d   1     -47.763  12.748  23.065  0.00  0.00    -0.151 N 
ATOM      2  C   UNL d   1     -48.302  13.367  23.110  0.00  0.00     0.102 A 
ATOM      3  N   UNL d   1     -48.163  12.060  23.277  0.00  0.00    -0.155 NA
ATOM      4  C   UNL d   1     -49.029  13.070  23.348  0.00  0.00     0.067 A 
ATOM      5  C   UNL d   1     -48.939  12.255  23.451  0.00  0.00     0.110 A 
ATOM      6  C   UNL d   1     -48.146  14.176  22.944  0.00  0.00     0.022 C 
ATOM      7  C   UNL d   1     -49.530  11.731  23.688  0.00  0.00     0.023 C 
ENDROOT
BRANCH   1   8
ATOM      8  S   UNL d   1     -46.974  12.795  22.851  0.00  0.00     0.292 S 
ATOM      9  O   UNL d   1     -46.761  12.792  23.649  0.00  0.00    -0.198 OA
ATOM     10  O   UNL d   1     -47.182  12.797  22.062  0.00  0.00    -0.198 OA
BRANCH   8  11
ATOM     11  C   UNL d   1     -46.174  12.842  22.642  0.00  0.00     0.135 A 
ATOM     12  S   UNL d   1     -45.821  13.438  22.208  0.00  0.00    -0.073 SA
ATOM     13  C   UNL d   1     -45.019  13.260  22.132  0.00  0.00     0.036 A 
ATOM     14  C   UNL d   1     -44.876  12.548  22.523  0.00  0.00     0.008 A 
ATOM     15  C   UNL d   1     -45.594  12.286  22.841  0.00  0.00     0.020 A 
ENDBRANCH   8  11
ENDBRANCH   1   8
BRANCH   4  16
ATOM     16  S   UNL d   1     -49.764  13.427  23.485  0.00  0.00    -0.084 SA
BRANCH  16  17
ATOM     17  C   UNL d   1     -50.200  13.724  22.849  0.00  0.00     0.029 A 
ATOM     18  C   UNL d   1     -50.598  13.210  22.339  0.00  0.00     0.006 A 
ATOM     19  C   UNL d   1     -51.026  13.521  21.711  0.00  0.00     0.001 A 
ATOM     20  C   UNL d   1     -51.064  14.332  21.583  0.00  0.00     0.000 A 
ATOM     21  C   UNL d   1     -50.667  14.841  22.092  0.00  0.00     0.001 A 
ATOM     22  C   UNL d   1     -50.236  14.539  22.722  0.00  0.00     0.006 A 
ENDBRANCH  16  17
ENDBRANCH   4  16
TORSDOF 4
ENDMDL
MODEL 4
REMARK VINA RESULT:      -6.1      8.885      9.917
REMARK  4 active torsions:
REMARK  status: ('A' for Active; 'I' for Inactive)
REMARK    1  A    between atoms: S_2  and  N_1 
REMARK    2  A    between atoms: C_7  and  S_2 
REMARK    3  A    between atoms: S_8  and  C_5 
REMARK    4  A    between atoms: C_16  and  S_8 
ROOT
ATOM      1  N   UNL d   1     -39.859  15.395  19.595  0.00  0.00    -0.151 N 
ATOM      2  C   UNL d   1     -39.748  14.711  19.153  0.00  0.00     0.102 A 
ATOM      3  N   UNL d   1     -40.288  15.921  19.128  0.00  0.00    -0.155 NA
ATOM      4  C   UNL d   1     -40.103  14.807  18.419  0.00  0.00     0.067 A 
ATOM      5  C   UNL d   1     -40.438  15.563  18.407  0.00  0.00     0.110 A 
ATOM      6  C   UNL d   1     -39.341  14.019  19.401  0.00  0.00     0.022 C 
ATOM      7  C   UNL d   1     -40.853  15.897  17.776  0.00  0.00     0.023 C 
ENDROOT
BRANCH   1   8
ATOM      8  S   UNL d   1     -39.597  15.538  20.358  0.00  0.00     0.292 S 
ATOM      9  O   UNL d   1     -40.273  15.168  20.656  0.00  0.00    -0.198 OA
ATOM     10  O   UNL d   1     -38.928  15.903  20.066  0.00  0.00    -0.198 OA
BRANCH   8  11
ATOM     11  C   UNL d   1     -39.339  15.679  21.132  0.00  0.00     0.135 A 
ATOM     12  S   UNL d   1     -38.567  15.806  21.369  0.00  0.00    -0.073 SA
ATOM     13  C   UNL d   1     -38.565  15.922  22.186  0.00  0.00     0.036 A 
ATOM     14  C   UNL d   1     -39.343  15.866  22.455  0.00  0.00     0.008 A 
ATOM     15  C   UNL d   1     -39.827  15.714  21.799  0.00  0.00     0.020 A 
ENDBRANCH   8  11
ENDBRANCH   1   8
BRANCH   4  16
ATOM     16  S   UNL d   1     -40.169  14.314  17.757  0.00  0.00    -0.084 SA
BRANCH  16  17
ATOM     17  C   UNL d   1     -39.517  14.208  17.260  0.00  0.00     0.029 A 
ATOM     18  C   UNL d   1     -39.302  14.796  16.722  0.00  0.00     0.006 A 
ATOM     19  C   UNL d   1     -38.652  14.676  16.235  0.00  0.00     0.001 A 
ATOM     20  C   UNL d   1     -38.214  13.982  16.275  0.00  0.00     0.000 A 
ATOM     21  C   UNL d   1     -38.431  13.397  16.812  0.00  0.00     0.001 A 
ATOM     22  C   UNL d   1     -39.079  13.509  17.303  0.00  0.00     0.006 A 
ENDBRANCH  16  17
ENDBRANCH   4  16
TORSDOF 4
ENDMDL
MODEL 5
REMARK VINA RESULT:      -5.8      8.725      9.775
REMARK  4 active torsions:
REMARK  status: ('A' for Active; 'I' for Inactive)
REMARK    1  A    between atoms: S_2  and  N_1 
REMARK    2  A    between atoms: C_7  and  S_2 
REMARK    3  A    between atoms: S_8  and  C_5 
REMARK    4  A    between atoms: C_16  and  S_8 
ROOT
ATOM      1  N   UNL d   1     -39.210  14.495  20.042  0.00  0.00    -0.151 N 
ATOM      2  C   UNL d   1     -39.857  14.545  19.537  0.00  0.00     0.102 A 
ATOM      3  N   UNL d   1     -38.619  14.084  19.643  0.00  0.00    -0.155 NA
ATOM      4  C   UNL d   1     -39.673  14.169  18.832  0.00  0.00     0.067 A 
ATOM      5  C   UNL d   1     -38.900  13.882  18.901  0.00  0.00     0.110 A 
ATOM      6  C   UNL d   1     -40.591  14.917  19.705  0.00  0.00     0.022 C 
ATOM      7  C   UNL d   1     -38.487  13.466  18.321  0.00  0.00     0.023 C 
ENDROOT
BRANCH   1   8
ATOM      8  S   UNL d   1     -39.152  14.796  20.802  0.00  0.00     0.292 S 
ATOM      9  O   UNL d   1     -39.543  14.128  21.092  0.00  0.00    -0.198 OA
ATOM     10  O   UNL d   1     -38.766  15.456  20.518  0.00  0.00    -0.198 OA
BRANCH   8  11
ATOM     11  C   UNL d   1     -39.098  15.093  21.573  0.00  0.00     0.135 A 
ATOM     12  S   UNL d   1     -39.114  15.881  21.791  0.00  0.00    -0.073 SA
ATOM     13  C   UNL d   1     -39.044  15.922  22.612  0.00  0.00     0.036 A 
ATOM     14  C   UNL d   1     -38.985  15.152  22.903  0.00  0.00     0.008 A 
ATOM     15  C   UNL d   1     -39.018  14.634  22.257  0.00  0.00     0.020 A 
ENDBRANCH   8  11
ENDBRANCH   1   8
BRANCH   4  16
ATOM     16  S   UNL d   1     -40.099  14.045  18.132  0.00  0.00    -0.084 SA
BRANCH  16  17
ATOM     17  C   UNL d   1     -40.205  14.670  17.603  0.00  0.00     0.029 A 
ATOM     18  C   UNL d   1     -39.583  14.919  17.120  0.00  0.00     0.006 A 
ATOM     19  C   UNL d   1     -39.704  15.542  16.599  0.00  0.00     0.001 A 
ATOM     20  C   UNL d   1     -40.432  15.920  16.550  0.00  0.00     0.000 A 
ATOM     21  C   UNL d   1     -41.050  15.670  17.032  0.00  0.00     0.001 A 
ATOM     22  C   UNL d   1     -40.938  15.048  17.556  0.00  0.00     0.006 A 
ENDBRANCH  16  17
ENDBRANCH   4  16
TORSDOF 4
ENDMDL
MODEL 6
REMARK VINA RESULT:      -5.7      7.675      9.080
REMARK  4 active torsions:
REMARK  status: ('A' for Active; 'I' for Inactive)
REMARK    1  A    between atoms: S_2  and  N_1 
REMARK    2  A    between atoms: C_7  and  S_2 
REMARK    3  A    between atoms: S_8  and  C_5 
REMARK    4  A    between atoms: C_16  and  S_8 
ROOT
ATOM      1  N   UNL d   1     -40.403  14.934  19.397  0.00  0.00    -0.151 N 
ATOM      2  C   UNL d   1     -39.930  15.221  20.005  0.00  0.00     0.102 A 
ATOM      3  N   UNL d   1     -40.991  14.472  19.742  0.00  0.00    -0.155 NA
ATOM      4  C   UNL d   1     -40.218  14.943  20.721  0.00  0.00     0.067 A 
ATOM      5  C   UNL d   1     -40.880  14.476  20.554  0.00  0.00     0.110 A 
ATOM      6  C   UNL d   1     -39.259  15.719  19.920  0.00  0.00     0.022 C 
ATOM      7  C   UNL d   1     -41.346  14.083  21.110  0.00  0.00     0.023 C 
ENDROOT
BRANCH   1   8
ATOM      8  S   UNL d   1     -40.315  15.074  18.595  0.00  0.00     0.292 S 
ATOM      9  O   UNL d   1     -39.919  14.353  18.516  0.00  0.00    -0.198 OA
ATOM     10  O   UNL d   1     -40.706  15.786  18.670  0.00  0.00    -0.198 OA
BRANCH   8  11
ATOM     11  C   UNL d   1     -40.222  15.208  17.783  0.00  0.00     0.135 A 
ATOM     12  S   UNL d   1     -40.599  15.783  17.341  0.00  0.00    -0.073 SA
ATOM     13  C   UNL d   1     -40.343  15.716  16.560  0.00  0.00     0.036 A 
ATOM     14  C   UNL d   1     -39.803  15.093  16.519  0.00  0.00     0.008 A 
ATOM     15  C   UNL d   1     -39.727  14.775  17.281  0.00  0.00     0.020 A 
ENDBRANCH   8  11
ENDBRANCH   1   8
BRANCH   4  16
ATOM     16  S   UNL d   1     -39.973  15.048  21.505  0.00  0.00    -0.084 SA
BRANCH  16  17
ATOM     17  C   UNL d   1     -39.316  14.634  21.786  0.00  0.00     0.029 A 
ATOM     18  C   UNL d   1     -39.373  13.829  21.965  0.00  0.00     0.006 A 
ATOM     19  C   UNL d   1     -38.711  13.432  22.243  0.00  0.00     0.001 A 
ATOM     20  C   UNL d   1     -37.994  13.820  22.346  0.00  0.00     0.000 A 
ATOM     21  C   UNL d   1     -37.940  14.622  22.168  0.00  0.00     0.001 A 
ATOM     22  C   UNL d   1     -38.597  15.027  21.889  0.00  0.00     0.006 A 
ENDBRANCH  16  17
ENDBRANCH   4  16
TORSDOF 4
ENDMDL
MODEL 7
REMARK VINA RESULT:      -5.7      8.326     10.056
REMARK  4 active torsions:
REMARK  status: ('A' for Active; 'I' for Inactive)
REMARK    1  A    between atoms: S_2  and  N_1 
REMARK    2  A    between atoms: C_7  and  S_2 
REMARK    3  A    between atoms: S_8  and  C_5 
REMARK    4  A    between atoms: C_16  and  S_8 
ROOT
ATOM      1  N   UNL d   1     -39.659  14.437  18.177  0.00  0.00    -0.151 N 
ATOM      2  C   UNL d   1     -39.509  15.036  18.719  0.00  0.00     0.102 A 
ATOM      3  N   UNL d   1     -40.352  14.061  18.415  0.00  0.00    -0.155 NA
ATOM      4  C   UNL d   1     -40.100  15.034  19.289  0.00  0.00     0.067 A 
ATOM      5  C   UNL d   1     -40.624  14.424  19.096  0.00  0.00     0.110 A 
ATOM      6  C   UNL d   1     -38.860  15.570  18.704  0.00  0.00     0.022 C 
ATOM      7  C   UNL d   1     -41.303  14.220  19.518  0.00  0.00     0.023 C 
ENDROOT
BRANCH   1   8
ATOM      8  S   UNL d   1     -39.211  14.242  17.520  0.00  0.00     0.292 S 
ATOM      9  O   UNL d   1     -39.625  14.803  17.076  0.00  0.00    -0.198 OA
ATOM     10  O   UNL d   1     -38.801  13.688  17.956  0.00  0.00    -0.198 OA
BRANCH   8  11
ATOM     11  C   UNL d   1     -38.762  14.051  16.850  0.00  0.00     0.135 A 
ATOM     12  S   UNL d   1     -38.278  13.398  16.763  0.00  0.00    -0.073 SA
ATOM     13  C   UNL d   1     -37.940  13.428  16.011  0.00  0.00     0.036 A 
ATOM     14  C   UNL d   1     -38.219  14.106  15.631  0.00  0.00     0.008 A 
ATOM     15  C   UNL d   1     -38.731  14.495  16.153  0.00  0.00     0.020 A 
ENDBRANCH   8  11
ENDBRANCH   1   8
BRANCH   4  16
ATOM     16  S   UNL d   1     -40.237  15.502  19.959  0.00  0.00    -0.084 SA
BRANCH  16  17
ATOM     17  C   UNL d   1     -39.796  15.371  20.645  0.00  0.00     0.029 A 
ATOM     18  C   UNL d   1     -39.926  14.696  21.103  0.00  0.00     0.006 A 
ATOM     19  C   UNL d   1     -39.480  14.580  21.782  0.00  0.00     0.001 A 
ATOM     20  C   UNL d   1     -38.908  15.124  22.013  0.00  0.00     0.000 A 
ATOM     21  C   UNL d   1     -38.781  15.796  21.555  0.00  0.00     0.001 A 
ATOM     22  C   UNL d   1     -39.223  15.919  20.874  0.00  0.00     0.006 A 
ENDBRANCH  16  17
ENDBRANCH   4  16
TORSDOF 4
ENDMDL
