MODEL 1
REMARK VINA RESULT:      -8.1      0.000      0.000
REMARK  10 active torsions:
REMARK  status: ('A' for Active; 'I' for Inactive)
REMARK    1  A    between atoms: C_19  and  N_1 
REMARK    2  A    between atoms: C_7  and  C_2 
REMARK    3  A    between atoms: S_3  and  N_8 
REMARK    4  A    between atoms: C_13  and  S_3 
REMARK    5  A    between atoms: S_9  and  C_5 
REMARK    6  A    between atoms: N_8  and  C_22 
REMARK    7  A    between atoms: C_17  and  S_9 
REMARK    8  A    between atoms: C_14  and  C_17 
REMARK    9  A    between atoms: C_15  and  C_14 
REMARK   10  A    between atoms: C_23  and  C_19 
ROOT
ATOM      1  C   UNL d   1      49.715  34.976  52.885  0.00  0.00     0.202 C 
ATOM      2  O   UNL d   1      49.729  35.582  53.444  0.00  0.00    -0.286 OA
ENDROOT
BRANCH   1   3
ATOM      3  C   UNL d   1      49.074  34.902  52.372  0.00  0.00     0.080 C 
BRANCH   3   4
ATOM      4  S   UNL d   1      48.404  35.381  52.472  0.00  0.00    -0.044 SA
BRANCH   4   5
ATOM      5  C   UNL d   1      47.762  35.306  51.961  0.00  0.00     0.201 A 
ATOM      6  N   UNL d   1      47.040  35.687  52.035  0.00  0.00    -0.267 N 
ATOM      7  C   UNL d   1      46.558  35.455  51.405  0.00  0.00     0.177 A 
ATOM      8  N   UNL d   1      46.990  34.929  50.944  0.00  0.00    -0.127 NA
ATOM      9  N   UNL d   1      47.739  34.837  51.291  0.00  0.00    -0.121 NA
BRANCH   6  10
ATOM     10  C   UNL d   1      46.859  36.208  52.648  0.00  0.00     0.084 C 
BRANCH  10  11
ATOM     11  C   UNL d   1      46.745  35.920  53.414  0.00  0.00     0.019 C 
ATOM     12  C   UNL d   1      46.553  36.444  54.029  0.00  0.00     0.002 C 
ENDBRANCH  10  11
ENDBRANCH   6  10
BRANCH   7  13
ATOM     13  C   UNL d   1      45.788  35.686  51.239  0.00  0.00     0.066 A 
ATOM     14  S   UNL d   1      45.104  35.256  51.400  0.00  0.00    -0.083 SA
ATOM     15  C   UNL d   1      44.459  35.703  51.139  0.00  0.00     0.035 A 
ATOM     16  C   UNL d   1      44.751  36.406  50.819  0.00  0.00     0.008 A 
ATOM     17  C   UNL d   1      45.574  36.394  50.882  0.00  0.00     0.010 A 
ENDBRANCH   7  13
ENDBRANCH   4   5
ENDBRANCH   3   4
ENDBRANCH   1   3
BRANCH   1  18
ATOM     18  C   UNL d   1      50.345  34.438  52.837  0.00  0.00     0.040 A 
ATOM     19  C   UNL d   1      50.966  34.575  52.308  0.00  0.00     0.005 A 
ATOM     20  C   UNL d   1      51.589  34.036  52.266  0.00  0.00     0.020 A 
ATOM     21  C   UNL d   1      51.597  33.370  52.742  0.00  0.00     0.094 A 
ATOM     22  C   UNL d   1      50.978  33.236  53.269  0.00  0.00     0.020 A 
ATOM     23  C   UNL d   1      50.353  33.769  53.316  0.00  0.00     0.005 A 
BRANCH  21  24
ATOM     24  N   UNL d   1      52.227  32.833  52.695  0.00  0.00    -0.158 NA
BRANCH  24  25
ATOM     25  S   UNL d   1      52.868  32.901  53.203  0.00  0.00     0.285 S 
ATOM     26  O   UNL d   1      53.166  33.532  52.751  0.00  0.00    -0.198 OA
ATOM     27  O   UNL d   1      52.575  32.272  53.656  0.00  0.00    -0.198 OA
BRANCH  25  28
ATOM     28  C   UNL d   1      53.515  32.964  53.723  0.00  0.00     0.105 A 
ATOM     29  C   UNL d   1      53.397  32.979  54.540  0.00  0.00     0.013 A 
ATOM     30  C   UNL d   1      54.035  33.041  55.050  0.00  0.00     0.001 A 
ATOM     31  C   UNL d   1      54.811  33.089  54.746  0.00  0.00     0.000 A 
ATOM     32  C   UNL d   1      54.929  33.074  53.930  0.00  0.00     0.001 A 
ATOM     33  C   UNL d   1      54.288  33.012  53.420  0.00  0.00     0.013 A 
ENDBRANCH  25  28
ENDBRANCH  24  25
ENDBRANCH  21  24
ENDBRANCH   1  18
TORSDOF 10
ENDMDL
MODEL 2
REMARK VINA RESULT:      -7.8      1.585      7.094
REMARK  10 active torsions:
REMARK  status: ('A' for Active; 'I' for Inactive)
REMARK    1  A    between atoms: C_19  and  N_1 
REMARK    2  A    between atoms: C_7  and  C_2 
REMARK    3  A    between atoms: S_3  and  N_8 
REMARK    4  A    between atoms: C_13  and  S_3 
REMARK    5  A    between atoms: S_9  and  C_5 
REMARK    6  A    between atoms: N_8  and  C_22 
REMARK    7  A    between atoms: C_17  and  S_9 
REMARK    8  A    between atoms: C_14  and  C_17 
REMARK    9  A    between atoms: C_15  and  C_14 
REMARK   10  A    between atoms: C_23  and  C_19 
ROOT
ATOM      1  C   UNL d   1      49.973  34.337  52.368  0.00  0.00     0.202 C 
ATOM      2  O   UNL d   1      49.999  33.714  51.828  0.00  0.00    -0.286 OA
ENDROOT
BRANCH   1   3
ATOM      3  C   UNL d   1      50.602  34.462  52.885  0.00  0.00     0.080 C 
BRANCH   3   4
ATOM      4  S   UNL d   1      51.244  33.936  52.893  0.00  0.00    -0.044 SA
BRANCH   4   5
ATOM      5  C   UNL d   1      51.940  34.140  53.284  0.00  0.00     0.201 A 
ATOM      6  N   UNL d   1      52.472  33.617  53.625  0.00  0.00    -0.267 N 
ATOM      7  C   UNL d   1      53.090  34.054  53.957  0.00  0.00     0.177 A 
ATOM      8  N   UNL d   1      52.932  34.849  53.817  0.00  0.00    -0.127 NA
ATOM      9  N   UNL d   1      52.218  34.901  53.399  0.00  0.00    -0.121 NA
BRANCH   6  10
ATOM     10  C   UNL d   1      52.375  32.798  53.619  0.00  0.00     0.084 C 
BRANCH  10  11
ATOM     11  C   UNL d   1      52.512  32.371  52.924  0.00  0.00     0.019 C 
ATOM     12  C   UNL d   1      52.420  31.546  52.921  0.00  0.00     0.002 C 
ENDBRANCH  10  11
ENDBRANCH   6  10
BRANCH   7  13
ATOM     13  C   UNL d   1      53.752  33.780  54.358  0.00  0.00     0.066 A 
ATOM     14  S   UNL d   1      53.797  33.603  55.161  0.00  0.00    -0.083 SA
ATOM     15  C   UNL d   1      54.568  33.346  55.318  0.00  0.00     0.035 A 
ATOM     16  C   UNL d   1      54.991  33.367  54.609  0.00  0.00     0.008 A 
ATOM     17  C   UNL d   1      54.484  33.636  54.016  0.00  0.00     0.010 A 
ENDBRANCH   7  13
ENDBRANCH   4   5
ENDBRANCH   3   4
ENDBRANCH   1   3
BRANCH   1  18
ATOM     18  C   UNL d   1      49.313  34.839  52.393  0.00  0.00     0.040 A 
ATOM     19  C   UNL d   1      49.101  35.209  53.102  0.00  0.00     0.005 A 
ATOM     20  C   UNL d   1      48.444  35.707  53.119  0.00  0.00     0.020 A 
ATOM     21  C   UNL d   1      48.002  35.837  52.442  0.00  0.00     0.094 A 
ATOM     22  C   UNL d   1      48.215  35.468  51.737  0.00  0.00     0.020 A 
ATOM     23  C   UNL d   1      48.869  34.970  51.712  0.00  0.00     0.005 A 
BRANCH  21  24
ATOM     24  N   UNL d   1      47.342  36.340  52.467  0.00  0.00    -0.158 NA
BRANCH  24  25
ATOM     25  S   UNL d   1      46.591  36.030  52.583  0.00  0.00     0.285 S 
ATOM     26  O   UNL d   1      46.488  35.962  51.760  0.00  0.00    -0.198 OA
ATOM     27  O   UNL d   1      46.690  36.097  53.403  0.00  0.00    -0.198 OA
BRANCH  25  28
ATOM     28  C   UNL d   1      45.830  35.716  52.708  0.00  0.00     0.105 A 
ATOM     29  C   UNL d   1      45.550  35.586  53.473  0.00  0.00     0.013 A 
ATOM     30  C   UNL d   1      44.801  35.278  53.594  0.00  0.00     0.001 A 
ATOM     31  C   UNL d   1      44.314  35.092  52.942  0.00  0.00     0.000 A 
ATOM     32  C   UNL d   1      44.594  35.222  52.177  0.00  0.00     0.001 A 
ATOM     33  C   UNL d   1      45.345  35.532  52.058  0.00  0.00     0.013 A 
ENDBRANCH  25  28
ENDBRANCH  24  25
ENDBRANCH  21  24
ENDBRANCH   1  18
TORSDOF 10
ENDMDL
MODEL 3
REMARK VINA RESULT:      -7.4      1.409      2.084
REMARK  10 active torsions:
REMARK  status: ('A' for Active; 'I' for Inactive)
REMARK    1  A    between atoms: C_19  and  N_1 
REMARK    2  A    between atoms: C_7  and  C_2 
REMARK    3  A    between atoms: S_3  and  N_8 
REMARK    4  A    between atoms: C_13  and  S_3 
REMARK    5  A    between atoms: S_9  and  C_5 
REMARK    6  A    between atoms: N_8  and  C_22 
REMARK    7  A    between atoms: C_17  and  S_9 
REMARK    8  A    between atoms: C_14  and  C_17 
REMARK    9  A    between atoms: C_15  and  C_14 
REMARK   10  A    between atoms: C_23  and  C_19 
ROOT
ATOM      1  C   UNL d   1      49.667  34.665  52.334  0.00  0.00     0.202 C 
ATOM      2  O   UNL d   1      49.344  34.451  51.606  0.00  0.00    -0.286 OA
ENDROOT
BRANCH   1   3
ATOM      3  C   UNL d   1      49.237  35.136  52.856  0.00  0.00     0.080 C 
BRANCH   3   4
ATOM      4  S   UNL d   1      48.498  35.438  52.628  0.00  0.00    -0.044 SA
BRANCH   4   5
ATOM      5  C   UNL d   1      47.960  35.688  53.200  0.00  0.00     0.201 A 
ATOM      6  N   UNL d   1      47.143  35.677  53.131  0.00  0.00    -0.267 N 
ATOM      7  C   UNL d   1      46.819  35.975  53.830  0.00  0.00     0.177 A 
ATOM      8  N   UNL d   1      47.443  36.169  54.328  0.00  0.00    -0.127 NA
ATOM      9  N   UNL d   1      48.152  35.990  53.936  0.00  0.00    -0.121 NA
BRANCH   6  10
ATOM     10  C   UNL d   1      46.745  35.407  52.461  0.00  0.00     0.084 C 
BRANCH  10  11
ATOM     11  C   UNL d   1      46.698  35.885  51.787  0.00  0.00     0.019 C 
ATOM     12  C   UNL d   1      46.355  35.588  51.092  0.00  0.00     0.002 C 
ENDBRANCH  10  11
ENDBRANCH   6  10
BRANCH   7  13
ATOM     13  C   UNL d   1      46.027  36.073  54.024  0.00  0.00     0.066 A 
ATOM     14  S   UNL d   1      45.548  36.709  53.815  0.00  0.00    -0.083 SA
ATOM     15  C   UNL d   1      44.795  36.572  54.130  0.00  0.00     0.035 A 
ATOM     16  C   UNL d   1      44.817  35.851  54.532  0.00  0.00     0.008 A 
ATOM     17  C   UNL d   1      45.580  35.544  54.465  0.00  0.00     0.010 A 
ENDBRANCH   7  13
ENDBRANCH   4   5
ENDBRANCH   3   4
ENDBRANCH   1   3
BRANCH   1  18
ATOM     18  C   UNL d   1      50.427  34.406  52.545  0.00  0.00     0.040 A 
ATOM     19  C   UNL d   1      51.048  34.460  52.000  0.00  0.00     0.005 A 
ATOM     20  C   UNL d   1      51.801  34.202  52.216  0.00  0.00     0.020 A 
ATOM     21  C   UNL d   1      51.937  33.894  52.962  0.00  0.00     0.094 A 
ATOM     22  C   UNL d   1      51.318  33.841  53.503  0.00  0.00     0.020 A 
ATOM     23  C   UNL d   1      50.565  34.097  53.295  0.00  0.00     0.005 A 
BRANCH  21  24
ATOM     24  N   UNL d   1      52.697  33.636  53.172  0.00  0.00    -0.158 NA
BRANCH  24  25
ATOM     25  S   UNL d   1      52.859  32.833  53.235  0.00  0.00     0.285 S 
ATOM     26  O   UNL d   1      52.804  32.753  52.409  0.00  0.00    -0.198 OA
ATOM     27  O   UNL d   1      52.914  32.909  54.059  0.00  0.00    -0.198 OA
BRANCH  25  28
ATOM     28  C   UNL d   1      53.023  32.020  53.307  0.00  0.00     0.105 A 
ATOM     29  C   UNL d   1      53.517  31.743  53.907  0.00  0.00     0.013 A 
ATOM     30  C   UNL d   1      53.677  30.943  53.976  0.00  0.00     0.001 A 
ATOM     31  C   UNL d   1      53.341  30.400  53.438  0.00  0.00     0.000 A 
ATOM     32  C   UNL d   1      52.847  30.677  52.838  0.00  0.00     0.001 A 
ATOM     33  C   UNL d   1      52.688  31.480  52.771  0.00  0.00     0.013 A 
ENDBRANCH  25  28
ENDBRANCH  24  25
ENDBRANCH  21  24
ENDBRANCH   1  18
TORSDOF 10
ENDMDL
