MODEL 1
REMARK VINA RESULT:      -0.5      0.000      0.000
REMARK  6 active torsions:
REMARK  status: ('A' for Active; 'I' for Inactive)
REMARK       I    between atoms: N_2  and  C_1 
REMARK    1  A    between atoms: C_5  and  C_1 
REMARK    2  A    between atoms: C_4  and  N_2 
REMARK    3  A    between atoms: C_3  and  C_4 
REMARK    4  A    between atoms: N_7  and  C_4 
REMARK    5  A    between atoms: C_15  and  N_7 
REMARK    6  A    between atoms: C_14  and  C_15 
ROOT
ATOM      1  C   UNL d   1      31.004  16.209 -24.078  0.00  0.00     0.280 C 
ATOM      2  N   UNL d   1      31.417  16.912 -24.124  0.00  0.00    -0.189 NA
ATOM      3  O   UNL d   1      31.393  15.512 -23.903  0.00  0.00    -0.265 OA
ENDROOT
BRANCH   2   4
ATOM      4  C   UNL d   1      32.238  16.932 -23.994  0.00  0.00     0.185 C 
BRANCH   4   5
ATOM      5  C   UNL d   1      32.735  16.452 -24.463  0.00  0.00     0.250 C 
ATOM      6 CL   UNL d   1      32.844  15.966 -23.806  0.00  0.00    -0.075 Cl
ATOM      7 CL   UNL d   1      32.598  16.966 -25.096  0.00  0.00    -0.075 Cl
ATOM      8 CL   UNL d   1      33.240  15.967 -24.946  0.00  0.00    -0.075 Cl
ENDBRANCH   4   5
BRANCH   4   9
ATOM      9  N   UNL d   1      32.536  17.417 -23.416  0.00  0.00    -0.226 NA
BRANCH   9  10
ATOM     10  C   UNL d   1      32.514  18.248 -23.500  0.00  0.00     0.102 C 
BRANCH  10  11
ATOM     11  C   UNL d   1      32.722  18.744 -22.901  0.00  0.00     0.038 A 
ATOM     12  C   UNL d   1      33.025  18.427 -22.189  0.00  0.00     0.101 A 
ATOM     13  N   UNL d   1      33.239  18.940 -21.574  0.00  0.00    -0.242 NA
ATOM     14  C   UNL d   1      33.160  19.732 -21.652  0.00  0.00     0.099 A 
ATOM     15  C   UNL d   1      32.858  20.037 -22.364  0.00  0.00     0.021 A 
ATOM     16  C   UNL d   1      32.641  19.549 -22.981  0.00  0.00     0.005 A 
ENDBRANCH  10  11
ENDBRANCH   9  10
ENDBRANCH   4   9
ENDBRANCH   2   4
BRANCH   1  17
ATOM     17  C   UNL d   1      30.202  16.176 -24.203  0.00  0.00     0.058 A 
ATOM     18  C   UNL d   1      29.691  15.998 -23.611  0.00  0.00     0.005 A 
ATOM     19  C   UNL d   1      28.875  15.963 -23.728  0.00  0.00     0.000 A 
ATOM     20  C   UNL d   1      30.011  15.848 -22.864  0.00  0.00     0.000 A 
ATOM     21  C   UNL d   1      28.381  15.778 -23.101  0.00  0.00     0.000 A 
ATOM     22  C   UNL d   1      28.577  16.114 -24.471  0.00  0.00     0.000 A 
ATOM     23  C   UNL d   1      28.692  15.627 -22.350  0.00  0.00     0.000 A 
ATOM     24  C   UNL d   1      29.525  15.660 -22.221  0.00  0.00     0.000 A 
ATOM     25  C   UNL d   1      29.096  16.300 -25.097  0.00  0.00     0.000 A 
ATOM     26  C   UNL d   1      29.897  16.328 -24.952  0.00  0.00     0.005 A 
ENDBRANCH   1  17
TORSDOF 6
ENDMDL
MODEL 2
REMARK VINA RESULT:      -0.0      1.250      1.635
REMARK  6 active torsions:
REMARK  status: ('A' for Active; 'I' for Inactive)
REMARK       I    between atoms: N_2  and  C_1 
REMARK    1  A    between atoms: C_5  and  C_1 
REMARK    2  A    between atoms: C_4  and  N_2 
REMARK    3  A    between atoms: C_3  and  C_4 
REMARK    4  A    between atoms: N_7  and  C_4 
REMARK    5  A    between atoms: C_15  and  N_7 
REMARK    6  A    between atoms: C_14  and  C_15 
ROOT
ATOM      1  C   UNL d   1      31.209  17.711 -23.805  0.00  0.00     0.280 C 
ATOM      2  N   UNL d   1      31.432  18.496 -23.846  0.00  0.00    -0.189 NA
ATOM      3  O   UNL d   1      31.767  17.131 -23.667  0.00  0.00    -0.265 OA
ENDROOT
BRANCH   2   4
ATOM      4  C   UNL d   1      32.227  18.718 -23.747  0.00  0.00     0.185 C 
BRANCH   4   5
ATOM      5  C   UNL d   1      32.726  18.749 -24.416  0.00  0.00     0.250 C 
ATOM      6 CL   UNL d   1      32.280  19.386 -24.689  0.00  0.00    -0.075 Cl
ATOM      7 CL   UNL d   1      33.146  18.108 -24.105  0.00  0.00    -0.075 Cl
ATOM      8 CL   UNL d   1      33.238  18.775 -25.095  0.00  0.00    -0.075 Cl
ENDBRANCH   4   5
BRANCH   4   9
ATOM      9  N   UNL d   1      32.499  18.899 -23.004  0.00  0.00    -0.226 NA
BRANCH   9  10
ATOM     10  C   UNL d   1      32.380  19.659 -22.677  0.00  0.00     0.102 C 
BRANCH  10  11
ATOM     11  C   UNL d   1      32.642  19.853 -21.941  0.00  0.00     0.038 A 
ATOM     12  C   UNL d   1      32.966  19.260 -21.449  0.00  0.00     0.101 A 
ATOM     13  N   UNL d   1      33.234  19.464 -20.691  0.00  0.00    -0.242 NA
ATOM     14  C   UNL d   1      33.187  20.216 -20.425  0.00  0.00     0.099 A 
ATOM     15  C   UNL d   1      32.862  20.797 -20.923  0.00  0.00     0.021 A 
ATOM     16  C   UNL d   1      32.592  20.619 -21.672  0.00  0.00     0.005 A 
ENDBRANCH  10  11
ENDBRANCH   9  10
ENDBRANCH   4   9
ENDBRANCH   2   4
BRANCH   1  17
ATOM     17  C   UNL d   1      30.436  17.482 -23.900  0.00  0.00     0.058 A 
ATOM     18  C   UNL d   1      30.147  16.823 -23.546  0.00  0.00     0.005 A 
ATOM     19  C   UNL d   1      29.362  16.583 -23.637  0.00  0.00     0.000 A 
ATOM     20  C   UNL d   1      30.666  16.382 -23.079  0.00  0.00     0.000 A 
ATOM     21  C   UNL d   1      29.099  15.904 -23.261  0.00  0.00     0.000 A 
ATOM     22  C   UNL d   1      28.864  17.029 -24.101  0.00  0.00     0.000 A 
ATOM     23  C   UNL d   1      29.612  15.456 -22.791  0.00  0.00     0.000 A 
ATOM     24  C   UNL d   1      30.415  15.694 -22.693  0.00  0.00     0.000 A 
ATOM     25  C   UNL d   1      29.151  17.717 -24.475  0.00  0.00     0.000 A 
ATOM     26  C   UNL d   1      29.930  17.931 -24.368  0.00  0.00     0.005 A 
ENDBRANCH   1  17
TORSDOF 6
ENDMDL
MODEL 3
REMARK VINA RESULT:       2.2      2.574      5.333
REMARK  6 active torsions:
REMARK  status: ('A' for Active; 'I' for Inactive)
REMARK       I    between atoms: N_2  and  C_1 
REMARK    1  A    between atoms: C_5  and  C_1 
REMARK    2  A    between atoms: C_4  and  N_2 
REMARK    3  A    between atoms: C_3  and  C_4 
REMARK    4  A    between atoms: N_7  and  C_4 
REMARK    5  A    between atoms: C_15  and  N_7 
REMARK    6  A    between atoms: C_14  and  C_15 
ROOT
ATOM      1  C   UNL d   1      32.339  20.267 -22.126  0.00  0.00     0.280 C 
ATOM      2  N   UNL d   1      32.846  19.943 -22.679  0.00  0.00    -0.189 NA
ATOM      3  O   UNL d   1      31.531  20.185 -22.209  0.00  0.00    -0.265 OA
ENDROOT
BRANCH   2   4
ATOM      4  C   UNL d   1      32.549  19.526 -23.334  0.00  0.00     0.185 C 
BRANCH   4   5
ATOM      5  C   UNL d   1      32.477  19.920 -24.067  0.00  0.00     0.250 C 
ATOM      6 CL   UNL d   1      31.720  19.601 -24.136  0.00  0.00    -0.075 Cl
ATOM      7 CL   UNL d   1      33.241  20.217 -23.957  0.00  0.00    -0.075 Cl
ATOM      8 CL   UNL d   1      32.410  20.323 -24.813  0.00  0.00    -0.075 Cl
ENDBRANCH   4   5
BRANCH   4   9
ATOM      9  N   UNL d   1      32.337  18.748 -23.246  0.00  0.00    -0.226 NA
BRANCH   9  10
ATOM     10  C   UNL d   1      32.787  18.138 -23.597  0.00  0.00     0.102 C 
BRANCH  10  11
ATOM     11  C   UNL d   1      32.635  17.360 -23.459  0.00  0.00     0.038 A 
ATOM     12  C   UNL d   1      31.857  17.120 -23.269  0.00  0.00     0.101 A 
ATOM     13  N   UNL d   1      31.703  16.317 -23.127  0.00  0.00    -0.242 NA
ATOM     14  C   UNL d   1      32.286  15.772 -23.169  0.00  0.00     0.099 A 
ATOM     15  C   UNL d   1      33.056  16.022 -23.358  0.00  0.00     0.021 A 
ATOM     16  C   UNL d   1      33.229  16.807 -23.502  0.00  0.00     0.005 A 
ENDBRANCH  10  11
ENDBRANCH   9  10
ENDBRANCH   4   9
ENDBRANCH   2   4
BRANCH   1  17
ATOM     17  C   UNL d   1      32.617  20.676 -21.482  0.00  0.00     0.058 A 
ATOM     18  C   UNL d   1      32.570  21.476 -21.440  0.00  0.00     0.005 A 
ATOM     19  C   UNL d   1      32.849  21.901 -20.789  0.00  0.00     0.000 A 
ATOM     20  C   UNL d   1      32.227  21.872 -22.079  0.00  0.00     0.000 A 
ATOM     21  C   UNL d   1      32.785  22.718 -20.779  0.00  0.00     0.000 A 
ATOM     22  C   UNL d   1      33.185  21.495 -20.168  0.00  0.00     0.000 A 
ATOM     23  C   UNL d   1      32.443  23.122 -21.414  0.00  0.00     0.000 A 
ATOM     24  C   UNL d   1      32.155  22.696 -22.083  0.00  0.00     0.000 A 
ATOM     25  C   UNL d   1      33.241  20.663 -20.198  0.00  0.00     0.000 A 
ATOM     26  C   UNL d   1      32.957  20.269 -20.853  0.00  0.00     0.005 A 
ENDBRANCH   1  17
TORSDOF 6
ENDMDL
