MODEL 1
REMARK VINA RESULT:      27.3      0.000      0.000
REMARK  1 active torsions:
REMARK  status: ('A' for Active; 'I' for Inactive)
REMARK    1  A    between atoms: C_9  and  C_1 
ROOT
ATOM      1  C   UNL d   1     -58.011 -98.826 -44.169  0.00  0.00     0.087 A 
ATOM      2  N   UNL d   1     -58.213 -98.841 -43.347  0.00  0.00    -0.191 NA
ATOM      3  C   UNL d   1     -58.599 -98.807 -44.737  0.00  0.00     0.036 A 
ATOM      4  C   UNL d   1     -59.051 -98.836 -43.141  0.00  0.00     0.369 A 
ATOM      5  N   UNL d   1     -59.620 -98.816 -43.774  0.00  0.00    -0.191 NA
ATOM      6  C   UNL d   1     -59.395 -98.802 -44.542  0.00  0.00     0.088 A 
ATOM      7  C   UNL d   1     -58.349 -98.792 -45.544  0.00  0.00     0.014 A 
ATOM      8  O   UNL d   1     -59.348 -98.850 -42.323  0.00  0.00    -0.242 OA
ATOM      9  C   UNL d   1     -59.958 -98.782 -45.149  0.00  0.00     0.020 A 
ATOM     10  C   UNL d   1     -58.899 -98.773 -46.142  0.00  0.00     0.058 A 
ATOM     11  C   UNL d   1     -59.737 -98.768 -45.937  0.00  0.00     0.013 A 
ATOM     12 CL   UNL d   1     -58.629 -98.759 -46.954  0.00  0.00    -0.082 Cl
ENDROOT
BRANCH   1  13
ATOM     13  C   UNL d   1     -57.246 -98.831 -44.357  0.00  0.00     0.018 A 
ATOM     14  C   UNL d   1     -56.687 -98.911 -43.763  0.00  0.00     0.002 A 
ATOM     15  C   UNL d   1     -55.880 -98.921 -43.918  0.00  0.00     0.000 A 
ATOM     16  C   UNL d   1     -55.606 -98.841 -44.759  0.00  0.00     0.000 A 
ATOM     17  C   UNL d   1     -56.185 -98.761 -45.342  0.00  0.00     0.000 A 
ATOM     18  C   UNL d   1     -56.992 -98.756 -45.144  0.00  0.00     0.002 A 
ENDBRANCH   1  13
TORSDOF 1
ENDMDL
MODEL 2
REMARK VINA RESULT:      28.3      1.734      2.258
REMARK  1 active torsions:
REMARK  status: ('A' for Active; 'I' for Inactive)
REMARK    1  A    between atoms: C_9  and  C_1 
ROOT
ATOM      1  C   UNL d   1     -58.005 -98.837 -44.878  0.00  0.00     0.087 A 
ATOM      2  N   UNL d   1     -58.210 -98.824 -45.699  0.00  0.00    -0.191 NA
ATOM      3  C   UNL d   1     -58.590 -98.814 -44.308  0.00  0.00     0.036 A 
ATOM      4  C   UNL d   1     -59.048 -98.787 -45.902  0.00  0.00     0.369 A 
ATOM      5  N   UNL d   1     -59.614 -98.765 -45.267  0.00  0.00    -0.191 NA
ATOM      6  C   UNL d   1     -59.386 -98.779 -44.500  0.00  0.00     0.088 A 
ATOM      7  C   UNL d   1     -58.337 -98.828 -43.502  0.00  0.00     0.014 A 
ATOM      8  O   UNL d   1     -59.347 -98.770 -46.719  0.00  0.00    -0.242 OA
ATOM      9  C   UNL d   1     -59.947 -98.757 -43.891  0.00  0.00     0.020 A 
ATOM     10  C   UNL d   1     -58.885 -98.807 -42.901  0.00  0.00     0.058 A 
ATOM     11  C   UNL d   1     -59.724 -98.770 -43.103  0.00  0.00     0.013 A 
ATOM     12 CL   UNL d   1     -58.613 -98.823 -42.090  0.00  0.00    -0.082 Cl
ENDROOT
BRANCH   1  13
ATOM     13  C   UNL d   1     -57.240 -98.870 -44.693  0.00  0.00     0.018 A 
ATOM     14  C   UNL d   1     -56.679 -98.756 -45.280  0.00  0.00     0.002 A 
ATOM     15  C   UNL d   1     -55.872 -98.784 -45.127  0.00  0.00     0.000 A 
ATOM     16  C   UNL d   1     -55.600 -98.943 -44.297  0.00  0.00     0.000 A 
ATOM     17  C   UNL d   1     -56.180 -99.055 -43.721  0.00  0.00     0.000 A 
ATOM     18  C   UNL d   1     -56.987 -99.019 -43.916  0.00  0.00     0.002 A 
ENDBRANCH   1  13
TORSDOF 1
ENDMDL
