MODEL 1
REMARK VINA RESULT:      -6.1      0.000      0.000
REMARK  2 active torsions:
REMARK  status: ('A' for Active; 'I' for Inactive)
REMARK    1  A    between atoms: C_6  and  C_1 
REMARK    2  A    between atoms: C_7  and  C_5 
ROOT
ATOM      1  C   UNL d   1     -41.810-122.339 -54.516  0.00  0.00     0.169 A 
ATOM      2  C   UNL d   1     -41.874-122.142 -53.702  0.00  0.00     0.048 A 
ATOM      3  N   UNL d   1     -41.123-123.257 -53.796  0.00  0.00    -0.148 NA
ATOM      4  N   UNL d   1     -41.353-123.017 -54.565  0.00  0.00    -0.142 NA
ATOM      5  C   UNL d   1     -41.457-122.699 -53.265  0.00  0.00     0.105 A 
ENDROOT
BRANCH   5   6
ATOM      6  C   UNL d   1     -41.374-122.716 -52.447  0.00  0.00     0.019 A 
ATOM      7  C   UNL d   1     -41.260-123.438 -52.062  0.00  0.00     0.002 A 
ATOM      8  C   UNL d   1     -41.177-123.460 -51.244  0.00  0.00     0.011 A 
ATOM      9  C   UNL d   1     -41.204-122.773 -50.788  0.00  0.00     0.058 A 
ATOM     10  C   UNL d   1     -41.318-122.057 -51.178  0.00  0.00     0.011 A 
ATOM     11 CL   UNL d   1     -41.123-122.797 -49.988  0.00  0.00    -0.082 Cl
ATOM     12  C   UNL d   1     -41.404-122.020 -52.000  0.00  0.00     0.002 A 
ENDBRANCH   5   6
BRANCH   1  13
ATOM     13  C   UNL d   1     -42.153-121.917 -55.149  0.00  0.00     0.231 C 
ATOM     14  O   UNL d   1     -42.979-121.850 -55.224  0.00  0.00    -0.643 OA
ATOM     15  O   UNL d   1     -41.644-121.561 -55.707  0.00  0.00    -0.643 OA
ENDBRANCH   1  13
TORSDOF 2
ENDMDL
MODEL 2
REMARK VINA RESULT:      -5.7      2.566      3.683
REMARK  2 active torsions:
REMARK  status: ('A' for Active; 'I' for Inactive)
REMARK    1  A    between atoms: C_6  and  C_1 
REMARK    2  A    between atoms: C_7  and  C_5 
ROOT
ATOM      1  C   UNL d   1     -41.311-122.834 -51.791  0.00  0.00     0.169 A 
ATOM      2  C   UNL d   1     -41.470-122.333 -52.446  0.00  0.00     0.048 A 
ATOM      3  N   UNL d   1     -41.457-123.603 -52.895  0.00  0.00    -0.148 NA
ATOM      4  N   UNL d   1     -41.305-123.604 -52.072  0.00  0.00    -0.142 NA
ATOM      5  C   UNL d   1     -41.558-122.800 -53.116  0.00  0.00     0.105 A 
ENDROOT
BRANCH   5   6
ATOM      6  C   UNL d   1     -41.719-122.535 -53.879  0.00  0.00     0.019 A 
ATOM      7  C   UNL d   1     -42.317-121.980 -54.001  0.00  0.00     0.002 A 
ATOM      8  C   UNL d   1     -42.481-121.712 -54.762  0.00  0.00     0.011 A 
ATOM      9  C   UNL d   1     -42.061-121.986 -55.416  0.00  0.00     0.058 A 
ATOM     10  C   UNL d   1     -41.466-122.540 -55.286  0.00  0.00     0.011 A 
ATOM     11 CL   UNL d   1     -42.223-121.723 -56.159  0.00  0.00    -0.082 Cl
ATOM     12  C   UNL d   1     -41.290-122.818 -54.527  0.00  0.00     0.002 A 
ENDBRANCH   5   6
BRANCH   1  13
ATOM     13  C   UNL d   1     -41.185-122.584 -51.005  0.00  0.00     0.231 C 
ATOM     14  O   UNL d   1     -41.123-121.777 -50.815  0.00  0.00    -0.643 OA
ATOM     15  O   UNL d   1     -41.123-123.167 -50.410  0.00  0.00    -0.643 OA
ENDBRANCH   1  13
TORSDOF 2
ENDMDL
MODEL 3
REMARK VINA RESULT:      -5.2      1.826      2.440
REMARK  2 active torsions:
REMARK  status: ('A' for Active; 'I' for Inactive)
REMARK    1  A    between atoms: C_6  and  C_1 
REMARK    2  A    between atoms: C_7  and  C_5 
ROOT
ATOM      1  C   UNL d   1     -41.281-122.452 -52.448  0.00  0.00     0.169 A 
ATOM      2  C   UNL d   1     -41.543-122.916 -51.799  0.00  0.00     0.048 A 
ATOM      3  N   UNL d   1     -41.282-121.677 -51.338  0.00  0.00    -0.148 NA
ATOM      4  N   UNL d   1     -41.124-121.701 -52.160  0.00  0.00    -0.142 NA
ATOM      5  C   UNL d   1     -41.543-122.446 -51.126  0.00  0.00     0.105 A 
ENDROOT
BRANCH   5   6
ATOM      6  C   UNL d   1     -41.761-122.679 -50.367  0.00  0.00     0.019 A 
ATOM      7  C   UNL d   1     -42.517-122.502 -50.086  0.00  0.00     0.002 A 
ATOM      8  C   UNL d   1     -42.739-122.733 -49.328  0.00  0.00     0.011 A 
ATOM      9  C   UNL d   1     -42.222-123.142 -48.832  0.00  0.00     0.058 A 
ATOM     10  C   UNL d   1     -41.470-123.315 -49.119  0.00  0.00     0.011 A 
ATOM     11 CL   UNL d   1     -42.442-123.367 -48.091  0.00  0.00    -0.082 Cl
ATOM     12  C   UNL d   1     -41.233-123.089 -49.879  0.00  0.00     0.002 A 
ENDBRANCH   5   6
BRANCH   1  13
ATOM     13  C   UNL d   1     -41.200-122.716 -53.236  0.00  0.00     0.231 C 
ATOM     14  O   UNL d   1     -41.195-122.179 -53.871  0.00  0.00    -0.643 OA
ATOM     15  O   UNL d   1     -41.123-123.536 -53.371  0.00  0.00    -0.643 OA
ENDBRANCH   1  13
TORSDOF 2
ENDMDL
MODEL 4
REMARK VINA RESULT:      -4.3      3.190      4.075
REMARK  2 active torsions:
REMARK  status: ('A' for Active; 'I' for Inactive)
REMARK    1  A    between atoms: C_6  and  C_1 
REMARK    2  A    between atoms: C_7  and  C_5 
ROOT
ATOM      1  C   UNL d   1     -42.179-123.249 -49.614  0.00  0.00     0.169 A 
ATOM      2  C   UNL d   1     -42.276-122.973 -50.401  0.00  0.00     0.048 A 
ATOM      3  N   UNL d   1     -41.123-123.669 -50.349  0.00  0.00    -0.148 NA
ATOM      4  N   UNL d   1     -41.477-123.671 -49.590  0.00  0.00    -0.142 NA
ATOM      5  C   UNL d   1     -41.635-123.228 -50.847  0.00  0.00     0.105 A 
ENDROOT
BRANCH   5   6
ATOM      6  C   UNL d   1     -41.506-123.081 -51.646  0.00  0.00     0.019 A 
ATOM      7  C   UNL d   1     -41.496-123.710 -52.181  0.00  0.00     0.002 A 
ATOM      8  C   UNL d   1     -41.368-123.568 -52.981  0.00  0.00     0.011 A 
ATOM      9  C   UNL d   1     -41.248-122.806 -53.271  0.00  0.00     0.058 A 
ATOM     10  C   UNL d   1     -41.259-122.184 -52.732  0.00  0.00     0.011 A 
ATOM     11 CL   UNL d   1     -41.123-122.670 -54.054  0.00  0.00    -0.082 Cl
ATOM     12  C   UNL d   1     -41.386-122.311 -51.925  0.00  0.00     0.002 A 
ENDBRANCH   5   6
BRANCH   1  13
ATOM     13  C   UNL d   1     -42.707-123.114 -48.981  0.00  0.00     0.231 C 
ATOM     14  O   UNL d   1     -42.788-122.358 -48.643  0.00  0.00    -0.643 OA
ATOM     15  O   UNL d   1     -43.152-123.759 -48.694  0.00  0.00    -0.643 OA
ENDBRANCH   1  13
TORSDOF 2
ENDMDL
