MODEL 1
REMARK VINA RESULT:      -2.9      0.000      0.000
REMARK  5 active torsions:
REMARK  status: ('A' for Active; 'I' for Inactive)
REMARK    1  A    between atoms: N_9  and  C_1 
REMARK    2  A    between atoms: C_12  and  C_2 
REMARK       I    between atoms: C_13  and  N_9 
REMARK    3  A    between atoms: C_11  and  C_14 
REMARK    4  A    between atoms: O_19  and  C_12 
REMARK    5  A    between atoms: C_14  and  C_13 
ROOT
ATOM      1  C   UNL d   1      58.619  -0.755  29.574  0.00  0.00     0.119 A 
ATOM      2  C   UNL d   1      59.389  -0.677  29.244  0.00  0.00     0.087 A 
ATOM      3  S   UNL d   1      58.348  -1.527  29.464  0.00  0.00    -0.068 SA
ATOM      4  C   UNL d   1      59.580  -1.404  28.934  0.00  0.00     0.013 A 
ATOM      5  C   UNL d   1      58.945  -1.937  29.063  0.00  0.00     0.031 A 
ATOM      6  C   UNL d   1      60.289  -1.566  28.558  0.00  0.00     0.001 C 
ATOM      7  C   UNL d   1      58.917  -2.729  28.834  0.00  0.00     0.007 C 
ENDROOT
BRANCH   1   8
ATOM      8  N   UNL d   1      58.138  -0.202  29.965  0.00  0.00    -0.201 NA
ATOM      9  C   UNL d   1      57.706  -0.425  30.629  0.00  0.00     0.280 C 
ATOM     10  O   UNL d   1      57.742  -1.212  30.922  0.00  0.00    -0.265 OA
BRANCH   9  11
ATOM     11  C   UNL d   1      57.216   0.139  31.028  0.00  0.00     0.074 C 
BRANCH  11  12
ATOM     12  C   UNL d   1      57.013   0.044  31.831  0.00  0.00     0.095 A 
ATOM     13  C   UNL d   1      57.452   0.289  32.459  0.00  0.00     0.287 A 
ATOM     14  N   UNL d   1      57.047   0.084  33.150  0.00  0.00    -0.181 NA
ATOM     15  O   UNL d   1      58.188   0.682  32.434  0.00  0.00    -0.265 OA
ATOM     16  C   UNL d   1      56.346  -0.294  32.912  0.00  0.00     0.217 A 
ATOM     17  S   UNL d   1      56.333  -0.315  32.084  0.00  0.00    -0.042 SA
ATOM     18  N   UNL d   1      55.762  -0.597  33.434  0.00  0.00    -0.119 N 
ENDBRANCH  11  12
ENDBRANCH   9  11
ENDBRANCH   1   8
BRANCH   2  19
ATOM     19  C   UNL d   1      59.864  -0.022  29.225  0.00  0.00     0.298 C 
ATOM     20  O   UNL d   1      59.687   0.577  28.712  0.00  0.00    -0.259 OA
BRANCH  19  21
ATOM     21  O   UNL d   1      60.508   0.024  29.719  0.00  0.00    -0.296 OA
ATOM     22  C   UNL d   1      61.003   0.671  29.691  0.00  0.00     0.185 C 
ENDBRANCH  19  21
ENDBRANCH   2  19
TORSDOF 5
ENDMDL
MODEL 2
REMARK VINA RESULT:      -0.3      9.186      9.557
REMARK  5 active torsions:
REMARK  status: ('A' for Active; 'I' for Inactive)
REMARK    1  A    between atoms: N_9  and  C_1 
REMARK    2  A    between atoms: C_12  and  C_2 
REMARK       I    between atoms: C_13  and  N_9 
REMARK    3  A    between atoms: C_11  and  C_14 
REMARK    4  A    between atoms: O_19  and  C_12 
REMARK    5  A    between atoms: C_14  and  C_13 
ROOT
ATOM      1  C   UNL d   1      59.289  -9.802  32.475  0.00  0.00     0.119 A 
ATOM      2  C   UNL d   1      58.708  -9.776  31.867  0.00  0.00     0.087 A 
ATOM      3  S   UNL d   1      60.043  -9.817  32.138  0.00  0.00    -0.068 SA
ATOM      4  C   UNL d   1      59.115  -9.775  31.162  0.00  0.00     0.013 A 
ATOM      5  C   UNL d   1      59.939  -9.801  31.316  0.00  0.00     0.031 A 
ATOM      6  C   UNL d   1      58.753  -9.753  30.429  0.00  0.00     0.001 C 
ATOM      7  C   UNL d   1      60.542  -9.808  30.754  0.00  0.00     0.007 C 
ENDROOT
BRANCH   1   8
ATOM      8  N   UNL d   1      59.208  -9.814  33.302  0.00  0.00    -0.201 NA
ATOM      9  C   UNL d   1      59.811  -9.523  33.782  0.00  0.00     0.280 C 
ATOM     10  O   UNL d   1      60.515  -9.211  33.446  0.00  0.00    -0.265 OA
BRANCH   9  11
ATOM     11  C   UNL d   1      59.728  -9.535  34.624  0.00  0.00     0.074 C 
BRANCH  11  12
ATOM     12  C   UNL d   1      59.832  -8.843  35.078  0.00  0.00     0.095 A 
ATOM     13  C   UNL d   1      59.294  -8.529  35.588  0.00  0.00     0.287 A 
ATOM     14  N   UNL d   1      59.623  -7.847  35.918  0.00  0.00    -0.181 NA
ATOM     15  O   UNL d   1      58.534  -8.829  35.761  0.00  0.00    -0.265 OA
ATOM     16  C   UNL d   1      60.380  -7.763  35.588  0.00  0.00     0.217 A 
ATOM     17  S   UNL d   1      60.503  -8.391  35.062  0.00  0.00    -0.042 SA
ATOM     18  N   UNL d   1      60.917  -7.141  35.766  0.00  0.00    -0.119 N 
ENDBRANCH  11  12
ENDBRANCH   9  11
ENDBRANCH   1   8
BRANCH   2  19
ATOM     19  C   UNL d   1      57.903  -9.755  31.941  0.00  0.00     0.298 C 
ATOM     20  O   UNL d   1      57.576  -9.760  32.681  0.00  0.00    -0.259 OA
BRANCH  19  21
ATOM     21  O   UNL d   1      57.436  -9.729  31.276  0.00  0.00    -0.296 OA
ATOM     22  C   UNL d   1      56.629  -9.818  31.337  0.00  0.00     0.185 C 
ENDBRANCH  19  21
ENDBRANCH   2  19
TORSDOF 5
ENDMDL
