MODEL 1
REMARK VINA RESULT:      -3.7      0.000      0.000
REMARK  4 active torsions:
REMARK  status: ('A' for Active; 'I' for Inactive)
REMARK    1  A    between atoms: C_8  and  C_1 
REMARK    2  A    between atoms: C_6  and  C_16 
REMARK    3  A    between atoms: O_13  and  C_8 
REMARK    4  A    between atoms: C_16  and  O_13 
ROOT
ATOM      1  C   UNL d   1      32.575  17.662 -23.756  0.00  0.00     0.305 C 
ATOM      2  O   UNL d   1      33.222  17.556 -24.279  0.00  0.00    -0.259 OA
ENDROOT
BRANCH   1   3
ATOM      3  C   UNL d   1      31.876  17.140 -23.791  0.00  0.00     0.127 A 
ATOM      4  C   UNL d   1      31.922  16.365 -23.472  0.00  0.00     0.305 A 
ATOM      5  O   UNL d   1      31.255  15.912 -23.522  0.00  0.00    -0.273 OA
ATOM      6  O   UNL d   1      32.610  16.079 -23.125  0.00  0.00    -0.259 OA
ATOM      7  C   UNL d   1      30.572  16.184 -23.862  0.00  0.00     0.103 A 
ATOM      8  C   UNL d   1      30.544  16.956 -24.173  0.00  0.00     0.023 A 
ATOM      9  C   UNL d   1      29.901  15.731 -23.913  0.00  0.00     0.025 A 
ATOM     10  C   UNL d   1      31.219  17.441 -24.132  0.00  0.00     0.013 A 
ATOM     11  C   UNL d   1      29.865  17.260 -24.523  0.00  0.00     0.002 A 
ATOM     12  C   UNL d   1      29.202  16.769 -24.558  0.00  0.00     0.000 A 
ATOM     13  C   UNL d   1      29.213  16.004 -24.255  0.00  0.00     0.002 A 
ENDBRANCH   1   3
BRANCH   1  14
ATOM     14  O   UNL d   1      32.597  18.259 -23.208  0.00  0.00    -0.269 OA
BRANCH  14  15
ATOM     15  C   UNL d   1      33.200  18.786 -23.197  0.00  0.00     0.152 C 
BRANCH  15  16
ATOM     16  C   UNL d   1      33.203  19.394 -22.628  0.00  0.00     0.136 A 
ATOM     17  N   UNL d   1      33.206  19.358 -21.809  0.00  0.00    -0.236 NA
ATOM     18  C   UNL d   1      33.207  20.132 -21.535  0.00  0.00     0.088 A 
ATOM     19  C   UNL d   1      33.210  20.450 -20.772  0.00  0.00     0.020 A 
ATOM     20  C   UNL d   1      33.205  20.627 -22.196  0.00  0.00     0.049 A 
ATOM     21  C   UNL d   1      33.210  21.276 -20.645  0.00  0.00     0.002 A 
ATOM     22  C   UNL d   1      33.208  21.748 -21.311  0.00  0.00     0.001 A 
ATOM     23  C   UNL d   1      33.205  21.436 -22.092  0.00  0.00     0.008 A 
ATOM     24  S   UNL d   1      33.202  20.169 -22.857  0.00  0.00    -0.064 SA
ENDBRANCH  15  16
ENDBRANCH  14  15
ENDBRANCH   1  14
TORSDOF 4
ENDMDL
MODEL 2
REMARK VINA RESULT:      -2.3      1.294      1.903
REMARK  4 active torsions:
REMARK  status: ('A' for Active; 'I' for Inactive)
REMARK    1  A    between atoms: C_8  and  C_1 
REMARK    2  A    between atoms: C_6  and  C_16 
REMARK    3  A    between atoms: O_13  and  C_8 
REMARK    4  A    between atoms: C_16  and  O_13 
ROOT
ATOM      1  C   UNL d   1      32.745  18.983 -23.932  0.00  0.00     0.305 C 
ATOM      2  O   UNL d   1      33.241  19.285 -24.537  0.00  0.00    -0.259 OA
ENDROOT
BRANCH   1   3
ATOM      3  C   UNL d   1      32.318  18.228 -24.033  0.00  0.00     0.127 A 
ATOM      4  C   UNL d   1      31.687  18.180 -24.585  0.00  0.00     0.305 A 
ATOM      5  O   UNL d   1      31.316  17.465 -24.651  0.00  0.00    -0.273 OA
ATOM      6  O   UNL d   1      31.457  18.826 -25.037  0.00  0.00    -0.259 OA
ATOM      7  C   UNL d   1      31.536  16.822 -24.209  0.00  0.00     0.103 A 
ATOM      8  C   UNL d   1      32.163  16.888 -23.667  0.00  0.00     0.023 A 
ATOM      9  C   UNL d   1      31.165  16.104 -24.273  0.00  0.00     0.025 A 
ATOM     10  C   UNL d   1      32.560  17.614 -23.582  0.00  0.00     0.013 A 
ATOM     11  C   UNL d   1      32.408  16.253 -23.205  0.00  0.00     0.002 A 
ATOM     12  C   UNL d   1      32.007  15.538 -23.298  0.00  0.00     0.000 A 
ATOM     13  C   UNL d   1      31.384  15.456 -23.830  0.00  0.00     0.002 A 
ENDBRANCH   1   3
BRANCH   1  14
ATOM     14  O   UNL d   1      32.659  19.398 -23.241  0.00  0.00    -0.269 OA
BRANCH  14  15
ATOM     15  C   UNL d   1      33.241  19.878 -22.974  0.00  0.00     0.152 C 
BRANCH  15  16
ATOM     16  C   UNL d   1      33.049  20.509 -22.465  0.00  0.00     0.136 A 
ATOM     17  N   UNL d   1      32.981  21.312 -22.614  0.00  0.00    -0.236 NA
ATOM     18  C   UNL d   1      32.779  21.673 -21.905  0.00  0.00     0.088 A 
ATOM     19  C   UNL d   1      32.636  22.461 -21.704  0.00  0.00     0.020 A 
ATOM     20  C   UNL d   1      32.728  21.078 -21.333  0.00  0.00     0.049 A 
ATOM     21  C   UNL d   1      32.436  22.681 -20.923  0.00  0.00     0.002 A 
ATOM     22  C   UNL d   1      32.391  22.080 -20.373  0.00  0.00     0.001 A 
ATOM     23  C   UNL d   1      32.534  21.274 -20.565  0.00  0.00     0.008 A 
ATOM     24  S   UNL d   1      32.894  20.373 -21.684  0.00  0.00    -0.064 SA
ENDBRANCH  15  16
ENDBRANCH  14  15
ENDBRANCH   1  14
TORSDOF 4
ENDMDL
MODEL 3
REMARK VINA RESULT:      -1.5      1.893      5.303
REMARK  4 active torsions:
REMARK  status: ('A' for Active; 'I' for Inactive)
REMARK    1  A    between atoms: C_8  and  C_1 
REMARK    2  A    between atoms: C_6  and  C_16 
REMARK    3  A    between atoms: O_13  and  C_8 
REMARK    4  A    between atoms: C_16  and  O_13 
ROOT
ATOM      1  C   UNL d   1      33.117  20.000 -21.729  0.00  0.00     0.305 C 
ATOM      2  O   UNL d   1      33.240  19.558 -21.027  0.00  0.00    -0.259 OA
ENDROOT
BRANCH   1   3
ATOM      3  C   UNL d   1      33.004  20.865 -21.704  0.00  0.00     0.127 A 
ATOM      4  C   UNL d   1      32.885  21.246 -20.966  0.00  0.00     0.305 A 
ATOM      5  O   UNL d   1      32.784  22.047 -20.983  0.00  0.00    -0.273 OA
ATOM      6  O   UNL d   1      32.871  20.827 -20.259  0.00  0.00    -0.259 OA
ATOM      7  C   UNL d   1      32.796  22.470 -21.674  0.00  0.00     0.103 A 
ATOM      8  C   UNL d   1      32.916  22.075 -22.397  0.00  0.00     0.023 A 
ATOM      9  C   UNL d   1      32.695  23.274 -21.694  0.00  0.00     0.025 A 
ATOM     10  C   UNL d   1      33.022  21.251 -22.404  0.00  0.00     0.013 A 
ATOM     11  C   UNL d   1      32.933  22.478 -23.115  0.00  0.00     0.002 A 
ATOM     12  C   UNL d   1      32.826  23.296 -23.095  0.00  0.00     0.000 A 
ATOM     13  C   UNL d   1      32.707  23.700 -22.389  0.00  0.00     0.002 A 
ENDBRANCH   1   3
BRANCH   1  14
ATOM     14  O   UNL d   1      33.102  19.618 -22.444  0.00  0.00    -0.269 OA
BRANCH  14  15
ATOM     15  C   UNL d   1      33.238  18.831 -22.494  0.00  0.00     0.152 C 
BRANCH  15  16
ATOM     16  C   UNL d   1      32.871  18.389 -23.097  0.00  0.00     0.136 A 
ATOM     17  N   UNL d   1      32.227  18.566 -23.571  0.00  0.00    -0.236 NA
ATOM     18  C   UNL d   1      32.112  17.924 -24.070  0.00  0.00     0.088 A 
ATOM     19  C   UNL d   1      31.557  17.776 -24.664  0.00  0.00     0.020 A 
ATOM     20  C   UNL d   1      32.692  17.365 -23.889  0.00  0.00     0.049 A 
ATOM     21  C   UNL d   1      31.564  17.061 -25.097  0.00  0.00     0.002 A 
ATOM     22  C   UNL d   1      32.145  16.522 -24.903  0.00  0.00     0.001 A 
ATOM     23  C   UNL d   1      32.715  16.661 -24.301  0.00  0.00     0.008 A 
ATOM     24  S   UNL d   1      33.150  17.657 -23.295  0.00  0.00    -0.064 SA
ENDBRANCH  15  16
ENDBRANCH  14  15
ENDBRANCH   1  14
TORSDOF 4
ENDMDL
MODEL 4
REMARK VINA RESULT:      -1.2      2.619      5.766
REMARK  4 active torsions:
REMARK  status: ('A' for Active; 'I' for Inactive)
REMARK    1  A    between atoms: C_8  and  C_1 
REMARK    2  A    between atoms: C_6  and  C_16 
REMARK    3  A    between atoms: O_13  and  C_8 
REMARK    4  A    between atoms: C_16  and  O_13 
ROOT
ATOM      1  C   UNL d   1      33.182  22.012 -23.432  0.00  0.00     0.305 C 
ATOM      2  O   UNL d   1      33.193  22.401 -24.175  0.00  0.00    -0.259 OA
ENDROOT
BRANCH   1   3
ATOM      3  C   UNL d   1      33.107  22.460 -22.688  0.00  0.00     0.127 A 
ATOM      4  C   UNL d   1      32.958  23.286 -22.714  0.00  0.00     0.305 A 
ATOM      5  O   UNL d   1      32.896  23.666 -22.005  0.00  0.00    -0.273 OA
ATOM      6  O   UNL d   1      32.879  23.688 -23.427  0.00  0.00    -0.259 OA
ATOM      7  C   UNL d   1      32.972  23.278 -21.298  0.00  0.00     0.103 A 
ATOM      8  C   UNL d   1      33.120  22.459 -21.290  0.00  0.00     0.023 A 
ATOM      9  C   UNL d   1      32.910  23.659 -20.584  0.00  0.00     0.025 A 
ATOM     10  C   UNL d   1      33.188  22.046 -22.008  0.00  0.00     0.013 A 
ATOM     11  C   UNL d   1      33.202  22.039 -20.587  0.00  0.00     0.002 A 
ATOM     12  C   UNL d   1      33.132  22.460 -19.881  0.00  0.00     0.000 A 
ATOM     13  C   UNL d   1      32.986  23.270 -19.872  0.00  0.00     0.002 A 
ENDBRANCH   1   3
BRANCH   1  14
ATOM     14  O   UNL d   1      33.241  21.203 -23.404  0.00  0.00    -0.269 OA
BRANCH  14  15
ATOM     15  C   UNL d   1      33.212  20.764 -24.073  0.00  0.00     0.152 C 
BRANCH  15  16
ATOM     16  C   UNL d   1      33.117  19.939 -24.018  0.00  0.00     0.136 A 
ATOM     17  N   UNL d   1      32.915  19.467 -23.379  0.00  0.00    -0.236 NA
ATOM     18  C   UNL d   1      32.904  18.691 -23.647  0.00  0.00     0.088 A 
ATOM     19  C   UNL d   1      32.741  17.975 -23.268  0.00  0.00     0.020 A 
ATOM     20  C   UNL d   1      33.100  18.706 -24.450  0.00  0.00     0.049 A 
ATOM     21  C   UNL d   1      32.769  17.249 -23.679  0.00  0.00     0.002 A 
ATOM     22  C   UNL d   1      32.965  17.284 -24.471  0.00  0.00     0.001 A 
ATOM     23  C   UNL d   1      33.133  18.006 -24.868  0.00  0.00     0.008 A 
ATOM     24  S   UNL d   1      33.228  19.469 -24.666  0.00  0.00    -0.064 SA
ENDBRANCH  15  16
ENDBRANCH  14  15
ENDBRANCH   1  14
TORSDOF 4
ENDMDL
