MODEL 1
REMARK VINA RESULT:      29.5      0.000      0.000
REMARK  4 active torsions:
REMARK  status: ('A' for Active; 'I' for Inactive)
REMARK    1  A    between atoms: C_2  and  C_1 
REMARK    2  A    between atoms: C_3  and  C_4 
REMARK       I    between atoms: N_12  and  C_3 
REMARK    3  A    between atoms: C_4  and  C_5 
REMARK    4  A    between atoms: C_5  and  C_11 
ROOT
ATOM      1  C   UNL d   1     -47.688  29.643  35.613  0.00  0.00     0.071 A 
ATOM      2  C   UNL d   1     -47.699  30.193  34.998  0.00  0.00     0.004 A 
ATOM      3  C   UNL d   1     -47.331  30.925  35.095  0.00  0.00     0.000 A 
ATOM      4  C   UNL d   1     -47.305  29.825  36.327  0.00  0.00     0.004 A 
ATOM      5  C   UNL d   1     -46.936  30.557  36.424  0.00  0.00    -0.000 A 
ATOM      6  C   UNL d   1     -46.948  31.107  35.809  0.00  0.00    -0.000 A 
ENDROOT
BRANCH   3   7
ATOM      7  C   UNL d   1     -47.347  31.473  34.473  0.00  0.00     0.005 C 
BRANCH   7   8
ATOM      8  C   UNL d   1     -47.468  32.280  34.639  0.00  0.00     0.062 C 
BRANCH   8   9
ATOM      9  C   UNL d   1     -47.610  32.812  34.024  0.00  0.00     0.279 C 
ATOM     10  O   UNL d   1     -46.999  33.003  33.501  0.00  0.00    -0.265 OA
ATOM     11  N   UNL d   1     -48.358  33.151  33.932  0.00  0.00    -0.205 NA
ATOM     12  C   UNL d   1     -48.495  33.684  33.312  0.00  0.00     0.123 C 
ENDBRANCH   8   9
ENDBRANCH   7   8
ENDBRANCH   3   7
BRANCH   1  13
ATOM     13  C   UNL d   1     -48.054  28.912  35.520  0.00  0.00     0.419 C 
ATOM     14  F   UNL d   1     -48.487  28.436  36.113  0.00  0.00    -0.166 F 
ATOM     15  F   UNL d   1     -48.118  28.413  34.823  0.00  0.00    -0.166 F 
ATOM     16  F   UNL d   1     -48.392  28.243  35.441  0.00  0.00    -0.166 F 
ENDBRANCH   1  13
TORSDOF 4
ENDMDL
MODEL 2
REMARK VINA RESULT:      31.4      6.669      7.573
REMARK  4 active torsions:
REMARK  status: ('A' for Active; 'I' for Inactive)
REMARK    1  A    between atoms: C_2  and  C_1 
REMARK    2  A    between atoms: C_3  and  C_4 
REMARK       I    between atoms: N_12  and  C_3 
REMARK    3  A    between atoms: C_4  and  C_5 
REMARK    4  A    between atoms: C_5  and  C_11 
ROOT
ATOM      1  C   UNL d   1     -52.576  24.691  33.591  0.00  0.00     0.071 A 
ATOM      2  C   UNL d   1     -51.759  24.708  33.478  0.00  0.00     0.004 A 
ATOM      3  C   UNL d   1     -51.366  25.431  33.426  0.00  0.00     0.000 A 
ATOM      4  C   UNL d   1     -53.002  25.401  33.654  0.00  0.00     0.004 A 
ATOM      5  C   UNL d   1     -52.610  26.125  33.602  0.00  0.00    -0.000 A 
ATOM      6  C   UNL d   1     -51.793  26.142  33.488  0.00  0.00    -0.000 A 
ENDROOT
BRANCH   3   7
ATOM      7  C   UNL d   1     -50.545  25.441  33.311  0.00  0.00     0.005 C 
BRANCH   7   8
ATOM      8  C   UNL d   1     -50.043  25.154  33.910  0.00  0.00     0.062 C 
BRANCH   8   9
ATOM      9  C   UNL d   1     -49.272  24.924  33.728  0.00  0.00     0.279 C 
ATOM     10  O   UNL d   1     -49.138  24.193  33.364  0.00  0.00    -0.265 OA
ATOM     11  N   UNL d   1     -48.636  25.421  33.908  0.00  0.00    -0.205 NA
ATOM     12  C   UNL d   1     -47.864  25.185  33.723  0.00  0.00     0.123 C 
ENDBRANCH   8   9
ENDBRANCH   7   8
ENDBRANCH   3   7
BRANCH   1  13
ATOM     13  C   UNL d   1     -52.971  23.971  33.644  0.00  0.00     0.419 C 
ATOM     14  F   UNL d   1     -52.728  23.240  34.061  0.00  0.00    -0.166 F 
ATOM     15  F   UNL d   1     -53.725  23.731  33.308  0.00  0.00    -0.166 F 
ATOM     16  F   UNL d   1     -53.328  23.309  33.695  0.00  0.00    -0.166 F 
ENDBRANCH   1  13
TORSDOF 4
ENDMDL
