MODEL 1
REMARK VINA RESULT:      -0.2      0.000      0.000
REMARK  6 active torsions:
REMARK  status: ('A' for Active; 'I' for Inactive)
REMARK    1  A    between atoms: C_17  and  N_1 
REMARK    2  A    between atoms: N_9  and  C_8 
REMARK    3  A    between atoms: C_11  and  O_21 
REMARK    4  A    between atoms: C_15  and  C_11 
REMARK    5  A    between atoms: C_30  and  C_17 
REMARK    6  A    between atoms: O_21  and  C_30 
ROOT
ATOM      1  N   UNL d   1      59.655  -9.678  30.852  0.00  0.00    -0.238 N 
ATOM      2  C   UNL d   1      58.947  -9.679  31.272  0.00  0.00     0.267 A 
ATOM      3  C   UNL d   1      60.375  -9.551  31.231  0.00  0.00     0.267 A 
ATOM      4  C   UNL d   1      58.959  -9.549  32.105  0.00  0.00     0.057 A 
ATOM      5  C   UNL d   1      59.679  -9.422  32.489  0.00  0.00     0.011 A 
ATOM      6  C   UNL d   1      60.387  -9.424  32.044  0.00  0.00     0.057 A 
ATOM      7  C   UNL d   1      59.691  -9.297  33.291  0.00  0.00     0.016 A 
ATOM      8  C   UNL d   1      58.983  -9.297  33.721  0.00  0.00     0.064 A 
ATOM      9  C   UNL d   1      58.262  -9.549  32.529  0.00  0.00     0.006 A 
ATOM     10  C   UNL d   1      58.274  -9.424  33.332  0.00  0.00     0.018 A 
ATOM     11  O   UNL d   1      61.130  -9.545  30.810  0.00  0.00    -0.267 OA
ATOM     12  O   UNL d   1      58.238  -9.809  30.867  0.00  0.00    -0.267 OA
ATOM     13  C   UNL d   1      61.121  -9.297  32.421  0.00  0.00     0.005 A 
ATOM     14  C   UNL d   1      60.410  -9.169  33.680  0.00  0.00     0.002 A 
ATOM     15  C   UNL d   1      61.133  -9.167  33.250  0.00  0.00     0.000 A 
ENDROOT
BRANCH   1  16
ATOM     16  C   UNL d   1      59.643  -9.808  30.018  0.00  0.00     0.113 C 
BRANCH  16  17
ATOM     17  C   UNL d   1      58.933  -9.737  29.603  0.00  0.00     0.145 C 
BRANCH  17  18
ATOM     18  O   UNL d   1      58.943  -9.506  28.825  0.00  0.00    -0.269 OA
BRANCH  18  19
ATOM     19  C   UNL d   1      58.771  -8.735  28.631  0.00  0.00     0.300 C 
ATOM     20  O   UNL d   1      59.371  -8.197  28.468  0.00  0.00    -0.259 OA
BRANCH  19  21
ATOM     21  C   UNL d   1      57.987  -8.488  28.597  0.00  0.00     0.064 A 
ATOM     22  C   UNL d   1      57.393  -9.046  28.493  0.00  0.00     0.006 A 
ATOM     23  C   UNL d   1      56.588  -8.792  28.458  0.00  0.00     0.012 A 
ATOM     24  C   UNL d   1      56.409  -7.991  28.529  0.00  0.00     0.058 A 
ATOM     25  C   UNL d   1      57.005  -7.444  28.631  0.00  0.00     0.012 A 
ATOM     26 CL   UNL d   1      55.635  -7.747  28.495  0.00  0.00    -0.082 Cl
ATOM     27  C   UNL d   1      57.785  -7.689  28.665  0.00  0.00     0.006 A 
ENDBRANCH  19  21
ENDBRANCH  18  19
ENDBRANCH  17  18
ENDBRANCH  16  17
ENDBRANCH   1  16
BRANCH   8  28
ATOM     28  N   UNL d   1      58.995  -9.169  34.544  0.00  0.00    -0.300 N 
ATOM     29  C   UNL d   1      59.035  -9.802  35.056  0.00  0.00     0.107 A 
ATOM     30  C   UNL d   1      59.047  -9.677  35.863  0.00  0.00     0.142 A 
ATOM     31  O   UNL d   1      59.018  -8.917  36.159  0.00  0.00    -0.300 OA
ATOM     32  C   UNL d   1      58.977  -8.272  35.645  0.00  0.00     0.142 A 
ATOM     33  C   UNL d   1      58.965  -8.398  34.838  0.00  0.00     0.107 A 
ENDBRANCH   8  28
TORSDOF 6
ENDMDL
MODEL 2
REMARK VINA RESULT:       0.1      5.069      6.928
REMARK  6 active torsions:
REMARK  status: ('A' for Active; 'I' for Inactive)
REMARK    1  A    between atoms: C_17  and  N_1 
REMARK    2  A    between atoms: N_9  and  C_8 
REMARK    3  A    between atoms: C_11  and  O_21 
REMARK    4  A    between atoms: C_15  and  C_11 
REMARK    5  A    between atoms: C_30  and  C_17 
REMARK    6  A    between atoms: O_21  and  C_30 
ROOT
ATOM      1  N   UNL d   1      59.361  -4.539  28.643  0.00  0.00    -0.238 N 
ATOM      2  C   UNL d   1      60.118  -4.242  28.773  0.00  0.00     0.267 A 
ATOM      3  C   UNL d   1      58.698  -4.054  28.693  0.00  0.00     0.267 A 
ATOM      4  C   UNL d   1      60.215  -3.425  28.961  0.00  0.00     0.057 A 
ATOM      5  C   UNL d   1      59.553  -2.935  29.011  0.00  0.00     0.011 A 
ATOM      6  C   UNL d   1      58.794  -3.257  28.876  0.00  0.00     0.057 A 
ATOM      7  C   UNL d   1      59.647  -2.149  29.192  0.00  0.00     0.016 A 
ATOM      8  C   UNL d   1      60.404  -1.842  29.324  0.00  0.00     0.064 A 
ATOM      9  C   UNL d   1      60.961  -3.121  29.091  0.00  0.00     0.006 A 
ATOM     10  C   UNL d   1      61.055  -2.335  29.271  0.00  0.00     0.018 A 
ATOM     11  O   UNL d   1      57.896  -4.345  28.560  0.00  0.00    -0.267 OA
ATOM     12  O   UNL d   1      60.767  -4.750  28.717  0.00  0.00    -0.267 OA
ATOM     13  C   UNL d   1      58.116  -2.771  28.924  0.00  0.00     0.005 A 
ATOM     14  C   UNL d   1      58.985  -1.654  29.243  0.00  0.00     0.002 A 
ATOM     15  C   UNL d   1      58.212  -1.959  29.111  0.00  0.00     0.000 A 
ENDROOT
BRANCH   1  16
ATOM     16  C   UNL d   1      59.264  -5.356  28.456  0.00  0.00     0.113 C 
BRANCH  16  17
ATOM     17  C   UNL d   1      58.662  -5.790  28.817  0.00  0.00     0.145 C 
BRANCH  17  18
ATOM     18  O   UNL d   1      58.377  -6.460  28.458  0.00  0.00    -0.269 OA
BRANCH  18  19
ATOM     19  C   UNL d   1      58.687  -7.185  28.655  0.00  0.00     0.300 C 
ATOM     20  O   UNL d   1      59.499  -7.297  28.708  0.00  0.00    -0.259 OA
BRANCH  19  21
ATOM     21  C   UNL d   1      58.181  -7.818  28.803  0.00  0.00     0.064 A 
ATOM     22  C   UNL d   1      58.426  -8.419  29.306  0.00  0.00     0.006 A 
ATOM     23  C   UNL d   1      57.908  -9.069  29.459  0.00  0.00     0.012 A 
ATOM     24  C   UNL d   1      57.165  -9.091  29.102  0.00  0.00     0.058 A 
ATOM     25  C   UNL d   1      56.930  -8.489  28.604  0.00  0.00     0.012 A 
ATOM     26 CL   UNL d   1      56.667  -9.715  29.248  0.00  0.00    -0.082 Cl
ATOM     27  C   UNL d   1      57.432  -7.860  28.456  0.00  0.00     0.006 A 
ENDBRANCH  19  21
ENDBRANCH  18  19
ENDBRANCH  17  18
ENDBRANCH  16  17
ENDBRANCH   1  16
BRANCH   8  28
ATOM     28  N   UNL d   1      60.500  -1.035  29.509  0.00  0.00    -0.300 N 
ATOM     29  C   UNL d   1      60.101  -0.710  30.142  0.00  0.00     0.107 A 
ATOM     30  C   UNL d   1      60.196   0.081  30.324  0.00  0.00     0.142 A 
ATOM     31  O   UNL d   1      60.689   0.548  29.872  0.00  0.00    -0.300 OA
ATOM     32  C   UNL d   1      61.095   0.224  29.231  0.00  0.00     0.142 A 
ATOM     33  C   UNL d   1      61.001  -0.567  29.049  0.00  0.00     0.107 A 
ENDBRANCH   8  28
TORSDOF 6
ENDMDL
