MODEL 1
REMARK VINA RESULT:      87.5      0.000      0.000
REMARK  2 active torsions:
REMARK  status: ('A' for Active; 'I' for Inactive)
REMARK    1  A    between atoms: N_11  and  C_4 
REMARK    2  A    between atoms: C_16  and  N_12 
ROOT
ATOM      1  N   UNL d   1     -48.270  29.943  34.672  0.00  0.00    -0.195 N 
ATOM      2  C   UNL d   1     -47.823  30.545  34.971  0.00  0.00     0.168 A 
ATOM      3  C   UNL d   1     -47.838  31.266  34.637  0.00  0.00     0.073 A 
ATOM      4  C   UNL d   1     -48.243  29.228  35.019  0.00  0.00     0.153 A 
ATOM      5  N   UNL d   1     -48.751  30.781  33.703  0.00  0.00    -0.143 NA
ATOM      6  C   UNL d   1     -48.304  31.383  34.001  0.00  0.00     0.185 A 
ATOM      7  N   UNL d   1     -47.360  30.416  35.609  0.00  0.00    -0.227 NA
ATOM      8  C   UNL d   1     -47.396  31.861  34.932  0.00  0.00     0.007 A 
ATOM      9  N   UNL d   1     -48.330  32.108  33.652  0.00  0.00    -0.225 NA
ATOM     10  C   UNL d   1     -47.785  29.096  35.651  0.00  0.00     0.057 A 
ATOM     11  C   UNL d   1     -47.412  32.583  34.597  0.00  0.00     0.019 A 
ATOM     12  C   UNL d   1     -47.338  29.698  35.950  0.00  0.00     0.086 A 
ATOM     13  C   UNL d   1     -47.883  32.710  33.950  0.00  0.00     0.083 A 
ATOM     14  C   UNL d   1     -46.931  31.730  35.573  0.00  0.00     0.000 C 
ATOM     15  C   UNL d   1     -46.857  29.562  36.613  0.00  0.00     0.021 C 
ATOM     16  C   UNL d   1     -47.903  33.425  33.613  0.00  0.00     0.021 C 
ENDROOT
BRANCH   4  17
ATOM     17  N   UNL d   1     -48.706  28.613  34.706  0.00  0.00    -0.286 N 
ATOM     18  C   UNL d   1     -49.063  28.086  35.241  0.00  0.00     0.101 A 
ATOM     19  C   UNL d   1     -49.533  27.460  34.964  0.00  0.00     0.100 A 
ATOM     20  N   UNL d   1     -49.642  27.366  34.150  0.00  0.00    -0.301 N 
ATOM     21  C   UNL d   1     -49.289  27.888  33.608  0.00  0.00     0.100 A 
ATOM     22  C   UNL d   1     -48.818  28.516  33.890  0.00  0.00     0.101 A 
BRANCH  20  23
ATOM     23  C   UNL d   1     -50.108  26.745  33.871  0.00  0.00     0.065 A 
ATOM     24  C   UNL d   1     -50.921  26.860  33.731  0.00  0.00     0.029 A 
ATOM     25  C   UNL d   1     -51.392  26.228  33.448  0.00  0.00     0.059 A 
ATOM     26 CL   UNL d   1     -52.201  26.339  33.307  0.00  0.00    -0.082 Cl
ATOM     27  C   UNL d   1     -51.043  25.480  33.306  0.00  0.00     0.011 A 
ATOM     28  C   UNL d   1     -50.224  25.371  33.449  0.00  0.00     0.002 A 
ATOM     29  C   UNL d   1     -49.764  25.997  33.728  0.00  0.00     0.018 A 
ENDBRANCH  20  23
ENDBRANCH   4  17
TORSDOF 2
ENDMDL
