MODEL 1
REMARK VINA RESULT:      15.6      0.000      0.000
REMARK  3 active torsions:
REMARK  status: ('A' for Active; 'I' for Inactive)
REMARK    1  A    between atoms: N_3  and  C_1 
REMARK       I    between atoms: C_5  and  N_3 
REMARK    2  A    between atoms: C_9  and  C_5 
REMARK    3  A    between atoms: O_22  and  C_20 
ROOT
ATOM      1  N   UNL d   1      46.323 -16.105  44.213  0.00  0.00    -0.183 NA
ATOM      2  C   UNL d   1      45.645 -15.670  44.392  0.00  0.00     0.281 C 
ATOM      3  O   UNL d   1      44.920 -16.074  44.546  0.00  0.00    -0.265 OA
ENDROOT
BRANCH   1   4
ATOM      4  C   UNL d   1      46.302 -16.929  44.183  0.00  0.00     0.197 A 
ATOM      5  N   UNL d   1      46.226 -17.426  44.844  0.00  0.00    -0.221 NA
ATOM      6  C   UNL d   1      46.230 -18.207  44.560  0.00  0.00     0.090 A 
ATOM      7  C   UNL d   1      46.172 -18.929  44.955  0.00  0.00     0.022 A 
ATOM      8  C   UNL d   1      46.307 -18.178  43.739  0.00  0.00     0.052 A 
ATOM      9  C   UNL d   1      46.193 -19.631  44.510  0.00  0.00     0.026 A 
ATOM     10  C   UNL d   1      46.269 -19.603  43.697  0.00  0.00     0.095 A 
ATOM     11  C   UNL d   1      46.328 -18.880  43.293  0.00  0.00     0.032 A 
ATOM     12  S   UNL d   1      46.350 -17.393  43.520  0.00  0.00    -0.047 SA
BRANCH  10  13
ATOM     13  O   UNL d   1      46.291 -20.321  43.232  0.00  0.00    -0.328 OA
ATOM     14  C   UNL d   1      45.921 -20.330  42.478  0.00  0.00     0.181 C 
ENDBRANCH  10  13
ENDBRANCH   1   4
BRANCH   2  15
ATOM     15  C   UNL d   1      45.666 -14.847  44.423  0.00  0.00     0.059 A 
ATOM     16  C   UNL d   1      45.141 -14.410  43.964  0.00  0.00     0.013 A 
ATOM     17  C   UNL d   1      45.152 -13.592  43.985  0.00  0.00     0.049 A 
ATOM     18  S   UNL d   1      44.698 -13.017  43.592  0.00  0.00    -0.064 SA
ATOM     19  C   UNL d   1      45.704 -13.194  44.479  0.00  0.00     0.088 A 
ATOM     20  C   UNL d   1      44.974 -12.277  43.847  0.00  0.00     0.135 A 
ATOM     21  N   UNL d   1      45.586 -12.373  44.387  0.00  0.00    -0.236 NA
ATOM     22  C   UNL d   1      46.238 -13.624  44.946  0.00  0.00     0.020 A 
ATOM     23  C   UNL d   1      46.217 -14.449  44.916  0.00  0.00     0.006 A 
ENDBRANCH   2  15
TORSDOF 3
ENDMDL
