MODEL 1
REMARK VINA RESULT:       6.7      0.000      0.000
REMARK  8 active torsions:
REMARK  status: ('A' for Active; 'I' for Inactive)
REMARK    1  A    between atoms: N_7  and  N_1 
REMARK    2  A    between atoms: S_9  and  C_2 
REMARK       I    between atoms: C_8  and  N_7 
REMARK    3  A    between atoms: C_16  and  C_8 
REMARK    4  A    between atoms: C_15  and  S_9 
REMARK    5  A    between atoms: C_10  and  C_15 
REMARK       I    between atoms: N_12  and  C_10 
REMARK    6  A    between atoms: C_17  and  N_12 
REMARK    7  A    between atoms: C_19  and  C_16 
REMARK    8  A    between atoms: C_20  and  C_17 
ROOT
ATOM      1  N   UNL d   1     -41.298-121.996 -52.679  0.00  0.00    -0.168 N 
ATOM      2  C   UNL d   1     -41.299-122.295 -51.928  0.00  0.00     0.199 A 
ATOM      3  C   UNL d   1     -41.256-121.178 -52.802  0.00  0.00     0.283 A 
ATOM      4  N   UNL d   1     -41.259-121.784 -51.262  0.00  0.00    -0.221 NA
ATOM      5  C   UNL d   1     -41.215-120.664 -52.141  0.00  0.00     0.076 A 
ATOM      6  C   UNL d   1     -41.217-120.969 -51.374  0.00  0.00     0.088 A 
ATOM      7  O   UNL d   1     -41.254-120.867 -53.566  0.00  0.00    -0.265 OA
ATOM      8  C   UNL d   1     -41.174-119.845 -52.269  0.00  0.00     0.006 A 
ATOM      9  C   UNL d   1     -41.177-120.459 -50.734  0.00  0.00     0.019 A 
ATOM     10  C   UNL d   1     -41.134-119.342 -51.614  0.00  0.00     0.000 A 
ATOM     11  C   UNL d   1     -41.136-119.647 -50.848  0.00  0.00     0.002 A 
ENDROOT
BRANCH   2  12
ATOM     12  S   UNL d   1     -41.340-123.099 -51.808  0.00  0.00    -0.043 SA
BRANCH  12  13
ATOM     13  C   UNL d   1     -41.124-123.421 -51.081  0.00  0.00     0.101 C 
BRANCH  13  14
ATOM     14  C   UNL d   1     -41.693-123.565 -50.511  0.00  0.00     0.286 C 
ATOM     15  N   UNL d   1     -41.486-123.581 -49.717  0.00  0.00    -0.206 NA
ATOM     16  O   UNL d   1     -42.476-123.694 -50.735  0.00  0.00    -0.265 OA
BRANCH  15  17
ATOM     17  C   UNL d   1     -42.055-123.725 -49.147  0.00  0.00     0.102 C 
BRANCH  17  18
ATOM     18  C   UNL d   1     -41.980-123.397 -48.399  0.00  0.00     0.019 A 
ATOM     19  C   UNL d   1     -41.326-123.576 -47.928  0.00  0.00     0.002 A 
ATOM     20  C   UNL d   1     -41.252-123.248 -47.180  0.00  0.00     0.000 A 
ATOM     21  C   UNL d   1     -41.832-122.737 -46.895  0.00  0.00     0.000 A 
ATOM     22  C   UNL d   1     -42.487-122.559 -47.368  0.00  0.00     0.000 A 
ATOM     23  C   UNL d   1     -42.561-122.886 -48.114  0.00  0.00     0.002 A 
ENDBRANCH  17  18
ENDBRANCH  15  17
ENDBRANCH  13  14
ENDBRANCH  12  13
ENDBRANCH   2  12
BRANCH   1  24
ATOM     24  N   UNL d   1     -41.337-122.495 -53.324  0.00  0.00    -0.119 NA
ATOM     25  C   UNL d   1     -42.001-122.491 -53.799  0.00  0.00     0.296 C 
ATOM     26  O   UNL d   1     -42.634-121.988 -53.636  0.00  0.00    -0.264 OA
BRANCH  25  27
ATOM     27  C   UNL d   1     -42.038-122.999 -54.452  0.00  0.00     0.064 C 
BRANCH  27  28
ATOM     28  C   UNL d   1     -42.227-122.701 -55.182  0.00  0.00     0.005 A 
ATOM     29  C   UNL d   1     -43.003-122.464 -55.334  0.00  0.00     0.000 A 
ATOM     30  C   UNL d   1     -43.195-122.160 -56.077  0.00  0.00     0.000 A 
ATOM     31  C   UNL d   1     -42.626-122.096 -56.653  0.00  0.00     0.000 A 
ATOM     32  C   UNL d   1     -41.848-122.337 -56.491  0.00  0.00     0.000 A 
ATOM     33  C   UNL d   1     -41.658-122.636 -55.758  0.00  0.00     0.000 A 
ENDBRANCH  27  28
ENDBRANCH  25  27
ENDBRANCH   1  24
TORSDOF 8
ENDMDL
