MODEL 1
REMARK VINA RESULT:      -8.8      0.000      0.000
REMARK  4 active torsions:
REMARK  status: ('A' for Active; 'I' for Inactive)
REMARK    1  A    between atoms: C_3  and  N_5 
REMARK    2  A    between atoms: S_13  and  C_4 
REMARK       I    between atoms: N_5  and  C_12 
REMARK    3  A    between atoms: C_12  and  C_18 
REMARK    4  A    between atoms: C_18  and  S_13 
ROOT
ATOM      1  N   UNL d   1      51.925  32.903  53.029  0.00  0.00    -0.238 NA
ATOM      2  C   UNL d   1      52.612  33.992  53.653  0.00  0.00     0.092 A 
ATOM      3  C   UNL d   1      51.945  33.717  53.252  0.00  0.00     0.120 A 
ATOM      4  C   UNL d   1      52.674  34.800  53.896  0.00  0.00     0.103 C 
ATOM      5  C   UNL d   1      52.526  32.394  53.192  0.00  0.00     0.082 A 
ATOM      6  N   UNL d   1      52.730  35.597  54.132  0.00  0.00    -0.191 NA
ATOM      7  C   UNL d   1      53.265  33.454  53.835  0.00  0.00     0.014 A 
ATOM      8  C   UNL d   1      53.193  32.669  53.593  0.00  0.00     0.018 A 
ATOM      9  C   UNL d   1      52.383  31.633  52.923  0.00  0.00     0.019 A 
ATOM     10  C   UNL d   1      53.888  32.252  53.828  0.00  0.00     0.002 A 
ATOM     11  C   UNL d   1      52.845  30.968  52.977  0.00  0.00     0.002 A 
ATOM     12  C   UNL d   1      54.064  31.470  53.710  0.00  0.00     0.000 A 
ATOM     13  C   UNL d   1      53.572  30.880  53.312  0.00  0.00     0.000 A 
ENDROOT
BRANCH   3  14
ATOM     14  S   UNL d   1      51.334  34.249  53.090  0.00  0.00    -0.062 SA
BRANCH  14  15
ATOM     15  C   UNL d   1      50.775  34.046  52.519  0.00  0.00     0.099 C 
BRANCH  15  16
ATOM     16  C   UNL d   1      50.067  34.452  52.501  0.00  0.00     0.288 C 
ATOM     17  N   UNL d   1      49.644  34.437  51.793  0.00  0.00    -0.182 NA
ATOM     18  O   UNL d   1      49.771  34.864  53.151  0.00  0.00    -0.265 OA
BRANCH  17  19
ATOM     19  C   UNL d   1      48.926  34.849  51.772  0.00  0.00     0.197 A 
ATOM     20  N   UNL d   1      48.581  35.339  52.310  0.00  0.00    -0.219 NA
ATOM     21  C   UNL d   1      47.880  35.602  52.030  0.00  0.00     0.108 A 
ATOM     22  C   UNL d   1      47.762  35.268  51.278  0.00  0.00     0.059 A 
ATOM     23  S   UNL d   1      48.411  34.805  51.126  0.00  0.00    -0.046 SA
ENDBRANCH  17  19
ENDBRANCH  15  16
ENDBRANCH  14  15
ENDBRANCH   3  14
TORSDOF 4
ENDMDL
MODEL 2
REMARK VINA RESULT:      -8.4      1.237      2.258
REMARK  4 active torsions:
REMARK  status: ('A' for Active; 'I' for Inactive)
REMARK    1  A    between atoms: C_3  and  N_5 
REMARK    2  A    between atoms: S_13  and  C_4 
REMARK       I    between atoms: N_5  and  C_12 
REMARK    3  A    between atoms: C_12  and  C_18 
REMARK    4  A    between atoms: C_18  and  S_13 
ROOT
ATOM      1  N   UNL d   1      52.777  33.943  53.814  0.00  0.00    -0.238 NA
ATOM      2  C   UNL d   1      52.888  32.594  53.350  0.00  0.00     0.092 A 
ATOM      3  C   UNL d   1      52.489  33.315  53.327  0.00  0.00     0.120 A 
ATOM      4  C   UNL d   1      52.633  31.938  52.878  0.00  0.00     0.103 C 
ATOM      5  C   UNL d   1      53.419  33.860  54.291  0.00  0.00     0.082 A 
ATOM      6  N   UNL d   1      52.378  31.297  52.412  0.00  0.00    -0.191 NA
ATOM      7  C   UNL d   1      53.579  32.492  53.859  0.00  0.00     0.014 A 
ATOM      8  C   UNL d   1      53.818  33.138  54.313  0.00  0.00     0.018 A 
ATOM      9  C   UNL d   1      53.595  34.542  54.711  0.00  0.00     0.019 A 
ATOM     10  C   UNL d   1      54.496  32.913  54.761  0.00  0.00     0.002 A 
ATOM     11  C   UNL d   1      54.191  34.683  55.244  0.00  0.00     0.002 A 
ATOM     12  C   UNL d   1      54.921  33.364  55.284  0.00  0.00     0.000 A 
ATOM     13  C   UNL d   1      54.770  34.187  55.502  0.00  0.00     0.000 A 
ENDROOT
BRANCH   3  14
ATOM     14  S   UNL d   1      51.831  33.389  52.833  0.00  0.00    -0.062 SA
BRANCH  14  15
ATOM     15  C   UNL d   1      51.346  34.051  52.916  0.00  0.00     0.099 C 
BRANCH  15  16
ATOM     16  C   UNL d   1      50.797  34.211  52.333  0.00  0.00     0.288 C 
ATOM     17  N   UNL d   1      50.023  34.359  52.578  0.00  0.00    -0.182 NA
ATOM     18  O   UNL d   1      50.988  34.228  51.532  0.00  0.00    -0.265 OA
BRANCH  17  19
ATOM     19  C   UNL d   1      49.464  34.521  51.989  0.00  0.00     0.197 A 
ATOM     20  N   UNL d   1      49.426  34.291  51.218  0.00  0.00    -0.219 NA
ATOM     21  C   UNL d   1      48.771  34.596  50.874  0.00  0.00     0.108 A 
ATOM     22  C   UNL d   1      48.365  35.044  51.446  0.00  0.00     0.059 A 
ATOM     23  S   UNL d   1      48.798  34.993  52.129  0.00  0.00    -0.046 SA
ENDBRANCH  17  19
ENDBRANCH  15  16
ENDBRANCH  14  15
ENDBRANCH   3  14
TORSDOF 4
ENDMDL
MODEL 3
REMARK VINA RESULT:      -6.7      2.694      5.187
REMARK  4 active torsions:
REMARK  status: ('A' for Active; 'I' for Inactive)
REMARK    1  A    between atoms: C_3  and  N_5 
REMARK    2  A    between atoms: S_13  and  C_4 
REMARK       I    between atoms: N_5  and  C_12 
REMARK    3  A    between atoms: C_12  and  C_18 
REMARK    4  A    between atoms: C_18  and  S_13 
ROOT
ATOM      1  N   UNL d   1      52.244  32.540  53.099  0.00  0.00    -0.238 NA
ATOM      2  C   UNL d   1      53.461  33.178  53.497  0.00  0.00     0.092 A 
ATOM      3  C   UNL d   1      53.059  32.482  53.314  0.00  0.00     0.120 A 
ATOM      4  C   UNL d   1      54.278  33.166  53.717  0.00  0.00     0.103 C 
ATOM      5  C   UNL d   1      51.854  33.243  53.068  0.00  0.00     0.082 A 
ATOM      6  N   UNL d   1      55.082  33.148  53.933  0.00  0.00    -0.191 NA
ATOM      7  C   UNL d   1      53.052  33.940  53.468  0.00  0.00     0.014 A 
ATOM      8  C   UNL d   1      52.256  33.939  53.252  0.00  0.00     0.018 A 
ATOM      9  C   UNL d   1      51.068  33.163  52.847  0.00  0.00     0.019 A 
ATOM     10  C   UNL d   1      51.976  34.734  53.261  0.00  0.00     0.002 A 
ATOM     11  C   UNL d   1      50.495  33.730  52.752  0.00  0.00     0.002 A 
ATOM     12  C   UNL d   1      51.231  35.003  53.088  0.00  0.00     0.000 A 
ATOM     13  C   UNL d   1      50.549  34.527  52.852  0.00  0.00     0.000 A 
ENDROOT
BRANCH   3  14
ATOM     14  S   UNL d   1      53.470  31.766  53.348  0.00  0.00    -0.062 SA
BRANCH  14  15
ATOM     15  C   UNL d   1      53.055  31.065  53.216  0.00  0.00     0.099 C 
BRANCH  15  16
ATOM     16  C   UNL d   1      53.340  30.374  53.543  0.00  0.00     0.288 C 
ATOM     17  N   UNL d   1      52.842  29.973  54.064  0.00  0.00    -0.182 NA
ATOM     18  O   UNL d   1      54.088  30.073  53.372  0.00  0.00    -0.265 OA
BRANCH  17  19
ATOM     19  C   UNL d   1      53.129  29.271  54.397  0.00  0.00     0.197 A 
ATOM     20  N   UNL d   1      53.365  28.581  54.056  0.00  0.00    -0.219 NA
ATOM     21  C   UNL d   1      53.598  28.063  54.619  0.00  0.00     0.108 A 
ATOM     22  C   UNL d   1      53.511  28.431  55.359  0.00  0.00     0.059 A 
ATOM     23  S   UNL d   1      53.221  29.175  55.214  0.00  0.00    -0.046 SA
ENDBRANCH  17  19
ENDBRANCH  15  16
ENDBRANCH  14  15
ENDBRANCH   3  14
TORSDOF 4
ENDMDL
MODEL 4
REMARK VINA RESULT:      -6.1      2.214      4.707
REMARK  4 active torsions:
REMARK  status: ('A' for Active; 'I' for Inactive)
REMARK    1  A    between atoms: C_3  and  N_5 
REMARK    2  A    between atoms: S_13  and  C_4 
REMARK       I    between atoms: N_5  and  C_12 
REMARK    3  A    between atoms: C_12  and  C_18 
REMARK    4  A    between atoms: C_18  and  S_13 
ROOT
ATOM      1  N   UNL d   1      52.956  33.444  53.860  0.00  0.00    -0.238 NA
ATOM      2  C   UNL d   1      52.008  34.015  52.952  0.00  0.00     0.092 A 
ATOM      3  C   UNL d   1      52.396  33.344  53.235  0.00  0.00     0.120 A 
ATOM      4  C   UNL d   1      51.440  33.960  52.326  0.00  0.00     0.103 C 
ATOM      5  C   UNL d   1      53.119  34.163  54.183  0.00  0.00     0.082 A 
ATOM      6  N   UNL d   1      50.882  33.900  51.711  0.00  0.00    -0.191 NA
ATOM      7  C   UNL d   1      52.176  34.792  53.291  0.00  0.00     0.014 A 
ATOM      8  C   UNL d   1      52.731  34.833  53.899  0.00  0.00     0.018 A 
ATOM      9  C   UNL d   1      53.679  34.124  54.780  0.00  0.00     0.019 A 
ATOM     10  C   UNL d   1      52.803  35.638  54.141  0.00  0.00     0.002 A 
ATOM     11  C   UNL d   1      53.991  34.718  55.238  0.00  0.00     0.002 A 
ATOM     12  C   UNL d   1      53.282  35.944  54.720  0.00  0.00     0.000 A 
ATOM     13  C   UNL d   1      53.831  35.507  55.225  0.00  0.00     0.000 A 
ENDROOT
BRANCH   3  14
ATOM     14  S   UNL d   1      52.220  32.612  52.895  0.00  0.00    -0.062 SA
BRANCH  14  15
ATOM     15  C   UNL d   1      52.821  32.049  52.835  0.00  0.00     0.099 C 
BRANCH  15  16
ATOM     16  C   UNL d   1      52.661  31.280  53.059  0.00  0.00     0.288 C 
ATOM     17  N   UNL d   1      53.300  30.824  53.313  0.00  0.00    -0.182 NA
ATOM     18  O   UNL d   1      51.904  30.956  53.037  0.00  0.00    -0.265 OA
BRANCH  17  19
ATOM     19  C   UNL d   1      53.141  30.044  53.540  0.00  0.00     0.197 A 
ATOM     20  N   UNL d   1      52.672  29.480  53.207  0.00  0.00    -0.219 NA
ATOM     21  C   UNL d   1      52.703  28.808  53.639  0.00  0.00     0.108 A 
ATOM     22  C   UNL d   1      53.214  28.939  54.282  0.00  0.00     0.059 A 
ATOM     23  S   UNL d   1      53.480  29.702  54.214  0.00  0.00    -0.046 SA
ENDBRANCH  17  19
ENDBRANCH  15  16
ENDBRANCH  14  15
ENDBRANCH   3  14
TORSDOF 4
ENDMDL
MODEL 5
REMARK VINA RESULT:      -5.8      1.554      5.573
REMARK  4 active torsions:
REMARK  status: ('A' for Active; 'I' for Inactive)
REMARK    1  A    between atoms: C_3  and  N_5 
REMARK    2  A    between atoms: S_13  and  C_4 
REMARK       I    between atoms: N_5  and  C_12 
REMARK    3  A    between atoms: C_12  and  C_18 
REMARK    4  A    between atoms: C_18  and  S_13 
ROOT
ATOM      1  N   UNL d   1      48.656  35.587  53.471  0.00  0.00    -0.238 NA
ATOM      2  C   UNL d   1      48.288  35.172  52.151  0.00  0.00     0.092 A 
ATOM      3  C   UNL d   1      48.864  35.218  52.740  0.00  0.00     0.120 A 
ATOM      4  C   UNL d   1      48.454  34.810  51.405  0.00  0.00     0.103 C 
ATOM      5  C   UNL d   1      47.924  35.891  53.608  0.00  0.00     0.082 A 
ATOM      6  N   UNL d   1      48.623  34.453  50.672  0.00  0.00    -0.191 NA
ATOM      7  C   UNL d   1      47.498  35.496  52.287  0.00  0.00     0.014 A 
ATOM      8  C   UNL d   1      47.348  35.846  53.019  0.00  0.00     0.018 A 
ATOM      9  C   UNL d   1      47.851  36.222  54.355  0.00  0.00     0.019 A 
ATOM     10  C   UNL d   1      46.550  36.119  53.026  0.00  0.00     0.002 A 
ATOM     11  C   UNL d   1      47.211  36.581  54.703  0.00  0.00     0.002 A 
ATOM     12  C   UNL d   1      46.158  36.498  53.626  0.00  0.00     0.000 A 
ATOM     13  C   UNL d   1      46.475  36.708  54.403  0.00  0.00     0.000 A 
ENDROOT
BRANCH   3  14
ATOM     14  S   UNL d   1      49.612  34.902  52.588  0.00  0.00    -0.062 SA
BRANCH  14  15
ATOM     15  C   UNL d   1      49.961  34.419  53.158  0.00  0.00     0.099 C 
BRANCH  15  16
ATOM     16  C   UNL d   1      50.758  34.252  53.096  0.00  0.00     0.288 C 
ATOM     17  N   UNL d   1      51.000  33.494  53.317  0.00  0.00    -0.182 NA
ATOM     18  O   UNL d   1      51.311  34.801  52.828  0.00  0.00    -0.265 OA
BRANCH  17  19
ATOM     19  C   UNL d   1      51.807  33.322  53.255  0.00  0.00     0.197 A 
ATOM     20  N   UNL d   1      52.458  33.758  53.444  0.00  0.00    -0.219 NA
ATOM     21  C   UNL d   1      53.122  33.344  53.280  0.00  0.00     0.108 A 
ATOM     22  C   UNL d   1      52.895  32.606  52.970  0.00  0.00     0.059 A 
ATOM     23  S   UNL d   1      52.084  32.600  52.958  0.00  0.00    -0.046 SA
ENDBRANCH  17  19
ENDBRANCH  15  16
ENDBRANCH  14  15
ENDBRANCH   3  14
TORSDOF 4
ENDMDL
