MODEL 1
REMARK VINA RESULT:      -5.3      0.000      0.000
REMARK  6 active torsions:
REMARK  status: ('A' for Active; 'I' for Inactive)
REMARK    1  A    between atoms: C_12  and  C_4 
REMARK    2  A    between atoms: N_16  and  C_5 
REMARK    3  A    between atoms: N_11  and  C_24 
REMARK    4  A    between atoms: C_27  and  N_16 
REMARK    5  A    between atoms: C_24  and  C_25 
REMARK    6  A    between atoms: C_25  and  C_27 
ROOT
ATOM      1  N   UNL d   1     -47.374  13.159  23.089  0.00  0.00    -0.195 N 
ATOM      2  C   UNL d   1     -48.188  13.310  23.121  0.00  0.00     0.167 A 
ATOM      3  N   UNL d   1     -47.003  13.856  22.879  0.00  0.00    -0.163 NA
ATOM      4  C   UNL d   1     -48.300  14.096  22.931  0.00  0.00     0.055 A 
ATOM      5  C   UNL d   1     -47.093  12.408  23.256  0.00  0.00     0.167 A 
ATOM      6  C   UNL d   1     -47.583  14.429  22.784  0.00  0.00     0.104 A 
ATOM      7  N   UNL d   1     -48.706  12.707  23.320  0.00  0.00    -0.227 NA
ATOM      8  C   UNL d   1     -47.622  11.798  23.457  0.00  0.00     0.058 A 
ATOM      9  C   UNL d   1     -48.417  11.946  23.489  0.00  0.00     0.086 A 
ATOM     10  C   UNL d   1     -47.458  15.220  22.572  0.00  0.00     0.023 C 
ATOM     11  C   UNL d   1     -48.948  11.327  23.692  0.00  0.00     0.021 C 
ENDROOT
BRANCH   5  12
ATOM     12  N   UNL d   1     -46.279  12.257  23.223  0.00  0.00    -0.225 NA
BRANCH  12  13
ATOM     13  C   UNL d   1     -45.980  11.567  23.551  0.00  0.00     0.102 C 
BRANCH  13  14
ATOM     14  C   UNL d   1     -45.202  11.337  23.385  0.00  0.00     0.040 C 
BRANCH  14  15
ATOM     15  C   UNL d   1     -44.900  10.638  23.698  0.00  0.00     0.083 C 
BRANCH  15  16
ATOM     16  N   UNL d   1     -44.142  10.387  23.498  0.00  0.00    -0.285 N 
ATOM     17  C   UNL d   1     -43.476  10.788  23.218  0.00  0.00     0.183 A 
ATOM     18  N   UNL d   1     -42.875  10.246  23.117  0.00  0.00    -0.222 NA
ATOM     19  C   UNL d   1     -43.151   9.510  23.328  0.00  0.00     0.120 A 
ATOM     20  C   UNL d   1     -43.939   9.593  23.566  0.00  0.00     0.102 A 
ENDBRANCH  15  16
ENDBRANCH  14  15
ENDBRANCH  13  14
ENDBRANCH  12  13
ENDBRANCH   5  12
BRANCH   4  21
ATOM     21  C   UNL d   1     -48.990  14.554  22.875  0.00  0.00     0.004 A 
ATOM     22  C   UNL d   1     -49.510  14.448  22.244  0.00  0.00     0.001 A 
ATOM     23  C   UNL d   1     -50.196  14.900  22.185  0.00  0.00     0.011 A 
ATOM     24  C   UNL d   1     -50.360  15.463  22.765  0.00  0.00     0.058 A 
ATOM     25  C   UNL d   1     -49.838  15.570  23.400  0.00  0.00     0.011 A 
ATOM     26 CL   UNL d   1     -51.059  15.922  22.703  0.00  0.00    -0.082 Cl
ATOM     27  C   UNL d   1     -49.154  15.117  23.455  0.00  0.00     0.001 A 
ENDBRANCH   4  21
TORSDOF 6
ENDMDL
MODEL 2
REMARK VINA RESULT:      -5.3      2.337      2.936
REMARK  6 active torsions:
REMARK  status: ('A' for Active; 'I' for Inactive)
REMARK    1  A    between atoms: C_12  and  C_4 
REMARK    2  A    between atoms: N_16  and  C_5 
REMARK    3  A    between atoms: N_11  and  C_24 
REMARK    4  A    between atoms: C_27  and  N_16 
REMARK    5  A    between atoms: C_24  and  C_25 
REMARK    6  A    between atoms: C_25  and  C_27 
ROOT
ATOM      1  N   UNL d   1     -46.557  13.023  22.477  0.00  0.00    -0.195 N 
ATOM      2  C   UNL d   1     -47.173  12.572  22.798  0.00  0.00     0.167 A 
ATOM      3  N   UNL d   1     -46.891  13.674  22.115  0.00  0.00    -0.163 NA
ATOM      4  C   UNL d   1     -47.873  12.956  22.626  0.00  0.00     0.055 A 
ATOM      5  C   UNL d   1     -45.782  12.772  22.564  0.00  0.00     0.167 A 
ATOM      6  C   UNL d   1     -47.705  13.624  22.212  0.00  0.00     0.104 A 
ATOM      7  N   UNL d   1     -47.004  11.879  23.200  0.00  0.00    -0.227 NA
ATOM      8  C   UNL d   1     -45.613  12.067  22.972  0.00  0.00     0.058 A 
ATOM      9  C   UNL d   1     -46.216  11.627  23.286  0.00  0.00     0.086 A 
ATOM     10  C   UNL d   1     -48.264  14.167  21.933  0.00  0.00     0.023 C 
ATOM     11  C   UNL d   1     -46.041  10.915  23.698  0.00  0.00     0.021 C 
ENDROOT
BRANCH   5  12
ATOM     12  N   UNL d   1     -45.165  13.222  22.243  0.00  0.00    -0.225 NA
BRANCH  12  13
ATOM     13  C   UNL d   1     -44.528  12.846  21.888  0.00  0.00     0.102 C 
BRANCH  13  14
ATOM     14  C   UNL d   1     -43.914  13.296  21.565  0.00  0.00     0.040 C 
BRANCH  14  15
ATOM     15  C   UNL d   1     -43.164  12.969  21.469  0.00  0.00     0.083 C 
BRANCH  15  16
ATOM     16  N   UNL d   1     -42.535  13.437  21.216  0.00  0.00    -0.285 N 
ATOM     17  C   UNL d   1     -42.446  14.254  21.130  0.00  0.00     0.183 A 
ATOM     18  N   UNL d   1     -41.693  14.400  20.854  0.00  0.00    -0.222 NA
ATOM     19  C   UNL d   1     -41.306  13.689  20.766  0.00  0.00     0.120 A 
ATOM     20  C   UNL d   1     -41.827  13.087  20.990  0.00  0.00     0.102 A 
ENDBRANCH  15  16
ENDBRANCH  14  15
ENDBRANCH  13  14
ENDBRANCH  12  13
ENDBRANCH   5  12
BRANCH   4  21
ATOM     21  C   UNL d   1     -48.662  12.765  22.805  0.00  0.00     0.004 A 
ATOM     22  C   UNL d   1     -49.002  13.022  23.511  0.00  0.00     0.001 A 
ATOM     23  C   UNL d   1     -49.783  12.835  23.691  0.00  0.00     0.011 A 
ATOM     24  C   UNL d   1     -50.225  12.385  23.159  0.00  0.00     0.058 A 
ATOM     25  C   UNL d   1     -49.883  12.127  22.450  0.00  0.00     0.011 A 
ATOM     26 CL   UNL d   1     -51.021  12.196  23.346  0.00  0.00    -0.082 Cl
ATOM     27  C   UNL d   1     -49.103  12.316  22.273  0.00  0.00     0.001 A 
ENDBRANCH   4  21
TORSDOF 6
ENDMDL
