MODEL 1
REMARK VINA RESULT:      36.9      0.000      0.000
REMARK  4 active torsions:
REMARK  status: ('A' for Active; 'I' for Inactive)
REMARK    1  A    between atoms: N_2  and  S_1 
REMARK    2  A    between atoms: C_6  and  S_1 
REMARK       I    between atoms: C_3  and  N_5 
REMARK    3  A    between atoms: C_7  and  C_3 
REMARK    4  A    between atoms: C_4  and  C_8 
ROOT
ATOM      1  N   UNL d   1      15.323  13.356  -0.650  0.00  0.00    -0.226 N 
ATOM      2  C   UNL d   1      14.872  15.736  -1.103  0.00  0.00     0.288 C 
ATOM      3  N   UNL d   1      15.022  14.942  -0.947  0.00  0.00    -0.267 N 
ATOM      4  C   UNL d   1      15.252  13.625  -1.426  0.00  0.00     0.111 A 
ATOM      5  C   UNL d   1      15.241  13.890  -0.017  0.00  0.00     0.111 A 
ATOM      6  C   UNL d   1      15.090  14.684  -0.172  0.00  0.00     0.103 A 
ATOM      7  C   UNL d   1      15.103  14.413  -1.568  0.00  0.00     0.103 A 
ATOM      8  O   UNL d   1      14.790  16.269  -0.479  0.00  0.00    -0.264 OA
ENDROOT
BRANCH   1   9
ATOM      9  S   UNL d   1      15.471  12.573  -0.497  0.00  0.00     0.271 S 
ATOM     10  O   UNL d   1      15.621  11.779  -0.341  0.00  0.00    -0.200 OA
ATOM     11  O   UNL d   1      16.230  12.759  -0.264  0.00  0.00    -0.200 OA
BRANCH   9  12
ATOM     12  C   UNL d   1      14.705  12.382  -0.731  0.00  0.00     0.104 A 
ATOM     13  C   UNL d   1      14.525  12.280  -1.530  0.00  0.00     0.017 A 
ATOM     14  C   UNL d   1      13.759  12.089  -1.764  0.00  0.00     0.072 A 
ATOM     15  C   UNL d   1      13.167  11.998  -1.201  0.00  0.00     0.004 A 
ATOM     16  C   UNL d   1      13.339  12.100  -0.397  0.00  0.00     0.001 A 
ATOM     17  C   UNL d   1      14.112  12.292  -0.161  0.00  0.00     0.013 A 
BRANCH  14  18
ATOM     18  C   UNL d   1      13.585  11.988  -2.560  0.00  0.00     0.419 C 
ATOM     19  F   UNL d   1      12.840  11.779  -2.924  0.00  0.00    -0.166 F 
ATOM     20  F   UNL d   1      14.101  12.063  -3.243  0.00  0.00    -0.166 F 
ATOM     21  F   UNL d   1      13.423  11.895  -3.288  0.00  0.00    -0.166 F 
ENDBRANCH  14  18
ENDBRANCH   9  12
ENDBRANCH   1   9
BRANCH   2  22
ATOM     22  C   UNL d   1      14.802  16.001  -1.879  0.00  0.00     0.156 A 
ATOM     23  O   UNL d   1      14.308  15.685  -2.464  0.00  0.00    -0.300 OA
ATOM     24  C   UNL d   1      14.413  16.115  -3.150  0.00  0.00     0.123 A 
ATOM     25  C   UNL d   1      14.975  16.706  -3.000  0.00  0.00     0.029 A 
ATOM     26  C   UNL d   1      15.217  16.636  -2.211  0.00  0.00     0.032 A 
ENDBRANCH   2  22
TORSDOF 4
ENDMDL
MODEL 2
REMARK VINA RESULT:      38.9      2.726      4.231
REMARK  4 active torsions:
REMARK  status: ('A' for Active; 'I' for Inactive)
REMARK    1  A    between atoms: N_2  and  S_1 
REMARK    2  A    between atoms: C_6  and  S_1 
REMARK       I    between atoms: C_3  and  N_5 
REMARK    3  A    between atoms: C_7  and  C_3 
REMARK    4  A    between atoms: C_4  and  C_8 
ROOT
ATOM      1  N   UNL d   1      13.386  12.486  -3.786  0.00  0.00    -0.226 N 
ATOM      2  C   UNL d   1      13.686  12.170  -1.361  0.00  0.00     0.288 C 
ATOM      3  N   UNL d   1      13.582  12.273  -2.171  0.00  0.00    -0.267 N 
ATOM      4  C   UNL d   1      14.067  12.761  -3.413  0.00  0.00     0.111 A 
ATOM      5  C   UNL d   1      12.796  12.100  -3.342  0.00  0.00     0.111 A 
ATOM      6  C   UNL d   1      12.900  11.997  -2.533  0.00  0.00     0.103 A 
ATOM      7  C   UNL d   1      14.160  12.652  -2.611  0.00  0.00     0.103 A 
ATOM      8  O   UNL d   1      13.105  11.788  -0.917  0.00  0.00    -0.264 OA
ENDROOT
BRANCH   1   9
ATOM      9  S   UNL d   1      13.283  12.588  -4.584  0.00  0.00     0.271 S 
ATOM     10  O   UNL d   1      13.179  12.691  -5.394  0.00  0.00    -0.200 OA
ATOM     11  O   UNL d   1      13.296  11.780  -4.693  0.00  0.00    -0.200 OA
BRANCH   9  12
ATOM     12  C   UNL d   1      13.270  13.404  -4.478  0.00  0.00     0.104 A 
ATOM     13  C   UNL d   1      13.713  13.897  -4.969  0.00  0.00     0.017 A 
ATOM     14  C   UNL d   1      13.699  14.714  -4.863  0.00  0.00     0.072 A 
ATOM     15  C   UNL d   1      13.243  15.044  -4.265  0.00  0.00     0.004 A 
ATOM     16  C   UNL d   1      12.794  14.556  -3.767  0.00  0.00     0.001 A 
ATOM     17  C   UNL d   1      12.808  13.732  -3.875  0.00  0.00     0.013 A 
BRANCH  14  18
ATOM     18  C   UNL d   1      14.143  15.200  -5.355  0.00  0.00     0.419 C 
ATOM     19  F   UNL d   1      14.173  15.214  -6.210  0.00  0.00    -0.166 F 
ATOM     20  F   UNL d   1      14.695  15.825  -5.147  0.00  0.00    -0.166 F 
ATOM     21  F   UNL d   1      14.547  15.644  -5.807  0.00  0.00    -0.166 F 
ENDBRANCH  14  18
ENDBRANCH   9  12
ENDBRANCH   1   9
BRANCH   2  22
ATOM     22  C   UNL d   1      14.368  12.445  -0.991  0.00  0.00     0.156 A 
ATOM     23  O   UNL d   1      15.123  12.109  -1.040  0.00  0.00    -0.300 OA
ATOM     24  C   UNL d   1      15.635  12.559  -0.589  0.00  0.00     0.123 A 
ATOM     25  C   UNL d   1      15.202  13.181  -0.253  0.00  0.00     0.029 A 
ATOM     26  C   UNL d   1      14.416  13.112  -0.502  0.00  0.00     0.032 A 
ENDBRANCH   2  22
TORSDOF 4
ENDMDL
