MODEL 1
REMARK VINA RESULT:      -8.1      0.000      0.000
REMARK  1 active torsions:
REMARK  status: ('A' for Active; 'I' for Inactive)
REMARK    1  A    between atoms: C_12  and  N_4 
ROOT
ATOM      1  C   UNL d   1     -48.225  13.920  22.968  0.00  0.00     0.081 A 
ATOM      2  C   UNL d   1     -48.624  13.234  23.171  0.00  0.00     0.118 A 
ATOM      3  C   UNL d   1     -48.653  14.637  22.885  0.00  0.00     0.268 A 
ATOM      4  N   UNL d   1     -49.467  14.651  23.009  0.00  0.00    -0.249 N 
ATOM      5  N   UNL d   1     -49.436  13.224  23.299  0.00  0.00    -0.212 NA
ATOM      6  C   UNL d   1     -49.865  13.942  23.217  0.00  0.00     0.209 A 
ATOM      7  S   UNL d   1     -48.034  12.628  23.205  0.00  0.00    -0.068 SA
ATOM      8  C   UNL d   1     -47.424  13.743  22.880  0.00  0.00     0.013 A 
ATOM      9  C   UNL d   1     -47.335  12.924  23.036  0.00  0.00     0.031 A 
ATOM     10  S   UNL d   1     -50.691  13.917  23.350  0.00  0.00    -0.038 SA
ATOM     11  O   UNL d   1     -48.262  15.361  22.675  0.00  0.00    -0.267 OA
ATOM     12  C   UNL d   1     -46.771  14.205  22.684  0.00  0.00     0.001 A 
ATOM     13  C   UNL d   1     -46.577  12.582  22.989  0.00  0.00     0.006 A 
ATOM     14  C   UNL d   1     -46.028  13.861  22.640  0.00  0.00     0.000 A 
ATOM     15  C   UNL d   1     -45.928  13.058  22.790  0.00  0.00     0.001 A 
ENDROOT
BRANCH   4  16
ATOM     16  C   UNL d   1     -49.881  15.369  22.924  0.00  0.00     0.085 C 
ATOM     17  C   UNL d   1     -50.026  15.843  23.577  0.00  0.00     0.021 C 
ENDBRANCH   4  16
TORSDOF 1
ENDMDL
MODEL 2
REMARK VINA RESULT:      -7.9      1.278      1.820
REMARK  1 active torsions:
REMARK  status: ('A' for Active; 'I' for Inactive)
REMARK    1  A    between atoms: C_12  and  N_4 
ROOT
ATOM      1  C   UNL d   1     -48.248  13.169  23.192  0.00  0.00     0.081 A 
ATOM      2  C   UNL d   1     -47.821  13.829  22.962  0.00  0.00     0.118 A 
ATOM      3  C   UNL d   1     -49.086  13.215  23.234  0.00  0.00     0.268 A 
ATOM      4  N   UNL d   1     -49.473  13.917  23.046  0.00  0.00    -0.249 N 
ATOM      5  N   UNL d   1     -48.186  14.540  22.769  0.00  0.00    -0.212 NA
ATOM      6  C   UNL d   1     -49.024  14.585  22.811  0.00  0.00     0.209 A 
ATOM      7  S   UNL d   1     -47.008  13.591  22.981  0.00  0.00    -0.068 SA
ATOM      8  C   UNL d   1     -47.722  12.553  23.346  0.00  0.00     0.013 A 
ATOM      9  C   UNL d   1     -46.950  12.849  23.204  0.00  0.00     0.031 A 
ATOM     10  S   UNL d   1     -49.381  15.315  22.612  0.00  0.00    -0.038 SA
ATOM     11  O   UNL d   1     -49.551  12.545  23.470  0.00  0.00    -0.267 OA
ATOM     12  C   UNL d   1     -47.833  11.775  23.591  0.00  0.00     0.001 A 
ATOM     13  C   UNL d   1     -46.296  12.346  23.314  0.00  0.00     0.006 A 
ATOM     14  C   UNL d   1     -47.185  11.286  23.698  0.00  0.00     0.000 A 
ATOM     15  C   UNL d   1     -46.422  11.564  23.562  0.00  0.00     0.001 A 
ENDROOT
BRANCH   4  16
ATOM     16  C   UNL d   1     -50.304  13.949  23.091  0.00  0.00     0.085 C 
ATOM     17  C   UNL d   1     -50.762  13.791  22.430  0.00  0.00     0.021 C 
ENDBRANCH   4  16
TORSDOF 1
ENDMDL
MODEL 3
REMARK VINA RESULT:      -7.7      1.499      3.198
REMARK  1 active torsions:
REMARK  status: ('A' for Active; 'I' for Inactive)
REMARK    1  A    between atoms: C_12  and  N_4 
ROOT
ATOM      1  C   UNL d   1     -48.655  12.938  22.696  0.00  0.00     0.081 A 
ATOM      2  C   UNL d   1     -48.738  12.160  22.936  0.00  0.00     0.118 A 
ATOM      3  C   UNL d   1     -47.913  13.321  22.789  0.00  0.00     0.268 A 
ATOM      4  N   UNL d   1     -47.276  12.917  23.118  0.00  0.00    -0.249 N 
ATOM      5  N   UNL d   1     -48.116  11.736  23.267  0.00  0.00    -0.212 NA
ATOM      6  C   UNL d   1     -47.374  12.119  23.360  0.00  0.00     0.209 A 
ATOM      7  S   UNL d   1     -49.541  11.953  22.765  0.00  0.00    -0.068 SA
ATOM      8  C   UNL d   1     -49.376  13.199  22.391  0.00  0.00     0.013 A 
ATOM      9  C   UNL d   1     -49.913  12.558  22.448  0.00  0.00     0.031 A 
ATOM     10  S   UNL d   1     -46.750  11.676  23.698  0.00  0.00    -0.038 SA
ATOM     11  O   UNL d   1     -47.803  14.128  22.548  0.00  0.00    -0.267 OA
ATOM     12  C   UNL d   1     -49.617  13.920  22.074  0.00  0.00     0.001 A 
ATOM     13  C   UNL d   1     -50.694  12.658  22.179  0.00  0.00     0.006 A 
ATOM     14  C   UNL d   1     -50.387  14.012  21.811  0.00  0.00     0.000 A 
ATOM     15  C   UNL d   1     -50.924  13.389  21.861  0.00  0.00     0.001 A 
ENDROOT
BRANCH   4  16
ATOM     16  C   UNL d   1     -46.546  13.308  23.205  0.00  0.00     0.085 C 
ATOM     17  C   UNL d   1     -45.995  13.296  22.598  0.00  0.00     0.021 C 
ENDBRANCH   4  16
TORSDOF 1
ENDMDL
MODEL 4
REMARK VINA RESULT:      -7.5      1.717      3.556
REMARK  1 active torsions:
REMARK  status: ('A' for Active; 'I' for Inactive)
REMARK    1  A    between atoms: C_12  and  N_4 
ROOT
ATOM      1  C   UNL d   1     -48.559  12.840  22.949  0.00  0.00     0.081 A 
ATOM      2  C   UNL d   1     -48.349  13.547  22.592  0.00  0.00     0.118 A 
ATOM      3  C   UNL d   1     -47.966  12.375  23.320  0.00  0.00     0.268 A 
ATOM      4  N   UNL d   1     -47.183  12.627  23.324  0.00  0.00    -0.249 N 
ATOM      5  N   UNL d   1     -47.573  13.818  22.583  0.00  0.00    -0.212 NA
ATOM      6  C   UNL d   1     -46.981  13.353  22.954  0.00  0.00     0.209 A 
ATOM      7  S   UNL d   1     -49.069  13.866  22.280  0.00  0.00    -0.068 SA
ATOM      8  C   UNL d   1     -49.371  12.730  22.861  0.00  0.00     0.013 A 
ATOM      9  C   UNL d   1     -49.664  13.391  22.436  0.00  0.00     0.031 A 
ATOM     10  S   UNL d   1     -46.196  13.641  22.938  0.00  0.00    -0.038 SA
ATOM     11  O   UNL d   1     -48.159  11.639  23.697  0.00  0.00    -0.267 OA
ATOM     12  C   UNL d   1     -49.881  12.129  23.103  0.00  0.00     0.001 A 
ATOM     13  C   UNL d   1     -50.477  13.433  22.261  0.00  0.00     0.006 A 
ATOM     14  C   UNL d   1     -50.679  12.178  22.928  0.00  0.00     0.000 A 
ATOM     15  C   UNL d   1     -50.979  12.822  22.511  0.00  0.00     0.001 A 
ENDROOT
BRANCH   4  16
ATOM     16  C   UNL d   1     -46.604  12.156  23.695  0.00  0.00     0.085 C 
ATOM     17  C   UNL d   1     -46.219  11.566  23.276  0.00  0.00     0.021 C 
ENDBRANCH   4  16
TORSDOF 1
ENDMDL
MODEL 5
REMARK VINA RESULT:      -6.3      1.443      2.149
REMARK  1 active torsions:
REMARK  status: ('A' for Active; 'I' for Inactive)
REMARK    1  A    between atoms: C_12  and  N_4 
ROOT
ATOM      1  C   UNL d   1     -48.518  13.473  23.082  0.00  0.00     0.081 A 
ATOM      2  C   UNL d   1     -47.967  12.873  23.163  0.00  0.00     0.118 A 
ATOM      3  C   UNL d   1     -49.332  13.306  23.208  0.00  0.00     0.268 A 
ATOM      4  N   UNL d   1     -49.572  12.545  23.411  0.00  0.00    -0.249 N 
ATOM      5  N   UNL d   1     -48.184  12.106  23.365  0.00  0.00    -0.212 NA
ATOM      6  C   UNL d   1     -48.997  11.939  23.490  0.00  0.00     0.209 A 
ATOM      7  S   UNL d   1     -47.216  13.229  23.000  0.00  0.00    -0.068 SA
ATOM      8  C   UNL d   1     -48.124  14.169  22.878  0.00  0.00     0.013 A 
ATOM      9  C   UNL d   1     -47.307  13.983  22.834  0.00  0.00     0.031 A 
ATOM     10  S   UNL d   1     -49.204  11.154  23.695  0.00  0.00    -0.038 SA
ATOM     11  O   UNL d   1     -49.921  13.912  23.130  0.00  0.00    -0.267 OA
ATOM     12  C   UNL d   1     -48.387  14.934  22.728  0.00  0.00     0.001 A 
ATOM     13  C   UNL d   1     -46.765  14.584  22.636  0.00  0.00     0.006 A 
ATOM     14  C   UNL d   1     -47.848  15.520  22.534  0.00  0.00     0.000 A 
ATOM     15  C   UNL d   1     -47.044  15.351  22.488  0.00  0.00     0.001 A 
ENDROOT
BRANCH   4  16
ATOM     16  C   UNL d   1     -50.381  12.392  23.533  0.00  0.00     0.085 C 
ATOM     17  C   UNL d   1     -50.824  12.018  22.953  0.00  0.00     0.021 C 
ENDBRANCH   4  16
TORSDOF 1
ENDMDL
MODEL 6
REMARK VINA RESULT:      -5.6      8.468      9.925
REMARK  1 active torsions:
REMARK  status: ('A' for Active; 'I' for Inactive)
REMARK    1  A    between atoms: C_12  and  N_4 
ROOT
ATOM      1  C   UNL d   1     -40.002  14.886  18.870  0.00  0.00     0.081 A 
ATOM      2  C   UNL d   1     -39.589  15.592  18.906  0.00  0.00     0.118 A 
ATOM      3  C   UNL d   1     -39.946  14.411  18.179  0.00  0.00     0.268 A 
ATOM      4  N   UNL d   1     -39.481  14.654  17.546  0.00  0.00    -0.249 N 
ATOM      5  N   UNL d   1     -39.118  15.855  18.285  0.00  0.00    -0.212 NA
ATOM      6  C   UNL d   1     -39.062  15.380  17.595  0.00  0.00     0.209 A 
ATOM      7  S   UNL d   1     -39.767  15.922  19.665  0.00  0.00    -0.068 SA
ATOM      8  C   UNL d   1     -40.416  14.786  19.576  0.00  0.00     0.013 A 
ATOM      9  C   UNL d   1     -40.249  15.453  20.055  0.00  0.00     0.031 A 
ATOM     10  S   UNL d   1     -38.579  15.659  16.971  0.00  0.00    -0.038 SA
ATOM     11  O   UNL d   1     -40.365  13.675  18.118  0.00  0.00    -0.267 OA
ATOM     12  C   UNL d   1     -40.916  14.190  19.848  0.00  0.00     0.001 A 
ATOM     13  C   UNL d   1     -40.595  15.507  20.811  0.00  0.00     0.006 A 
ATOM     14  C   UNL d   1     -41.253  14.250  20.592  0.00  0.00     0.000 A 
ATOM     15  C   UNL d   1     -41.096  14.900  21.073  0.00  0.00     0.001 A 
ENDROOT
BRANCH   4  16
ATOM     16  C   UNL d   1     -39.434  14.174  16.866  0.00  0.00     0.085 C 
ATOM     17  C   UNL d   1     -38.797  13.669  16.759  0.00  0.00     0.021 C 
ENDBRANCH   4  16
TORSDOF 1
ENDMDL
