MODEL 1
REMARK VINA RESULT:      30.2      0.000      0.000
REMARK  2 active torsions:
REMARK  status: ('A' for Active; 'I' for Inactive)
REMARK    1  A    between atoms: C_2  and  N_1 
REMARK    2  A    between atoms: N_8  and  C_3 
REMARK       I    between atoms: C_12  and  N_8 
ROOT
ATOM      1  N   UNL d   1      59.592  49.681  51.525  0.00  0.00    -0.189 N 
ATOM      2  C   UNL d   1      60.331  49.653  51.153  0.00  0.00     0.171 A 
ATOM      3  N   UNL d   1      59.712  49.705  52.345  0.00  0.00    -0.162 NA
ATOM      4  C   UNL d   1      60.908  49.659  51.747  0.00  0.00     0.060 A 
ATOM      5  C   UNL d   1      60.529  49.690  52.477  0.00  0.00     0.105 A 
ATOM      6  C   UNL d   1      60.901  49.705  53.217  0.00  0.00     0.023 C 
ENDROOT
BRANCH   1   7
ATOM      7  C   UNL d   1      58.855  49.687  51.182  0.00  0.00     0.197 A 
ATOM      8  N   UNL d   1      58.182  49.687  51.659  0.00  0.00    -0.221 NA
ATOM      9  C   UNL d   1      57.516  49.693  51.152  0.00  0.00     0.090 A 
ATOM     10  C   UNL d   1      56.716  49.696  51.288  0.00  0.00     0.020 A 
ATOM     11  C   UNL d   1      57.809  49.697  50.378  0.00  0.00     0.050 A 
ATOM     12  C   UNL d   1      56.179  49.702  50.659  0.00  0.00     0.002 A 
ATOM     13  C   UNL d   1      56.470  49.707  49.898  0.00  0.00     0.001 A 
ATOM     14  C   UNL d   1      57.282  49.704  49.750  0.00  0.00     0.008 A 
ATOM     15  S   UNL d   1      58.630  49.694  50.408  0.00  0.00    -0.047 SA
ENDBRANCH   1   7
BRANCH   2  16
ATOM     16  N   UNL d   1      60.474  49.624  50.338  0.00  0.00    -0.189 NA
ATOM     17  C   UNL d   1      61.239  49.652  50.073  0.00  0.00     0.281 C 
ATOM     18  O   UNL d   1      61.385  49.623  49.258  0.00  0.00    -0.265 OA
ATOM     19  C   UNL d   1      61.874  49.708  50.586  0.00  0.00     0.068 C 
ENDBRANCH   2  16
TORSDOF 2
ENDMDL
