MODEL 1
REMARK VINA RESULT:       6.2      0.000      0.000
REMARK  4 active torsions:
REMARK  status: ('A' for Active; 'I' for Inactive)
REMARK    1  A    between atoms: C_2  and  C_1 
REMARK       I    between atoms: N_3  and  C_1 
REMARK    2  A    between atoms: C_14  and  N_3 
REMARK    3  A    between atoms: C_6  and  S_7 
REMARK    4  A    between atoms: S_7  and  C_15 
ROOT
ATOM      1  C   UNL d   1     -41.799-123.183 -48.942  0.00  0.00     0.279 C 
ATOM      2  N   UNL d   1     -41.123-123.172 -49.410  0.00  0.00    -0.208 NA
ATOM      3  O   UNL d   1     -41.733-123.247 -48.116  0.00  0.00    -0.265 OA
ENDROOT
BRANCH   1   4
ATOM      4  C   UNL d   1     -42.547-123.130 -49.291  0.00  0.00     0.059 A 
ATOM      5  C   UNL d   1     -42.853-122.386 -49.500  0.00  0.00     0.025 A 
ATOM      6  C   UNL d   1     -43.606-122.339 -49.851  0.00  0.00     0.099 A 
ATOM      7  N   UNL d   1     -43.910-121.592 -50.059  0.00  0.00    -0.241 NA
ATOM      8  C   UNL d   1     -44.047-123.020 -49.991  0.00  0.00     0.099 A 
ATOM      9  C   UNL d   1     -44.660-121.543 -50.409  0.00  0.00     0.120 A 
ATOM     10  C   UNL d   1     -45.104-122.237 -50.549  0.00  0.00     0.120 A 
ATOM     11  N   UNL d   1     -44.791-122.970 -50.338  0.00  0.00    -0.241 NA
ATOM     12  C   UNL d   1     -43.741-123.759 -49.782  0.00  0.00     0.021 A 
ATOM     13  C   UNL d   1     -42.992-123.817 -49.432  0.00  0.00     0.006 A 
ENDBRANCH   1   4
BRANCH   2  14
ATOM     14  C   UNL d   1     -41.191-123.108 -50.229  0.00  0.00     0.085 A 
ATOM     15  C   UNL d   1     -41.237-123.790 -50.688  0.00  0.00     0.020 A 
ATOM     16  C   UNL d   1     -41.305-123.729 -51.505  0.00  0.00     0.008 A 
ATOM     17  C   UNL d   1     -41.326-122.985 -51.862  0.00  0.00     0.034 A 
ATOM     18  C   UNL d   1     -41.279-122.308 -51.397  0.00  0.00     0.008 A 
ATOM     19  C   UNL d   1     -41.211-122.370 -50.581  0.00  0.00     0.020 A 
BRANCH  17  20
ATOM     20  S   UNL d   1     -41.394-122.924 -52.679  0.00  0.00    -0.028 SA
BRANCH  20  21
ATOM     21  C   UNL d   1     -41.462-122.864 -53.495  0.00  0.00     0.309 C 
ATOM     22  F   UNL d   1     -41.131-123.445 -53.977  0.00  0.00    -0.165 F 
ATOM     23  F   UNL d   1     -41.860-122.227 -53.828  0.00  0.00    -0.165 F 
ENDBRANCH  20  21
ENDBRANCH  17  20
ENDBRANCH   2  14
TORSDOF 4
ENDMDL
MODEL 2
REMARK VINA RESULT:       6.3      1.062      1.726
REMARK  4 active torsions:
REMARK  status: ('A' for Active; 'I' for Inactive)
REMARK    1  A    between atoms: C_2  and  C_1 
REMARK       I    between atoms: N_3  and  C_1 
REMARK    2  A    between atoms: C_14  and  N_3 
REMARK    3  A    between atoms: C_6  and  S_7 
REMARK    4  A    between atoms: S_7  and  C_15 
ROOT
ATOM      1  C   UNL d   1     -41.515-123.488 -50.405  0.00  0.00     0.279 C 
ATOM      2  N   UNL d   1     -41.123-123.697 -51.098  0.00  0.00    -0.208 NA
ATOM      3  O   UNL d   1     -41.278-123.814 -49.679  0.00  0.00    -0.265 OA
ENDROOT
BRANCH   1   4
ATOM      4  C   UNL d   1     -42.145-122.953 -50.429  0.00  0.00     0.059 A 
ATOM      5  C   UNL d   1     -42.921-123.225 -50.313  0.00  0.00     0.025 A 
ATOM      6  C   UNL d   1     -43.551-122.682 -50.338  0.00  0.00     0.099 A 
ATOM      7  N   UNL d   1     -44.328-122.959 -50.221  0.00  0.00    -0.241 NA
ATOM      8  C   UNL d   1     -43.411-121.883 -50.476  0.00  0.00     0.099 A 
ATOM      9  C   UNL d   1     -44.958-122.420 -50.245  0.00  0.00     0.120 A 
ATOM     10  C   UNL d   1     -44.811-121.609 -50.386  0.00  0.00     0.120 A 
ATOM     11  N   UNL d   1     -44.037-121.349 -50.500  0.00  0.00    -0.241 NA
ATOM     12  C   UNL d   1     -42.639-121.614 -50.591  0.00  0.00     0.021 A 
ATOM     13  C   UNL d   1     -42.004-122.146 -50.568  0.00  0.00     0.006 A 
ENDBRANCH   1   4
BRANCH   2  14
ATOM     14  C   UNL d   1     -41.360-123.372 -51.818  0.00  0.00     0.085 A 
ATOM     15  C   UNL d   1     -41.124-122.609 -52.017  0.00  0.00     0.020 A 
ATOM     16  C   UNL d   1     -41.359-122.282 -52.734  0.00  0.00     0.008 A 
ATOM     17  C   UNL d   1     -41.829-122.720 -53.252  0.00  0.00     0.034 A 
ATOM     18  C   UNL d   1     -42.061-123.483 -53.046  0.00  0.00     0.008 A 
ATOM     19  C   UNL d   1     -41.826-123.808 -52.329  0.00  0.00     0.020 A 
BRANCH  17  20
ATOM     20  S   UNL d   1     -42.064-122.394 -53.968  0.00  0.00    -0.028 SA
BRANCH  20  21
ATOM     21  C   UNL d   1     -42.299-122.068 -54.685  0.00  0.00     0.309 C 
ATOM     22  F   UNL d   1     -42.961-121.579 -54.714  0.00  0.00    -0.165 F 
ATOM     23  F   UNL d   1     -41.874-122.232 -55.368  0.00  0.00    -0.165 F 
ENDBRANCH  20  21
ENDBRANCH  17  20
ENDBRANCH   2  14
TORSDOF 4
ENDMDL
MODEL 3
REMARK VINA RESULT:       8.7      2.879      3.914
REMARK  4 active torsions:
REMARK  status: ('A' for Active; 'I' for Inactive)
REMARK    1  A    between atoms: C_2  and  C_1 
REMARK       I    between atoms: N_3  and  C_1 
REMARK    2  A    between atoms: C_14  and  N_3 
REMARK    3  A    between atoms: C_6  and  S_7 
REMARK    4  A    between atoms: S_7  and  C_15 
ROOT
ATOM      1  C   UNL d   1     -41.477-123.231 -51.926  0.00  0.00     0.279 C 
ATOM      2  N   UNL d   1     -41.746-123.816 -51.414  0.00  0.00    -0.208 NA
ATOM      3  O   UNL d   1     -41.293-123.420 -52.714  0.00  0.00    -0.265 OA
ENDROOT
BRANCH   1   4
ATOM      4  C   UNL d   1     -41.389-122.453 -51.660  0.00  0.00     0.059 A 
ATOM      5  C   UNL d   1     -41.463-121.822 -52.195  0.00  0.00     0.025 A 
ATOM      6  C   UNL d   1     -41.374-121.042 -51.921  0.00  0.00     0.099 A 
ATOM      7  N   UNL d   1     -41.449-120.412 -52.460  0.00  0.00    -0.241 NA
ATOM      8  C   UNL d   1     -41.212-120.892 -51.128  0.00  0.00     0.099 A 
ATOM      9  C   UNL d   1     -41.360-119.633 -52.190  0.00  0.00     0.120 A 
ATOM     10  C   UNL d   1     -41.196-119.486 -51.383  0.00  0.00     0.120 A 
ATOM     11  N   UNL d   1     -41.124-120.119 -50.860  0.00  0.00    -0.241 NA
ATOM     12  C   UNL d   1     -41.139-121.520 -50.597  0.00  0.00     0.021 A 
ATOM     13  C   UNL d   1     -41.226-122.301 -50.859  0.00  0.00     0.006 A 
ENDBRANCH   1   4
BRANCH   2  14
ATOM     14  C   UNL d   1     -41.927-123.626 -50.632  0.00  0.00     0.085 A 
ATOM     15  C   UNL d   1     -41.343-123.676 -50.055  0.00  0.00     0.020 A 
ATOM     16  C   UNL d   1     -41.521-123.488 -49.276  0.00  0.00     0.008 A 
ATOM     17  C   UNL d   1     -42.285-123.249 -49.074  0.00  0.00     0.034 A 
ATOM     18  C   UNL d   1     -42.864-123.201 -49.656  0.00  0.00     0.008 A 
ATOM     19  C   UNL d   1     -42.685-123.390 -50.435  0.00  0.00     0.020 A 
BRANCH  17  20
ATOM     20  S   UNL d   1     -42.463-123.060 -48.294  0.00  0.00    -0.028 SA
BRANCH  20  21
ATOM     21  C   UNL d   1     -42.641-122.873 -47.515  0.00  0.00     0.309 C 
ATOM     22  F   UNL d   1     -43.319-123.184 -47.164  0.00  0.00    -0.165 F 
ATOM     23  F   UNL d   1     -42.145-122.377 -47.088  0.00  0.00    -0.165 F 
ENDBRANCH  20  21
ENDBRANCH  17  20
ENDBRANCH   2  14
TORSDOF 4
ENDMDL
