MODEL 1
REMARK VINA RESULT:      -1.8      0.000      0.000
REMARK  4 active torsions:
REMARK  status: ('A' for Active; 'I' for Inactive)
REMARK    1  A    between atoms: C_10  and  C_3 
REMARK    2  A    between atoms: N_11  and  C_4 
REMARK    3  A    between atoms: C_14  and  N_11 
REMARK    4  A    between atoms: C_15  and  C_14 
ROOT
ATOM      1  C   UNL d   1      59.001  -9.804  30.102  0.00  0.00     0.150 A 
ATOM      2  N   UNL d   1      59.069  -9.810  30.929  0.00  0.00    -0.275 N 
ATOM      3  C   UNL d   1      59.671  -9.799  29.640  0.00  0.00     0.056 A 
ATOM      4  C   UNL d   1      59.809  -9.811  31.269  0.00  0.00     0.149 A 
ATOM      5  N   UNL d   1      58.274  -9.802  29.746  0.00  0.00    -0.227 NA
ATOM      6  C   UNL d   1      60.416  -9.800  29.995  0.00  0.00     0.007 A 
ATOM      7  C   UNL d   1      60.482  -9.807  30.802  0.00  0.00     0.038 A 
ATOM      8  C   UNL d   1      57.658  -9.813  31.036  0.00  0.00     0.084 A 
ATOM      9  C   UNL d   1      57.594  -9.807  30.213  0.00  0.00     0.099 A 
ATOM     10  C   UNL d   1      61.086  -9.796  29.528  0.00  0.00     0.000 C 
ATOM     11  C   UNL d   1      56.983  -9.818  31.496  0.00  0.00     0.019 A 
ATOM     12  C   UNL d   1      56.850  -9.806  29.874  0.00  0.00     0.021 A 
ATOM     13  C   UNL d   1      56.247  -9.817  31.155  0.00  0.00     0.002 A 
ATOM     14  C   UNL d   1      56.175  -9.810  30.333  0.00  0.00     0.002 A 
ENDROOT
BRANCH   4  15
ATOM     15  N   UNL d   1      59.866  -9.818  32.118  0.00  0.00    -0.225 NA
BRANCH  15  16
ATOM     16  C   UNL d   1      60.545  -9.472  32.507  0.00  0.00     0.120 C 
BRANCH  16  17
ATOM     17  C   UNL d   1      60.530  -9.325  33.345  0.00  0.00     0.101 A 
ATOM     18  N   UNL d   1      61.044  -8.718  33.678  0.00  0.00    -0.242 NA
ATOM     19  C   UNL d   1      61.029  -8.570  34.517  0.00  0.00     0.099 A 
ATOM     20  C   UNL d   1      60.508  -9.023  35.026  0.00  0.00     0.021 A 
ATOM     21  C   UNL d   1      59.990  -9.636  34.687  0.00  0.00     0.003 A 
ATOM     22  C   UNL d   1      60.011  -9.776  33.847  0.00  0.00     0.021 A 
ENDBRANCH  16  17
ENDBRANCH  15  16
ENDBRANCH   4  15
BRANCH   3  23
ATOM     23  C   UNL d   1      59.608  -9.793  28.832  0.00  0.00     0.125 C 
ATOM     24  N   UNL d   1      59.571  -9.052  28.461  0.00  0.00    -0.146 N 
ENDBRANCH   3  23
TORSDOF 4
ENDMDL
