MODEL 1
REMARK VINA RESULT:      -3.5      0.000      0.000
REMARK  2 active torsions:
REMARK  status: ('A' for Active; 'I' for Inactive)
REMARK    1  A    between atoms: C_6  and  N_1 
REMARK    2  A    between atoms: C_7  and  C_6 
ROOT
ATOM      1  N   UNL d   1      30.345  16.751 -24.388  0.00  0.00    -0.287 N 
ATOM      2  N   UNL d   1      29.204  17.375 -24.605  0.00  0.00    -0.224 NA
ATOM      3  C   UNL d   1      30.007  17.375 -24.799  0.00  0.00     0.183 A 
ATOM      4  C   UNL d   1      29.777  16.376 -23.955  0.00  0.00     0.083 A 
ATOM      5  C   UNL d   1      29.063  16.767 -24.090  0.00  0.00     0.099 A 
ATOM      6  C   UNL d   1      29.801  15.727 -23.448  0.00  0.00     0.019 A 
ATOM      7  C   UNL d   1      28.374  16.508 -23.719  0.00  0.00     0.021 A 
ATOM      8  C   UNL d   1      29.112  15.467 -23.076  0.00  0.00     0.002 A 
ATOM      9  C   UNL d   1      28.398  15.857 -23.211  0.00  0.00     0.002 A 
ENDROOT
BRANCH   1  10
ATOM     10  C   UNL d   1      31.161  16.671 -24.522  0.00  0.00     0.082 C 
BRANCH  10  11
ATOM     11  C   UNL d   1      31.677  17.244 -24.252  0.00  0.00     0.018 A 
ATOM     12  C   UNL d   1      32.030  17.159 -23.512  0.00  0.00     0.002 A 
ATOM     13  C   UNL d   1      32.552  17.734 -23.234  0.00  0.00     0.011 A 
ATOM     14  C   UNL d   1      32.721  18.395 -23.698  0.00  0.00     0.058 A 
ATOM     15  C   UNL d   1      32.362  18.457 -24.422  0.00  0.00     0.011 A 
ATOM     16 CL   UNL d   1      33.240  18.949 -23.401  0.00  0.00    -0.082 Cl
ATOM     17  C   UNL d   1      31.846  17.905 -24.715  0.00  0.00     0.002 A 
ENDBRANCH  10  11
ENDBRANCH   1  10
TORSDOF 2
ENDMDL
MODEL 2
REMARK VINA RESULT:      -3.3      1.635      3.760
REMARK  2 active torsions:
REMARK  status: ('A' for Active; 'I' for Inactive)
REMARK    1  A    between atoms: C_6  and  N_1 
REMARK    2  A    between atoms: C_7  and  C_6 
ROOT
ATOM      1  N   UNL d   1      31.532  17.044 -24.299  0.00  0.00    -0.287 N 
ATOM      2  N   UNL d   1      32.338  17.181 -23.264  0.00  0.00    -0.224 NA
ATOM      3  C   UNL d   1      31.733  16.712 -23.576  0.00  0.00     0.183 A 
ATOM      4  C   UNL d   1      31.991  17.693 -24.433  0.00  0.00     0.083 A 
ATOM      5  C   UNL d   1      32.495  17.779 -23.786  0.00  0.00     0.099 A 
ATOM      6  C   UNL d   1      32.028  18.229 -25.058  0.00  0.00     0.019 A 
ATOM      7  C   UNL d   1      33.036  18.401 -23.764  0.00  0.00     0.021 A 
ATOM      8  C   UNL d   1      32.569  18.852 -25.037  0.00  0.00     0.002 A 
ATOM      9  C   UNL d   1      33.073  18.938 -24.390  0.00  0.00     0.002 A 
ENDROOT
BRANCH   1  10
ATOM     10  C   UNL d   1      30.924  16.635 -24.691  0.00  0.00     0.082 C 
BRANCH  10  11
ATOM     11  C   UNL d   1      30.177  16.602 -24.364  0.00  0.00     0.018 A 
ATOM     12  C   UNL d   1      29.621  17.179 -24.556  0.00  0.00     0.002 A 
ATOM     13  C   UNL d   1      28.864  17.150 -24.227  0.00  0.00     0.011 A 
ATOM     14  C   UNL d   1      28.664  16.542 -23.706  0.00  0.00     0.058 A 
ATOM     15  C   UNL d   1      29.229  15.986 -23.533  0.00  0.00     0.011 A 
ATOM     16 CL   UNL d   1      27.911  16.536 -23.396  0.00  0.00    -0.082 Cl
ATOM     17  C   UNL d   1      29.977  15.994 -23.843  0.00  0.00     0.002 A 
ENDBRANCH  10  11
ENDBRANCH   1  10
TORSDOF 2
ENDMDL
MODEL 3
REMARK VINA RESULT:      -2.8      1.485      2.393
REMARK  2 active torsions:
REMARK  status: ('A' for Active; 'I' for Inactive)
REMARK    1  A    between atoms: C_6  and  N_1 
REMARK    2  A    between atoms: C_7  and  C_6 
ROOT
ATOM      1  N   UNL d   1      32.400  17.703 -24.035  0.00  0.00    -0.287 N 
ATOM      2  N   UNL d   1      31.279  17.844 -24.715  0.00  0.00    -0.224 NA
ATOM      3  C   UNL d   1      31.982  18.225 -24.510  0.00  0.00     0.183 A 
ATOM      4  C   UNL d   1      31.976  17.023 -23.947  0.00  0.00     0.083 A 
ATOM      5  C   UNL d   1      31.274  17.111 -24.372  0.00  0.00     0.099 A 
ATOM      6  C   UNL d   1      32.123  16.323 -23.536  0.00  0.00     0.019 A 
ATOM      7  C   UNL d   1      30.721  16.500 -24.387  0.00  0.00     0.021 A 
ATOM      8  C   UNL d   1      31.570  15.711 -23.551  0.00  0.00     0.002 A 
ATOM      9  C   UNL d   1      30.869  15.799 -23.976  0.00  0.00     0.002 A 
ENDROOT
BRANCH   1  10
ATOM     10  C   UNL d   1      33.131  18.004 -23.777  0.00  0.00     0.082 C 
BRANCH  10  11
ATOM     11  C   UNL d   1      33.156  18.689 -23.333  0.00  0.00     0.018 A 
ATOM     12  C   UNL d   1      33.215  19.419 -23.711  0.00  0.00     0.002 A 
ATOM     13  C   UNL d   1      33.241  20.114 -23.267  0.00  0.00     0.011 A 
ATOM     14  C   UNL d   1      33.208  20.078 -22.443  0.00  0.00     0.058 A 
ATOM     15  C   UNL d   1      33.150  19.348 -22.094  0.00  0.00     0.011 A 
ATOM     16 CL   UNL d   1      33.235  20.778 -22.028  0.00  0.00    -0.082 Cl
ATOM     17  C   UNL d   1      33.123  18.653 -22.509  0.00  0.00     0.002 A 
ENDBRANCH  10  11
ENDBRANCH   1  10
TORSDOF 2
ENDMDL
MODEL 4
REMARK VINA RESULT:      -2.6      2.354      4.431
REMARK  2 active torsions:
REMARK  status: ('A' for Active; 'I' for Inactive)
REMARK    1  A    between atoms: C_6  and  N_1 
REMARK    2  A    between atoms: C_7  and  C_6 
ROOT
ATOM      1  N   UNL d   1      33.234  18.966 -23.139  0.00  0.00    -0.287 N 
ATOM      2  N   UNL d   1      33.233  19.137 -21.831  0.00  0.00    -0.224 NA
ATOM      3  C   UNL d   1      33.234  18.562 -22.424  0.00  0.00     0.183 A 
ATOM      4  C   UNL d   1      33.233  19.760 -22.997  0.00  0.00     0.083 A 
ATOM      5  C   UNL d   1      33.233  19.867 -22.179  0.00  0.00     0.099 A 
ATOM      6  C   UNL d   1      33.232  20.415 -23.498  0.00  0.00     0.019 A 
ATOM      7  C   UNL d   1      33.232  20.628 -21.862  0.00  0.00     0.021 A 
ATOM      8  C   UNL d   1      33.232  21.177 -23.182  0.00  0.00     0.002 A 
ATOM      9  C   UNL d   1      33.232  21.284 -22.364  0.00  0.00     0.002 A 
ENDROOT
BRANCH   1  10
ATOM     10  C   UNL d   1      33.234  18.464 -23.801  0.00  0.00     0.082 C 
BRANCH  10  11
ATOM     11  C   UNL d   1      32.627  17.929 -23.908  0.00  0.00     0.018 A 
ATOM     12  C   UNL d   1      31.994  18.121 -24.400  0.00  0.00     0.002 A 
ATOM     13  C   UNL d   1      31.378  17.583 -24.511  0.00  0.00     0.011 A 
ATOM     14  C   UNL d   1      31.396  16.852 -24.129  0.00  0.00     0.058 A 
ATOM     15  C   UNL d   1      32.029  16.686 -23.650  0.00  0.00     0.011 A 
ATOM     16 CL   UNL d   1      30.776  16.339 -24.255  0.00  0.00    -0.082 Cl
ATOM     17  C   UNL d   1      32.645  17.198 -23.526  0.00  0.00     0.002 A 
ENDBRANCH  10  11
ENDBRANCH   1  10
TORSDOF 2
ENDMDL
MODEL 5
REMARK VINA RESULT:      -2.0      3.041      4.781
REMARK  2 active torsions:
REMARK  status: ('A' for Active; 'I' for Inactive)
REMARK    1  A    between atoms: C_6  and  N_1 
REMARK    2  A    between atoms: C_7  and  C_6 
ROOT
ATOM      1  N   UNL d   1      33.107  20.106 -22.394  0.00  0.00    -0.287 N 
ATOM      2  N   UNL d   1      33.084  21.298 -22.958  0.00  0.00    -0.224 NA
ATOM      3  C   UNL d   1      33.241  20.500 -23.101  0.00  0.00     0.183 A 
ATOM      4  C   UNL d   1      32.877  20.637 -21.832  0.00  0.00     0.083 A 
ATOM      5  C   UNL d   1      32.863  21.383 -22.184  0.00  0.00     0.099 A 
ATOM      6  C   UNL d   1      32.674  20.553 -21.037  0.00  0.00     0.019 A 
ATOM      7  C   UNL d   1      32.646  22.044 -21.743  0.00  0.00     0.021 A 
ATOM      8  C   UNL d   1      32.457  21.215 -20.594  0.00  0.00     0.002 A 
ATOM      9  C   UNL d   1      32.442  21.960 -20.947  0.00  0.00     0.002 A 
ENDROOT
BRANCH   1  10
ATOM     10  C   UNL d   1      33.241  19.287 -22.442  0.00  0.00     0.082 C 
BRANCH  10  11
ATOM     11  C   UNL d   1      32.854  18.843 -23.008  0.00  0.00     0.018 A 
ATOM     12  C   UNL d   1      33.228  18.680 -23.724  0.00  0.00     0.002 A 
ATOM     13  C   UNL d   1      32.841  18.232 -24.299  0.00  0.00     0.011 A 
ATOM     14  C   UNL d   1      32.081  17.947 -24.157  0.00  0.00     0.058 A 
ATOM     15  C   UNL d   1      31.734  18.120 -23.444  0.00  0.00     0.011 A 
ATOM     16 CL   UNL d   1      31.721  17.507 -24.740  0.00  0.00    -0.082 Cl
ATOM     17  C   UNL d   1      32.093  18.558 -22.865  0.00  0.00     0.002 A 
ENDBRANCH  10  11
ENDBRANCH   1  10
TORSDOF 2
ENDMDL
MODEL 6
REMARK VINA RESULT:      -1.3      6.967      8.317
REMARK  2 active torsions:
REMARK  status: ('A' for Active; 'I' for Inactive)
REMARK    1  A    between atoms: C_6  and  N_1 
REMARK    2  A    between atoms: C_7  and  C_6 
ROOT
ATOM      1  N   UNL d   1      32.791  23.143 -19.588  0.00  0.00    -0.287 N 
ATOM      2  N   UNL d   1      33.195  21.973 -20.041  0.00  0.00    -0.224 NA
ATOM      3  C   UNL d   1      33.196  22.462 -19.376  0.00  0.00     0.183 A 
ATOM      4  C   UNL d   1      32.547  23.082 -20.354  0.00  0.00     0.083 A 
ATOM      5  C   UNL d   1      32.800  22.350 -20.638  0.00  0.00     0.099 A 
ATOM      6  C   UNL d   1      32.125  23.591 -20.847  0.00  0.00     0.019 A 
ATOM      7  C   UNL d   1      32.631  22.126 -21.414  0.00  0.00     0.021 A 
ATOM      8  C   UNL d   1      31.955  23.369 -21.623  0.00  0.00     0.002 A 
ATOM      9  C   UNL d   1      32.208  22.636 -21.906  0.00  0.00     0.002 A 
ENDROOT
BRANCH   1  10
ATOM     10  C   UNL d   1      32.740  23.702 -18.974  0.00  0.00     0.082 C 
BRANCH  10  11
ATOM     11  C   UNL d   1      32.671  23.452 -18.200  0.00  0.00     0.018 A 
ATOM     12  C   UNL d   1      32.029  23.699 -17.746  0.00  0.00     0.002 A 
ATOM     13  C   UNL d   1      31.955  23.449 -16.963  0.00  0.00     0.011 A 
ATOM     14  C   UNL d   1      32.525  22.951 -16.634  0.00  0.00     0.058 A 
ATOM     15  C   UNL d   1      33.148  22.721 -17.101  0.00  0.00     0.011 A 
ATOM     16 CL   UNL d   1      32.429  22.719 -15.860  0.00  0.00    -0.082 Cl
ATOM     17  C   UNL d   1      33.241  22.954 -17.871  0.00  0.00     0.002 A 
ENDBRANCH  10  11
ENDBRANCH   1  10
TORSDOF 2
ENDMDL
MODEL 7
REMARK VINA RESULT:      -0.9      2.967      4.111
REMARK  2 active torsions:
REMARK  status: ('A' for Active; 'I' for Inactive)
REMARK    1  A    between atoms: C_6  and  N_1 
REMARK    2  A    between atoms: C_7  and  C_6 
ROOT
ATOM      1  N   UNL d   1      32.953  19.303 -22.955  0.00  0.00    -0.287 N 
ATOM      2  N   UNL d   1      32.381  19.493 -24.128  0.00  0.00    -0.224 NA
ATOM      3  C   UNL d   1      32.632  19.879 -23.442  0.00  0.00     0.183 A 
ATOM      4  C   UNL d   1      32.904  18.585 -23.320  0.00  0.00     0.083 A 
ATOM      5  C   UNL d   1      32.547  18.704 -24.054  0.00  0.00     0.099 A 
ATOM      6  C   UNL d   1      33.136  17.828 -23.093  0.00  0.00     0.019 A 
ATOM      7  C   UNL d   1      32.421  18.065 -24.561  0.00  0.00     0.021 A 
ATOM      8  C   UNL d   1      33.010  17.188 -23.598  0.00  0.00     0.002 A 
ATOM      9  C   UNL d   1      32.653  17.307 -24.332  0.00  0.00     0.002 A 
ENDROOT
BRANCH   1  10
ATOM     10  C   UNL d   1      33.235  19.601 -22.232  0.00  0.00     0.082 C 
BRANCH  10  11
ATOM     11  C   UNL d   1      32.987  20.333 -21.968  0.00  0.00     0.018 A 
ATOM     12  C   UNL d   1      32.482  20.384 -21.319  0.00  0.00     0.002 A 
ATOM     13  C   UNL d   1      32.229  21.122 -21.049  0.00  0.00     0.011 A 
ATOM     14  C   UNL d   1      32.482  21.809 -21.429  0.00  0.00     0.058 A 
ATOM     15  C   UNL d   1      32.978  21.733 -22.066  0.00  0.00     0.011 A 
ATOM     16 CL   UNL d   1      32.217  22.524 -21.143  0.00  0.00    -0.082 Cl
ATOM     17  C   UNL d   1      33.240  21.020 -22.349  0.00  0.00     0.002 A 
ENDBRANCH  10  11
ENDBRANCH   1  10
TORSDOF 2
ENDMDL
