MODEL 1
REMARK VINA RESULT:     -13.0      0.000      0.000
REMARK  1 active torsions:
REMARK  status: ('A' for Active; 'I' for Inactive)
REMARK    1  A    between atoms: C_13  and  C_7 
ROOT
ATOM      1  C   UNL d   1      52.082  32.735  52.910  0.00  0.00     0.120 A 
ATOM      2  C   UNL d   1      52.678  33.068  53.373  0.00  0.00     0.058 A 
ATOM      3  N   UNL d   1      51.570  33.342  52.689  0.00  0.00    -0.195 NA
ATOM      4  S   UNL d   1      52.084  31.934  52.754  0.00  0.00    -0.072 SA
ATOM      5  C   UNL d   1      52.678  31.461  53.057  0.00  0.00     0.009 A 
ATOM      6  C   UNL d   1      53.277  31.791  53.521  0.00  0.00    -0.015 A 
ATOM      7  C   UNL d   1      53.273  32.595  53.676  0.00  0.00     0.005 A 
ATOM      8  C   UNL d   1      51.848  34.051  53.014  0.00  0.00     0.311 A 
ATOM      9  S   UNL d   1      52.538  33.873  53.438  0.00  0.00    -0.024 SA
ATOM     10  C   UNL d   1      53.877  31.312  53.826  0.00  0.00     0.045 A 
ATOM     11  C   UNL d   1      52.679  30.651  52.898  0.00  0.00     0.050 A 
ATOM     12  C   UNL d   1      53.147  31.187  53.315  0.00  0.00     0.018 A 
ATOM     13  O   UNL d   1      51.504  34.799  52.932  0.00  0.00    -0.258 OA
ATOM     14  C   UNL d   1      53.878  30.502  53.667  0.00  0.00    -0.026 A 
ATOM     15  C   UNL d   1      53.279  30.172  53.203  0.00  0.00    -0.026 A 
ENDROOT
BRANCH   7  16
ATOM     16  C   UNL d   1      53.866  32.926  54.136  0.00  0.00     0.001 A 
ATOM     17  C   UNL d   1      53.766  32.987  54.958  0.00  0.00     0.003 A 
ATOM     18  C   UNL d   1      54.357  33.316  55.415  0.00  0.00     0.042 A 
ATOM     19  C   UNL d   1      55.059  33.591  55.063  0.00  0.00     0.196 A 
ATOM     20  C   UNL d   1      55.149  33.525  54.239  0.00  0.00     0.042 A 
ATOM     21  O   UNL d   1      55.655  33.923  55.526  0.00  0.00    -0.287 OA
ATOM     22  C   UNL d   1      54.554  33.194  53.785  0.00  0.00     0.003 A 
ENDBRANCH   7  16
TORSDOF 1
ENDMDL
MODEL 2
REMARK VINA RESULT:     -13.0      1.335      2.457
REMARK  1 active torsions:
REMARK  status: ('A' for Active; 'I' for Inactive)
REMARK    1  A    between atoms: C_13  and  C_7 
ROOT
ATOM      1  C   UNL d   1      52.576  31.717  53.010  0.00  0.00     0.120 A 
ATOM      2  C   UNL d   1      53.185  31.997  53.490  0.00  0.00     0.058 A 
ATOM      3  N   UNL d   1      52.660  30.900  52.950  0.00  0.00    -0.195 NA
ATOM      4  S   UNL d   1      52.031  32.238  52.695  0.00  0.00    -0.072 SA
ATOM      5  C   UNL d   1      52.091  33.037  52.856  0.00  0.00     0.009 A 
ATOM      6  C   UNL d   1      52.700  33.321  53.336  0.00  0.00    -0.015 A 
ATOM      7  C   UNL d   1      53.245  32.797  53.650  0.00  0.00     0.005 A 
ATOM      8  C   UNL d   1      53.322  30.672  53.393  0.00  0.00     0.311 A 
ATOM      9  S   UNL d   1      53.644  31.360  53.725  0.00  0.00    -0.024 SA
ATOM     10  C   UNL d   1      52.759  34.129  53.497  0.00  0.00     0.045 A 
ATOM     11  C   UNL d   1      51.539  33.562  52.536  0.00  0.00     0.050 A 
ATOM     12  C   UNL d   1      52.204  33.604  53.021  0.00  0.00     0.018 A 
ATOM     13  O   UNL d   1      53.611  29.903  53.487  0.00  0.00    -0.258 OA
ATOM     14  C   UNL d   1      52.207  34.654  53.178  0.00  0.00    -0.026 A 
ATOM     15  C   UNL d   1      51.598  34.370  52.698  0.00  0.00    -0.026 A 
ENDROOT
BRANCH   7  16
ATOM     16  C   UNL d   1      53.851  33.076  54.128  0.00  0.00     0.001 A 
ATOM     17  C   UNL d   1      53.732  33.149  54.946  0.00  0.00     0.003 A 
ATOM     18  C   UNL d   1      54.337  33.426  55.420  0.00  0.00     0.042 A 
ATOM     19  C   UNL d   1      55.071  33.636  55.089  0.00  0.00     0.196 A 
ATOM     20  C   UNL d   1      55.179  33.560  54.269  0.00  0.00     0.042 A 
ATOM     21  O   UNL d   1      55.679  33.916  55.569  0.00  0.00    -0.287 OA
ATOM     22  C   UNL d   1      54.571  33.281  53.797  0.00  0.00     0.003 A 
ENDBRANCH   7  16
TORSDOF 1
ENDMDL
MODEL 3
REMARK VINA RESULT:     -12.5      1.620      3.411
REMARK  1 active torsions:
REMARK  status: ('A' for Active; 'I' for Inactive)
REMARK    1  A    between atoms: C_13  and  C_7 
ROOT
ATOM      1  C   UNL d   1      53.563  31.766  53.705  0.00  0.00     0.120 A 
ATOM      2  C   UNL d   1      52.916  32.155  53.373  0.00  0.00     0.058 A 
ATOM      3  N   UNL d   1      53.575  30.999  53.404  0.00  0.00    -0.195 NA
ATOM      4  S   UNL d   1      54.050  32.158  54.230  0.00  0.00    -0.072 SA
ATOM      5  C   UNL d   1      53.895  32.937  54.427  0.00  0.00     0.009 A 
ATOM      6  C   UNL d   1      53.248  33.329  54.097  0.00  0.00    -0.015 A 
ATOM      7  C   UNL d   1      52.761  32.933  53.571  0.00  0.00     0.005 A 
ATOM      8  C   UNL d   1      52.935  30.911  52.886  0.00  0.00     0.311 A 
ATOM      9  S   UNL d   1      52.529  31.634  52.872  0.00  0.00    -0.024 SA
ATOM     10  C   UNL d   1      53.093  34.115  54.297  0.00  0.00     0.045 A 
ATOM     11  C   UNL d   1      54.389  33.331  54.958  0.00  0.00     0.050 A 
ATOM     12  C   UNL d   1      53.714  33.502  54.518  0.00  0.00     0.018 A 
ATOM     13  O   UNL d   1      52.735  30.230  52.461  0.00  0.00    -0.258 OA
ATOM     14  C   UNL d   1      53.586  34.509  54.828  0.00  0.00    -0.026 A 
ATOM     15  C   UNL d   1      54.234  34.117  55.159  0.00  0.00    -0.026 A 
ENDROOT
BRANCH   7  16
ATOM     16  C   UNL d   1      52.116  33.320  53.241  0.00  0.00     0.001 A 
ATOM     17  C   UNL d   1      51.367  33.245  53.591  0.00  0.00     0.003 A 
ATOM     18  C   UNL d   1      50.726  33.631  53.262  0.00  0.00     0.042 A 
ATOM     19  C   UNL d   1      50.819  34.097  52.578  0.00  0.00     0.196 A 
ATOM     20  C   UNL d   1      51.574  34.165  52.237  0.00  0.00     0.042 A 
ATOM     21  O   UNL d   1      50.171  34.485  52.248  0.00  0.00    -0.287 OA
ATOM     22  C   UNL d   1      52.213  33.777  52.570  0.00  0.00     0.003 A 
ENDBRANCH   7  16
TORSDOF 1
ENDMDL
MODEL 4
REMARK VINA RESULT:     -12.4      1.293      2.859
REMARK  1 active torsions:
REMARK  status: ('A' for Active; 'I' for Inactive)
REMARK    1  A    between atoms: C_13  and  C_7 
ROOT
ATOM      1  C   UNL d   1      53.785  33.097  54.514  0.00  0.00     0.120 A 
ATOM      2  C   UNL d   1      53.142  33.446  54.133  0.00  0.00     0.058 A 
ATOM      3  N   UNL d   1      54.113  33.660  55.018  0.00  0.00    -0.195 NA
ATOM      4  S   UNL d   1      53.984  32.322  54.352  0.00  0.00    -0.072 SA
ATOM      5  C   UNL d   1      53.545  31.892  53.813  0.00  0.00     0.009 A 
ATOM      6  C   UNL d   1      52.901  32.238  53.430  0.00  0.00    -0.015 A 
ATOM      7  C   UNL d   1      52.703  33.016  53.594  0.00  0.00     0.005 A 
ATOM      8  C   UNL d   1      53.673  34.359  54.951  0.00  0.00     0.311 A 
ATOM      9  S   UNL d   1      53.071  34.218  54.399  0.00  0.00    -0.024 SA
ATOM     10  C   UNL d   1      52.458  31.802  52.885  0.00  0.00     0.045 A 
ATOM     11  C   UNL d   1      53.748  31.108  53.651  0.00  0.00     0.050 A 
ATOM     12  C   UNL d   1      53.175  31.648  53.407  0.00  0.00     0.018 A 
ATOM     13  O   UNL d   1      53.807  35.067  55.357  0.00  0.00    -0.258 OA
ATOM     14  C   UNL d   1      52.661  31.019  52.723  0.00  0.00    -0.026 A 
ATOM     15  C   UNL d   1      53.306  30.672  53.106  0.00  0.00    -0.026 A 
ENDROOT
BRANCH   7  16
ATOM     16  C   UNL d   1      52.063  33.363  53.215  0.00  0.00     0.001 A 
ATOM     17  C   UNL d   1      51.302  33.290  53.539  0.00  0.00     0.003 A 
ATOM     18  C   UNL d   1      50.665  33.636  53.162  0.00  0.00     0.042 A 
ATOM     19  C   UNL d   1      50.775  34.061  52.454  0.00  0.00     0.196 A 
ATOM     20  C   UNL d   1      51.540  34.128  52.138  0.00  0.00     0.042 A 
ATOM     21  O   UNL d   1      50.131  34.409  52.075  0.00  0.00    -0.287 OA
ATOM     22  C   UNL d   1      52.175  33.780  52.520  0.00  0.00     0.003 A 
ENDBRANCH   7  16
TORSDOF 1
ENDMDL
MODEL 5
REMARK VINA RESULT:     -11.5      1.631      3.210
REMARK  1 active torsions:
REMARK  status: ('A' for Active; 'I' for Inactive)
REMARK    1  A    between atoms: C_13  and  C_7 
ROOT
ATOM      1  C   UNL d   1      53.667  34.282  54.485  0.00  0.00     0.120 A 
ATOM      2  C   UNL d   1      53.771  33.474  54.355  0.00  0.00     0.058 A 
ATOM      3  N   UNL d   1      54.269  34.533  54.988  0.00  0.00    -0.195 NA
ATOM      4  S   UNL d   1      53.046  34.676  54.132  0.00  0.00    -0.072 SA
ATOM      5  C   UNL d   1      52.526  34.270  53.649  0.00  0.00     0.009 A 
ATOM      6  C   UNL d   1      52.626  33.460  53.517  0.00  0.00    -0.015 A 
ATOM      7  C   UNL d   1      53.251  33.067  53.872  0.00  0.00     0.005 A 
ATOM      8  C   UNL d   1      54.747  33.882  55.171  0.00  0.00     0.311 A 
ATOM      9  S   UNL d   1      54.431  33.226  54.773  0.00  0.00    -0.024 SA
ATOM     10  C   UNL d   1      52.100  33.051  53.030  0.00  0.00     0.045 A 
ATOM     11  C   UNL d   1      51.898  34.670  53.293  0.00  0.00     0.050 A 
ATOM     12  C   UNL d   1      52.192  33.901  53.313  0.00  0.00     0.018 A 
ATOM     13  O   UNL d   1      55.416  33.881  55.658  0.00  0.00    -0.258 OA
ATOM     14  C   UNL d   1      51.473  33.452  52.674  0.00  0.00    -0.026 A 
ATOM     15  C   UNL d   1      51.372  34.261  52.806  0.00  0.00    -0.026 A 
ENDROOT
BRANCH   7  16
ATOM     16  C   UNL d   1      53.354  32.263  53.743  0.00  0.00     0.001 A 
ATOM     17  C   UNL d   1      53.803  32.004  53.095  0.00  0.00     0.003 A 
ATOM     18  C   UNL d   1      53.905  31.203  52.967  0.00  0.00     0.042 A 
ATOM     19  C   UNL d   1      53.562  30.647  53.482  0.00  0.00     0.196 A 
ATOM     20  C   UNL d   1      53.114  30.917  54.128  0.00  0.00     0.042 A 
ATOM     21  O   UNL d   1      53.666  29.839  53.351  0.00  0.00    -0.287 OA
ATOM     22  C   UNL d   1      53.015  31.720  54.252  0.00  0.00     0.003 A 
ENDBRANCH   7  16
TORSDOF 1
ENDMDL
MODEL 6
REMARK VINA RESULT:     -11.4      1.495      2.797
REMARK  1 active torsions:
REMARK  status: ('A' for Active; 'I' for Inactive)
REMARK    1  A    between atoms: C_13  and  C_7 
ROOT
ATOM      1  C   UNL d   1      52.536  34.254  53.463  0.00  0.00     0.120 A 
ATOM      2  C   UNL d   1      52.507  33.455  53.259  0.00  0.00     0.058 A 
ATOM      3  N   UNL d   1      51.997  34.653  52.984  0.00  0.00    -0.195 NA
ATOM      4  S   UNL d   1      53.042  34.508  54.050  0.00  0.00    -0.072 SA
ATOM      5  C   UNL d   1      53.522  33.969  54.437  0.00  0.00     0.009 A 
ATOM      6  C   UNL d   1      53.495  33.169  54.235  0.00  0.00    -0.015 A 
ATOM      7  C   UNL d   1      52.986  32.916  53.646  0.00  0.00     0.005 A 
ATOM      8  C   UNL d   1      51.634  34.103  52.483  0.00  0.00     0.311 A 
ATOM      9  S   UNL d   1      51.956  33.360  52.660  0.00  0.00    -0.024 SA
ATOM     10  C   UNL d   1      53.979  32.626  54.627  0.00  0.00     0.045 A 
ATOM     11  C   UNL d   1      54.033  34.228  55.031  0.00  0.00     0.050 A 
ATOM     12  C   UNL d   1      53.837  33.514  54.669  0.00  0.00     0.018 A 
ATOM     13  O   UNL d   1      51.057  34.262  51.911  0.00  0.00    -0.258 OA
ATOM     14  C   UNL d   1      54.491  32.885  55.220  0.00  0.00    -0.026 A 
ATOM     15  C   UNL d   1      54.518  33.686  55.422  0.00  0.00    -0.026 A 
ENDROOT
BRANCH   7  16
ATOM     16  C   UNL d   1      52.957  32.122  53.443  0.00  0.00     0.001 A 
ATOM     17  C   UNL d   1      52.360  31.637  53.756  0.00  0.00     0.003 A 
ATOM     18  C   UNL d   1      52.332  30.846  53.554  0.00  0.00     0.042 A 
ATOM     19  C   UNL d   1      52.898  30.523  53.036  0.00  0.00     0.196 A 
ATOM     20  C   UNL d   1      53.492  31.017  52.729  0.00  0.00     0.042 A 
ATOM     21  O   UNL d   1      52.868  29.724  52.834  0.00  0.00    -0.287 OA
ATOM     22  C   UNL d   1      53.516  31.808  52.935  0.00  0.00     0.003 A 
ENDBRANCH   7  16
TORSDOF 1
ENDMDL
