MODEL 1
REMARK VINA RESULT:      40.7      0.000      0.000
REMARK  8 active torsions:
REMARK  status: ('A' for Active; 'I' for Inactive)
REMARK    1  A    between atoms: C_25  and  N_5 
REMARK    2  A    between atoms: C_11  and  C_6 
REMARK       I    between atoms: N_15  and  C_11 
REMARK    3  A    between atoms: C_26  and  N_15 
REMARK    4  A    between atoms: C_17  and  C_26 
REMARK    5  A    between atoms: C_30  and  C_25 
REMARK    6  A    between atoms: O_29  and  C_30 
REMARK    7  A    between atoms: C_32  and  O_29 
REMARK    8  A    between atoms: C_31  and  C_32 
ROOT
ATOM      1  C   UNL d   1      46.370 -18.268  42.851  0.00  0.00     0.155 A 
ATOM      2  C   UNL d   1      46.304 -17.537  42.473  0.00  0.00     0.091 A 
ATOM      3  N   UNL d   1      46.460 -18.959  42.401  0.00  0.00    -0.210 NA
ATOM      4  N   UNL d   1      46.417 -18.185  41.200  0.00  0.00    -0.258 N 
ATOM      5  N   UNL d   1      46.348 -18.314  43.667  0.00  0.00    -0.272 N 
ATOM      6  C   UNL d   1      46.192 -16.902  43.750  0.00  0.00     0.094 A 
ATOM      7  C   UNL d   1      46.484 -18.916  41.578  0.00  0.00     0.152 A 
ATOM      8  C   UNL d   1      46.327 -17.494  41.643  0.00  0.00     0.269 A 
ATOM      9  C   UNL d   1      46.258 -17.632  44.128  0.00  0.00     0.175 A 
ATOM     10  C   UNL d   1      46.214 -16.848  42.922  0.00  0.00     0.016 A 
ATOM     11  C   UNL d   1      46.573 -19.603  41.135  0.00  0.00     0.035 A 
ATOM     12  C   UNL d   1      46.439 -18.131  40.373  0.00  0.00     0.084 A 
ATOM     13  N   UNL d   1      46.235 -17.675  44.949  0.00  0.00    -0.128 N 
ATOM     14  O   UNL d   1      46.260 -16.752  41.269  0.00  0.00    -0.266 OA
ATOM     15  C   UNL d   1      46.530 -18.830  39.934  0.00  0.00     0.019 A 
ATOM     16  C   UNL d   1      46.596 -19.560  40.312  0.00  0.00     0.005 A 
ATOM     17  C   UNL d   1      46.639 -20.329  41.510  0.00  0.00     0.003 C 
ENDROOT
BRANCH   6  18
ATOM     18  C   UNL d   1      46.102 -16.208  44.205  0.00  0.00     0.282 C 
ATOM     19  N   UNL d   1      45.483 -15.690  44.038  0.00  0.00    -0.204 NA
ATOM     20  O   UNL d   1      46.632 -16.049  44.816  0.00  0.00    -0.265 OA
BRANCH  19  21
ATOM     21  C   UNL d   1      45.394 -15.004  44.488  0.00  0.00     0.127 C 
BRANCH  21  22
ATOM     22  C   UNL d   1      45.170 -14.299  44.129  0.00  0.00     0.119 A 
ATOM     23  O   UNL d   1      45.595 -13.898  43.546  0.00  0.00    -0.304 OA
ATOM     24  C   UNL d   1      45.174 -13.219  43.340  0.00  0.00     0.123 A 
ATOM     25  C   UNL d   1      44.486 -13.196  43.797  0.00  0.00     0.029 A 
ATOM     26  C   UNL d   1      44.489 -13.871  44.284  0.00  0.00     0.028 A 
ENDBRANCH  21  22
ENDBRANCH  19  21
ENDBRANCH   6  18
BRANCH   5  27
ATOM     27  C   UNL d   1      46.414 -19.045  44.044  0.00  0.00     0.110 C 
BRANCH  27  28
ATOM     28  C   UNL d   1      45.974 -19.690  43.773  0.00  0.00     0.142 C 
BRANCH  28  29
ATOM     29  O   UNL d   1      45.804 -20.322  44.277  0.00  0.00    -0.298 OA
BRANCH  29  30
ATOM     30  C   UNL d   1      45.355 -20.192  44.954  0.00  0.00     0.168 C 
BRANCH  30  31
ATOM     31  C   UNL d   1      44.537 -20.314  44.945  0.00  0.00     0.261 C 
ATOM     32  O   UNL d   1      44.131 -20.302  44.227  0.00  0.00    -0.281 OA
ENDBRANCH  30  31
ENDBRANCH  29  30
ENDBRANCH  28  29
ENDBRANCH  27  28
ENDBRANCH   5  27
TORSDOF 8
ENDMDL
