MODEL 1
REMARK VINA RESULT:      26.7      0.000      0.000
REMARK  4 active torsions:
REMARK  status: ('A' for Active; 'I' for Inactive)
REMARK    1  A    between atoms: C_10  and  C_1 
REMARK    2  A    between atoms: N_7  and  C_4 
REMARK    3  A    between atoms: N_16  and  C_9 
REMARK    4  A    between atoms: C_15  and  C_10 
ROOT
ATOM      1  C   UNL d   1     -58.308 -98.783 -44.861  0.00  0.00     0.143 A 
ATOM      2  C   UNL d   1     -58.704 -98.773 -44.133  0.00  0.00     0.086 A 
ATOM      3  C   UNL d   1     -57.484 -98.795 -44.884  0.00  0.00     0.025 A 
ATOM      4  C   UNL d   1     -58.266 -98.774 -43.430  0.00  0.00     0.019 A 
ATOM      5  C   UNL d   1     -57.058 -98.796 -44.180  0.00  0.00     0.002 A 
ATOM      6  C   UNL d   1     -57.454 -98.785 -43.452  0.00  0.00     0.002 A 
ENDROOT
BRANCH   5   7
ATOM      7  C   UNL d   1     -56.235 -98.808 -44.204  0.00  0.00     0.010 C 
BRANCH   7   8
ATOM      8  C   UNL d   1     -55.846 -99.533 -44.360  0.00  0.00     0.116 A 
ATOM      9  C   UNL d   1     -56.153-100.216 -44.034  0.00  0.00     0.288 A 
ATOM     10  N   UNL d   1     -55.776-100.934 -44.182  0.00  0.00    -0.152 NA
ATOM     11  O   UNL d   1     -56.825-100.191 -43.566  0.00  0.00    -0.265 OA
ATOM     12  C   UNL d   1     -55.097-100.959 -44.654  0.00  0.00     0.374 A 
ATOM     13  N   UNL d   1     -54.803-100.267 -44.973  0.00  0.00    -0.152 NA
ATOM     14  O   UNL d   1     -54.713-101.676 -44.808  0.00  0.00    -0.242 OA
ATOM     15  C   UNL d   1     -55.168 -99.558 -44.832  0.00  0.00     0.288 A 
ATOM     16  O   UNL d   1     -54.855 -98.860 -45.164  0.00  0.00    -0.265 OA
ENDBRANCH   7   8
ENDBRANCH   5   7
BRANCH   1  17
ATOM     17  N   UNL d   1     -58.735 -98.782 -45.557  0.00  0.00    -0.112 N 
ATOM     18  O   UNL d   1     -59.554 -98.808 -45.522  0.00  0.00    -0.532 OA
ATOM     19  O   UNL d   1     -58.333 -98.756 -46.264  0.00  0.00    -0.532 OA
ENDBRANCH   1  17
BRANCH   2  20
ATOM     20  N   UNL d   1     -59.521 -98.761 -44.114  0.00  0.00    -0.300 N 
ATOM     21  C   UNL d   1     -59.950 -98.755 -44.823  0.00  0.00     0.100 C 
ATOM     22  C   UNL d   1     -59.895 -98.756 -43.399  0.00  0.00     0.100 C 
ENDBRANCH   2  20
TORSDOF 4
ENDMDL
