MODEL 1
REMARK VINA RESULT:      -3.3      0.000      0.000
REMARK  4 active torsions:
REMARK  status: ('A' for Active; 'I' for Inactive)
REMARK    1  A    between atoms: N_2  and  S_1 
REMARK    2  A    between atoms: C_3  and  S_1 
REMARK    3  A    between atoms: C_11  and  N_2 
REMARK    4  A    between atoms: C_6  and  C_7 
ROOT
ATOM      1  S   UNL d   1      30.982  16.135 -24.120  0.00  0.00     0.285 S 
ATOM      2  O   UNL d   1      30.790  16.549 -24.807  0.00  0.00    -0.198 OA
ATOM      3  O   UNL d   1      31.175  15.721 -23.433  0.00  0.00    -0.198 OA
ENDROOT
BRANCH   1   4
ATOM      4  N   UNL d   1      31.780  16.306 -24.241  0.00  0.00    -0.158 NA
BRANCH   4   5
ATOM      5  C   UNL d   1      32.100  17.022 -23.983  0.00  0.00     0.094 A 
ATOM      6  C   UNL d   1      32.013  17.706 -24.436  0.00  0.00     0.020 A 
ATOM      7  C   UNL d   1      32.333  18.418 -24.175  0.00  0.00     0.005 A 
ATOM      8  C   UNL d   1      32.746  18.449 -23.452  0.00  0.00     0.039 A 
ATOM      9  C   UNL d   1      32.832  17.765 -22.999  0.00  0.00     0.005 A 
ATOM     10  C   UNL d   1      32.513  17.049 -23.257  0.00  0.00     0.020 A 
BRANCH   8  11
ATOM     11  C   UNL d   1      33.072  19.168 -23.182  0.00  0.00     0.196 C 
ATOM     12  O   UNL d   1      33.235  19.772 -23.717  0.00  0.00    -0.287 OA
ATOM     13  C   UNL d   1      33.237  19.284 -22.369  0.00  0.00     0.045 C 
ENDBRANCH   8  11
ENDBRANCH   4   5
ENDBRANCH   1   4
BRANCH   1  14
ATOM     14  C   UNL d   1      30.184  15.965 -23.999  0.00  0.00     0.105 A 
ATOM     15  C   UNL d   1      29.651  16.062 -24.612  0.00  0.00     0.013 A 
ATOM     16  C   UNL d   1      28.840  15.889 -24.489  0.00  0.00     0.001 A 
ATOM     17  C   UNL d   1      28.584  15.623 -23.756  0.00  0.00     0.000 A 
ATOM     18  C   UNL d   1      29.123  15.524 -23.136  0.00  0.00     0.001 A 
ATOM     19  C   UNL d   1      27.786  15.453 -23.635  0.00  0.00     0.000 C 
ATOM     20  C   UNL d   1      29.934  15.697 -23.259  0.00  0.00     0.013 A 
ENDBRANCH   1  14
TORSDOF 4
ENDMDL
MODEL 2
REMARK VINA RESULT:      -2.0      2.789      4.283
REMARK  4 active torsions:
REMARK  status: ('A' for Active; 'I' for Inactive)
REMARK    1  A    between atoms: N_2  and  S_1 
REMARK    2  A    between atoms: C_3  and  S_1 
REMARK    3  A    between atoms: C_11  and  N_2 
REMARK    4  A    between atoms: C_6  and  C_7 
ROOT
ATOM      1  S   UNL d   1      32.893  19.475 -22.570  0.00  0.00     0.285 S 
ATOM      2  O   UNL d   1      33.241  19.980 -23.122  0.00  0.00    -0.198 OA
ATOM      3  O   UNL d   1      32.544  18.970 -22.018  0.00  0.00    -0.198 OA
ENDROOT
BRANCH   1   4
ATOM      4  N   UNL d   1      33.238  19.906 -21.957  0.00  0.00    -0.158 NA
BRANCH   4   5
ATOM      5  C   UNL d   1      32.959  20.659 -21.765  0.00  0.00     0.094 A 
ATOM      6  C   UNL d   1      33.195  21.317 -22.202  0.00  0.00     0.020 A 
ATOM      7  C   UNL d   1      32.914  22.066 -22.007  0.00  0.00     0.005 A 
ATOM      8  C   UNL d   1      32.390  22.160 -21.367  0.00  0.00     0.039 A 
ATOM      9  C   UNL d   1      32.154  21.502 -20.930  0.00  0.00     0.005 A 
ATOM     10  C   UNL d   1      32.433  20.750 -21.121  0.00  0.00     0.020 A 
BRANCH   8  11
ATOM     11  C   UNL d   1      32.102  22.916 -21.164  0.00  0.00     0.196 C 
ATOM     12  O   UNL d   1      31.729  23.035 -20.441  0.00  0.00    -0.287 OA
ATOM     13  C   UNL d   1      32.189  23.562 -21.692  0.00  0.00     0.045 C 
ENDBRANCH   8  11
ENDBRANCH   4   5
ENDBRANCH   1   4
BRANCH   1  14
ATOM     14  C   UNL d   1      32.547  19.044 -23.183  0.00  0.00     0.105 A 
ATOM     15  C   UNL d   1      32.654  19.284 -23.958  0.00  0.00     0.013 A 
ATOM     16  C   UNL d   1      32.303  18.846 -24.581  0.00  0.00     0.001 A 
ATOM     17  C   UNL d   1      31.854  18.180 -24.411  0.00  0.00     0.000 A 
ATOM     18  C   UNL d   1      31.746  17.937 -23.627  0.00  0.00     0.001 A 
ATOM     19  C   UNL d   1      31.509  17.749 -25.024  0.00  0.00     0.000 C 
ATOM     20  C   UNL d   1      32.097  18.375 -23.005  0.00  0.00     0.013 A 
ENDBRANCH   1  14
TORSDOF 4
ENDMDL
MODEL 3
REMARK VINA RESULT:      -1.9      0.937      1.252
REMARK  4 active torsions:
REMARK  status: ('A' for Active; 'I' for Inactive)
REMARK    1  A    between atoms: N_2  and  S_1 
REMARK    2  A    between atoms: C_3  and  S_1 
REMARK    3  A    between atoms: C_11  and  N_2 
REMARK    4  A    between atoms: C_6  and  C_7 
ROOT
ATOM      1  S   UNL d   1      29.914  16.603 -24.631  0.00  0.00     0.285 S 
ATOM      2  O   UNL d   1      29.537  17.288 -24.894  0.00  0.00    -0.198 OA
ATOM      3  O   UNL d   1      30.290  15.917 -24.368  0.00  0.00    -0.198 OA
ENDROOT
BRANCH   1   4
ATOM      4  N   UNL d   1      30.606  16.835 -25.015  0.00  0.00    -0.158 NA
BRANCH   4   5
ATOM      5  C   UNL d   1      31.183  17.268 -24.614  0.00  0.00     0.094 A 
ATOM      6  C   UNL d   1      31.246  18.083 -24.722  0.00  0.00     0.020 A 
ATOM      7  C   UNL d   1      31.823  18.510 -24.320  0.00  0.00     0.005 A 
ATOM      8  C   UNL d   1      32.346  18.119 -23.802  0.00  0.00     0.039 A 
ATOM      9  C   UNL d   1      32.283  17.304 -23.694  0.00  0.00     0.005 A 
ATOM     10  C   UNL d   1      31.706  16.872 -24.095  0.00  0.00     0.020 A 
BRANCH   8  11
ATOM     11  C   UNL d   1      32.933  18.547 -23.391  0.00  0.00     0.196 C 
ATOM     12  O   UNL d   1      33.215  18.270 -22.670  0.00  0.00    -0.287 OA
ATOM     13  C   UNL d   1      33.241  19.260 -23.706  0.00  0.00     0.045 C 
ENDBRANCH   8  11
ENDBRANCH   4   5
ENDBRANCH   1   4
BRANCH   1  14
ATOM     14  C   UNL d   1      29.222  16.370 -24.246  0.00  0.00     0.105 A 
ATOM     15  C   UNL d   1      29.219  15.689 -23.792  0.00  0.00     0.013 A 
ATOM     16  C   UNL d   1      28.517  15.453 -23.401  0.00  0.00     0.001 A 
ATOM     17  C   UNL d   1      27.835  15.904 -23.475  0.00  0.00     0.000 A 
ATOM     18  C   UNL d   1      27.837  16.592 -23.935  0.00  0.00     0.001 A 
ATOM     19  C   UNL d   1      27.143  15.671 -23.091  0.00  0.00     0.000 C 
ATOM     20  C   UNL d   1      28.540  16.829 -24.325  0.00  0.00     0.013 A 
ENDBRANCH   1  14
TORSDOF 4
ENDMDL
MODEL 4
REMARK VINA RESULT:      -0.3      1.459      2.460
REMARK  4 active torsions:
REMARK  status: ('A' for Active; 'I' for Inactive)
REMARK    1  A    between atoms: N_2  and  S_1 
REMARK    2  A    between atoms: C_3  and  S_1 
REMARK    3  A    between atoms: C_11  and  N_2 
REMARK    4  A    between atoms: C_6  and  C_7 
ROOT
ATOM      1  S   UNL d   1      32.541  17.752 -23.715  0.00  0.00     0.285 S 
ATOM      2  O   UNL d   1      32.596  17.361 -22.991  0.00  0.00    -0.198 OA
ATOM      3  O   UNL d   1      32.486  18.143 -24.439  0.00  0.00    -0.198 OA
ENDROOT
BRANCH   1   4
ATOM      4  N   UNL d   1      33.241  18.155 -23.550  0.00  0.00    -0.158 NA
BRANCH   4   5
ATOM      5  C   UNL d   1      33.233  18.834 -23.081  0.00  0.00     0.094 A 
ATOM      6  C   UNL d   1      33.237  18.775 -22.258  0.00  0.00     0.020 A 
ATOM      7  C   UNL d   1      33.229  19.454 -21.794  0.00  0.00     0.005 A 
ATOM      8  C   UNL d   1      33.217  20.205 -22.155  0.00  0.00     0.039 A 
ATOM      9  C   UNL d   1      33.213  20.264 -22.978  0.00  0.00     0.005 A 
ATOM     10  C   UNL d   1      33.221  19.586 -23.447  0.00  0.00     0.020 A 
BRANCH   8  11
ATOM     11  C   UNL d   1      33.209  20.897 -21.690  0.00  0.00     0.196 C 
ATOM     12  O   UNL d   1      33.241  21.636 -22.051  0.00  0.00    -0.287 OA
ATOM     13  C   UNL d   1      33.168  20.850 -20.854  0.00  0.00     0.045 C 
ENDBRANCH   8  11
ENDBRANCH   4   5
ENDBRANCH   1   4
BRANCH   1  14
ATOM     14  C   UNL d   1      31.840  17.348 -23.880  0.00  0.00     0.105 A 
ATOM     15  C   UNL d   1      31.726  16.595 -23.581  0.00  0.00     0.013 A 
ATOM     16  C   UNL d   1      31.014  16.185 -23.748  0.00  0.00     0.001 A 
ATOM     17  C   UNL d   1      30.436  16.539 -24.210  0.00  0.00     0.000 A 
ATOM     18  C   UNL d   1      30.551  17.301 -24.513  0.00  0.00     0.001 A 
ATOM     19  C   UNL d   1      29.735  16.136 -24.375  0.00  0.00     0.000 C 
ATOM     20  C   UNL d   1      31.263  17.711 -24.346  0.00  0.00     0.013 A 
ENDBRANCH   1  14
TORSDOF 4
ENDMDL
