MODEL 1
REMARK VINA RESULT:      41.9      0.000      0.000
REMARK  4 active torsions:
REMARK  status: ('A' for Active; 'I' for Inactive)
REMARK    1  A    between atoms: N_2  and  S_1 
REMARK    2  A    between atoms: C_3  and  S_1 
REMARK    3  A    between atoms: O_16  and  C_8 
REMARK    4  A    between atoms: O_17  and  C_11 
ROOT
ATOM      1  S   UNL d   1      14.299  13.426  -2.428  0.00  0.00     0.271 S 
ATOM      2  O   UNL d   1      14.092  12.841  -1.888  0.00  0.00    -0.200 OA
ATOM      3  O   UNL d   1      14.508  14.017  -2.974  0.00  0.00    -0.200 OA
ENDROOT
BRANCH   1   4
ATOM      4  N   UNL d   1      14.683  13.848  -1.831  0.00  0.00    -0.229 N 
ATOM      5  C   UNL d   1      14.620  14.670  -1.805  0.00  0.00     0.092 A 
ATOM      6  C   UNL d   1      15.004  15.092  -1.209  0.00  0.00     0.018 A 
ATOM      7  C   UNL d   1      14.941  15.914  -1.182  0.00  0.00     0.002 A 
ATOM      8  C   UNL d   1      15.449  14.692  -0.639  0.00  0.00     0.003 A 
ATOM      9  C   UNL d   1      15.325  16.336  -0.586  0.00  0.00     0.000 A 
ATOM     10  C   UNL d   1      15.770  15.936  -0.016  0.00  0.00     0.000 A 
ATOM     11  C   UNL d   1      15.833  15.113  -0.043  0.00  0.00     0.000 A 
ATOM     12  C   UNL d   1      15.512  13.869  -0.666  0.00  0.00     0.020 A 
ATOM     13  C   UNL d   1      15.128  13.448  -1.262  0.00  0.00     0.092 A 
ENDBRANCH   1   4
BRANCH   1  14
ATOM     14  C   UNL d   1      13.919  13.012  -3.027  0.00  0.00     0.106 A 
ATOM     15  C   UNL d   1      13.605  13.424  -3.672  0.00  0.00     0.039 A 
ATOM     16  C   UNL d   1      13.223  13.012  -4.273  0.00  0.00     0.117 A 
ATOM     17  C   UNL d   1      13.153  12.193  -4.237  0.00  0.00     0.116 A 
ATOM     18  C   UNL d   1      13.467  11.781  -3.592  0.00  0.00     0.027 A 
ATOM     19  C   UNL d   1      13.847  12.195  -2.994  0.00  0.00     0.015 A 
BRANCH  16  20
ATOM     20  O   UNL d   1      12.910  13.423  -4.917  0.00  0.00    -0.326 OA
ATOM     21  C   UNL d   1      13.060  14.233  -5.004  0.00  0.00     0.181 C 
ENDBRANCH  16  20
BRANCH  17  22
ATOM     22  O   UNL d   1      12.769  11.780  -4.844  0.00  0.00    -0.326 OA
ATOM     23  C   UNL d   1      13.061  11.811  -5.614  0.00  0.00     0.181 C 
ENDBRANCH  17  22
ENDBRANCH   1  14
TORSDOF 4
ENDMDL
MODEL 2
REMARK VINA RESULT:      44.3      1.076      1.905
REMARK  4 active torsions:
REMARK  status: ('A' for Active; 'I' for Inactive)
REMARK    1  A    between atoms: N_2  and  S_1 
REMARK    2  A    between atoms: C_3  and  S_1 
REMARK    3  A    between atoms: O_16  and  C_8 
REMARK    4  A    between atoms: O_17  and  C_11 
ROOT
ATOM      1  S   UNL d   1      14.035  14.571  -3.155  0.00  0.00     0.271 S 
ATOM      2  O   UNL d   1      14.071  14.184  -2.430  0.00  0.00    -0.200 OA
ATOM      3  O   UNL d   1      13.999  14.963  -3.888  0.00  0.00    -0.200 OA
ENDROOT
BRANCH   1   4
ATOM      4  N   UNL d   1      14.341  15.256  -2.810  0.00  0.00    -0.229 N 
ATOM      5  C   UNL d   1      14.630  15.232  -2.037  0.00  0.00     0.092 A 
ATOM      6  C   UNL d   1      14.936  15.916  -1.692  0.00  0.00     0.018 A 
ATOM      7  C   UNL d   1      15.224  15.892  -0.919  0.00  0.00     0.002 A 
ATOM      8  C   UNL d   1      14.953  16.623  -2.118  0.00  0.00     0.003 A 
ATOM      9  C   UNL d   1      15.530  16.576  -0.574  0.00  0.00     0.000 A 
ATOM     10  C   UNL d   1      15.547  17.283  -1.001  0.00  0.00     0.000 A 
ATOM     11  C   UNL d   1      15.259  17.308  -1.773  0.00  0.00     0.000 A 
ATOM     12  C   UNL d   1      14.664  16.647  -2.891  0.00  0.00     0.020 A 
ATOM     13  C   UNL d   1      14.358  15.963  -3.236  0.00  0.00     0.092 A 
ENDBRANCH   1   4
BRANCH   1  14
ATOM     14  C   UNL d   1      13.731  13.894  -3.505  0.00  0.00     0.106 A 
ATOM     15  C   UNL d   1      13.744  13.179  -3.090  0.00  0.00     0.039 A 
ATOM     16  C   UNL d   1      13.440  12.498  -3.438  0.00  0.00     0.117 A 
ATOM     17  C   UNL d   1      13.122  12.525  -4.197  0.00  0.00     0.116 A 
ATOM     18  C   UNL d   1      13.108  13.241  -4.611  0.00  0.00     0.027 A 
ATOM     19  C   UNL d   1      13.413  13.918  -4.261  0.00  0.00     0.015 A 
BRANCH  16  20
ATOM     20  O   UNL d   1      13.454  11.784  -3.024  0.00  0.00    -0.326 OA
ATOM     21  C   UNL d   1      13.553  11.784  -2.201  0.00  0.00     0.181 C 
ENDBRANCH  16  20
BRANCH  17  22
ATOM     22  O   UNL d   1      12.816  11.839  -4.546  0.00  0.00    -0.326 OA
ATOM     23  C   UNL d   1      12.770  11.779  -5.367  0.00  0.00     0.181 C 
ENDBRANCH  17  22
ENDBRANCH   1  14
TORSDOF 4
ENDMDL
MODEL 3
REMARK VINA RESULT:      44.6      1.235      4.458
REMARK  4 active torsions:
REMARK  status: ('A' for Active; 'I' for Inactive)
REMARK    1  A    between atoms: N_2  and  S_1 
REMARK    2  A    between atoms: C_3  and  S_1 
REMARK    3  A    between atoms: O_16  and  C_8 
REMARK    4  A    between atoms: O_17  and  C_11 
ROOT
ATOM      1  S   UNL d   1      14.357  13.903  -2.097  0.00  0.00     0.271 S 
ATOM      2  O   UNL d   1      14.911  13.330  -1.891  0.00  0.00    -0.200 OA
ATOM      3  O   UNL d   1      13.797  14.481  -2.305  0.00  0.00    -0.200 OA
ENDROOT
BRANCH   1   4
ATOM      4  N   UNL d   1      13.992  13.371  -2.612  0.00  0.00    -0.229 N 
ATOM      5  C   UNL d   1      13.863  13.587  -3.399  0.00  0.00     0.092 A 
ATOM      6  C   UNL d   1      13.498  13.055  -3.914  0.00  0.00     0.018 A 
ATOM      7  C   UNL d   1      13.368  13.270  -4.700  0.00  0.00     0.002 A 
ATOM      8  C   UNL d   1      13.263  12.311  -3.644  0.00  0.00     0.003 A 
ATOM      9  C   UNL d   1      13.003  12.739  -5.216  0.00  0.00     0.000 A 
ATOM     10  C   UNL d   1      12.769  11.994  -4.946  0.00  0.00     0.000 A 
ATOM     11  C   UNL d   1      12.899  11.779  -4.160  0.00  0.00     0.000 A 
ATOM     12  C   UNL d   1      13.393  12.096  -2.858  0.00  0.00     0.020 A 
ATOM     13  C   UNL d   1      13.758  12.627  -2.342  0.00  0.00     0.092 A 
ENDBRANCH   1   4
BRANCH   1  14
ATOM     14  C   UNL d   1      14.714  14.437  -1.586  0.00  0.00     0.106 A 
ATOM     15  C   UNL d   1      14.736  15.239  -1.784  0.00  0.00     0.039 A 
ATOM     16  C   UNL d   1      15.093  15.777  -1.274  0.00  0.00     0.117 A 
ATOM     17  C   UNL d   1      15.430  15.521  -0.568  0.00  0.00     0.116 A 
ATOM     18  C   UNL d   1      15.409  14.718  -0.370  0.00  0.00     0.027 A 
ATOM     19  C   UNL d   1      15.051  14.184  -0.881  0.00  0.00     0.015 A 
BRANCH  16  20
ATOM     20  O   UNL d   1      15.114  16.579  -1.472  0.00  0.00    -0.326 OA
ATOM     21  C   UNL d   1      14.838  16.830  -2.212  0.00  0.00     0.181 C 
ENDBRANCH  16  20
BRANCH  17  22
ATOM     22  O   UNL d   1      15.790  16.063  -0.056  0.00  0.00    -0.326 OA
ATOM     23  C   UNL d   1      16.612  16.109  -0.014  0.00  0.00     0.181 C 
ENDBRANCH  17  22
ENDBRANCH   1  14
TORSDOF 4
ENDMDL
