MODEL 1
REMARK VINA RESULT:      -3.7      0.000      0.000
REMARK  6 active torsions:
REMARK  status: ('A' for Active; 'I' for Inactive)
REMARK    1  A    between atoms: S_10  and  C_6 
REMARK    2  A    between atoms: C_14  and  S_10 
REMARK    3  A    between atoms: C_11  and  C_14 
REMARK       I    between atoms: N_15  and  C_11 
REMARK    4  A    between atoms: C_20  and  N_15 
REMARK    5  A    between atoms: C_18  and  C_20 
REMARK    6  A    between atoms: C_21  and  C_18 
ROOT
ATOM      1  C   UNL d   1      58.684  -2.024  29.413  0.00  0.00     0.187 A 
ATOM      2  C   UNL d   1      59.408  -1.719  29.162  0.00  0.00     0.081 A 
ATOM      3  N   UNL d   1      58.146  -1.527  29.803  0.00  0.00    -0.197 NA
ATOM      4  N   UNL d   1      59.069  -0.433  29.683  0.00  0.00    -0.200 NA
ATOM      5  C   UNL d   1      59.601  -0.928  29.296  0.00  0.00     0.189 A 
ATOM      6  C   UNL d   1      58.338  -0.728  29.939  0.00  0.00     0.198 A 
ATOM      7  C   UNL d   1      59.822  -2.331  28.797  0.00  0.00     0.029 A 
ATOM      8  O   UNL d   1      58.649  -2.814  29.205  0.00  0.00    -0.289 OA
ATOM      9  C   UNL d   1      59.355  -3.014  28.821  0.00  0.00     0.102 A 
ATOM     10  N   UNL d   1      60.329  -0.636  29.040  0.00  0.00    -0.127 N 
ATOM     11  C   UNL d   1      60.581  -2.272  28.461  0.00  0.00     0.002 C 
ATOM     12  C   UNL d   1      59.561  -3.754  28.516  0.00  0.00     0.027 C 
ENDROOT
BRANCH   6  13
ATOM     13  S   UNL d   1      57.801  -0.241  30.327  0.00  0.00    -0.043 SA
BRANCH  13  14
ATOM     14  C   UNL d   1      57.617  -0.368  31.119  0.00  0.00     0.101 C 
BRANCH  14  15
ATOM     15  C   UNL d   1      57.008   0.055  31.471  0.00  0.00     0.286 C 
ATOM     16  O   UNL d   1      56.648   0.682  31.067  0.00  0.00    -0.265 OA
ATOM     17  N   UNL d   1      56.753  -0.142  32.228  0.00  0.00    -0.206 NA
BRANCH  17  18
ATOM     18  C   UNL d   1      56.138   0.287  32.582  0.00  0.00     0.106 C 
BRANCH  18  19
ATOM     19  C   UNL d   1      55.740  -0.036  33.214  0.00  0.00     0.066 C 
BRANCH  19  20
ATOM     20  C   UNL d   1      55.344   0.461  33.746  0.00  0.00     0.236 C 
ATOM     21  O   UNL d   1      54.658   0.209  34.107  0.00  0.00    -0.283 OA
ENDBRANCH  19  20
ENDBRANCH  18  19
ENDBRANCH  17  18
ENDBRANCH  14  15
ENDBRANCH  13  14
ENDBRANCH   6  13
TORSDOF 6
ENDMDL
MODEL 2
REMARK VINA RESULT:      -3.6      1.468      5.527
REMARK  6 active torsions:
REMARK  status: ('A' for Active; 'I' for Inactive)
REMARK    1  A    between atoms: S_10  and  C_6 
REMARK    2  A    between atoms: C_14  and  S_10 
REMARK    3  A    between atoms: C_11  and  C_14 
REMARK       I    between atoms: N_15  and  C_11 
REMARK    4  A    between atoms: C_20  and  N_15 
REMARK    5  A    between atoms: C_18  and  C_20 
REMARK    6  A    between atoms: C_21  and  C_18 
ROOT
ATOM      1  C   UNL d   1      55.984   0.671  32.776  0.00  0.00     0.187 A 
ATOM      2  C   UNL d   1      56.485   0.675  33.431  0.00  0.00     0.081 A 
ATOM      3  N   UNL d   1      56.311   0.668  32.013  0.00  0.00    -0.197 NA
ATOM      4  N   UNL d   1      57.632   0.672  32.578  0.00  0.00    -0.200 NA
ATOM      5  C   UNL d   1      57.305   0.676  33.335  0.00  0.00     0.189 A 
ATOM      6  C   UNL d   1      57.138   0.668  31.913  0.00  0.00     0.198 A 
ATOM      7  C   UNL d   1      56.013   0.678  34.106  0.00  0.00     0.029 A 
ATOM      8  O   UNL d   1      55.210   0.672  33.041  0.00  0.00    -0.289 OA
ATOM      9  C   UNL d   1      55.218   0.676  33.869  0.00  0.00     0.102 A 
ATOM     10  N   UNL d   1      57.795   0.679  33.998  0.00  0.00    -0.127 N 
ATOM     11  C   UNL d   1      56.286   0.682  34.892  0.00  0.00     0.002 C 
ATOM     12  C   UNL d   1      54.563   0.677  34.371  0.00  0.00     0.027 C 
ENDROOT
BRANCH   6  13
ATOM     13  S   UNL d   1      57.456   0.665  31.155  0.00  0.00    -0.043 SA
BRANCH  13  14
ATOM     14  C   UNL d   1      57.717  -0.037  30.814  0.00  0.00     0.101 C 
BRANCH  14  15
ATOM     15  C   UNL d   1      58.059  -0.028  30.068  0.00  0.00     0.286 C 
ATOM     16  O   UNL d   1      57.679   0.354  29.440  0.00  0.00    -0.265 OA
ATOM     17  N   UNL d   1      58.782  -0.400  29.941  0.00  0.00    -0.206 NA
BRANCH  17  18
ATOM     18  C   UNL d   1      59.125  -0.390  29.187  0.00  0.00     0.106 C 
BRANCH  18  19
ATOM     19  C   UNL d   1      59.707  -0.930  29.006  0.00  0.00     0.066 C 
BRANCH  19  20
ATOM     20  C   UNL d   1      60.330  -0.709  28.507  0.00  0.00     0.236 C 
ATOM     21  O   UNL d   1      61.057  -1.071  28.577  0.00  0.00    -0.283 OA
ENDBRANCH  19  20
ENDBRANCH  18  19
ENDBRANCH  17  18
ENDBRANCH  14  15
ENDBRANCH  13  14
ENDBRANCH   6  13
TORSDOF 6
ENDMDL
MODEL 3
REMARK VINA RESULT:      -2.6      0.952      1.315
REMARK  6 active torsions:
REMARK  status: ('A' for Active; 'I' for Inactive)
REMARK    1  A    between atoms: S_10  and  C_6 
REMARK    2  A    between atoms: C_14  and  S_10 
REMARK    3  A    between atoms: C_11  and  C_14 
REMARK       I    between atoms: N_15  and  C_11 
REMARK    4  A    between atoms: C_20  and  N_15 
REMARK    5  A    between atoms: C_18  and  C_20 
REMARK    6  A    between atoms: C_21  and  C_18 
ROOT
ATOM      1  C   UNL d   1      58.903  -2.847  28.906  0.00  0.00     0.187 A 
ATOM      2  C   UNL d   1      59.724  -2.831  28.835  0.00  0.00     0.081 A 
ATOM      3  N   UNL d   1      58.496  -2.146  29.083  0.00  0.00    -0.197 NA
ATOM      4  N   UNL d   1      59.740  -1.430  29.113  0.00  0.00    -0.200 NA
ATOM      5  C   UNL d   1      60.142  -2.127  28.937  0.00  0.00     0.189 A 
ATOM      6  C   UNL d   1      58.915  -1.434  29.187  0.00  0.00     0.198 A 
ATOM      7  C   UNL d   1      59.974  -3.596  28.659  0.00  0.00     0.029 A 
ATOM      8  O   UNL d   1      58.646  -3.613  28.777  0.00  0.00    -0.289 OA
ATOM      9  C   UNL d   1      59.307  -4.087  28.622  0.00  0.00     0.102 A 
ATOM     10  N   UNL d   1      60.964  -2.125  28.864  0.00  0.00    -0.127 N 
ATOM     11  C   UNL d   1      60.762  -3.836  28.540  0.00  0.00     0.002 C 
ATOM     12  C   UNL d   1      59.309  -4.897  28.460  0.00  0.00     0.027 C 
ENDROOT
BRANCH   6  13
ATOM     13  S   UNL d   1      58.506  -0.743  29.362  0.00  0.00    -0.043 SA
BRANCH  13  14
ATOM     14  C   UNL d   1      58.482  -0.454  30.133  0.00  0.00     0.101 C 
BRANCH  14  15
ATOM     15  C   UNL d   1      57.838  -0.014  30.386  0.00  0.00     0.286 C 
ATOM     16  O   UNL d   1      57.387   0.416  29.840  0.00  0.00    -0.265 OA
ATOM     17  N   UNL d   1      57.637   0.003  31.183  0.00  0.00    -0.206 NA
BRANCH  17  18
ATOM     18  C   UNL d   1      56.986   0.449  31.437  0.00  0.00     0.106 C 
BRANCH  18  19
ATOM     19  C   UNL d   1      56.720   0.367  32.202  0.00  0.00     0.066 C 
BRANCH  19  20
ATOM     20  C   UNL d   1      55.909   0.422  32.362  0.00  0.00     0.236 C 
ATOM     21  O   UNL d   1      55.631   0.282  33.115  0.00  0.00    -0.283 OA
ENDBRANCH  19  20
ENDBRANCH  18  19
ENDBRANCH  17  18
ENDBRANCH  14  15
ENDBRANCH  13  14
ENDBRANCH   6  13
TORSDOF 6
ENDMDL
MODEL 4
REMARK VINA RESULT:      -2.4      1.894      2.290
REMARK  6 active torsions:
REMARK  status: ('A' for Active; 'I' for Inactive)
REMARK    1  A    between atoms: S_10  and  C_6 
REMARK    2  A    between atoms: C_14  and  S_10 
REMARK    3  A    between atoms: C_11  and  C_14 
REMARK       I    between atoms: N_15  and  C_11 
REMARK    4  A    between atoms: C_20  and  N_15 
REMARK    5  A    between atoms: C_18  and  C_20 
REMARK    6  A    between atoms: C_21  and  C_18 
ROOT
ATOM      1  C   UNL d   1      59.148   0.438  30.548  0.00  0.00     0.187 A 
ATOM      2  C   UNL d   1      58.996   0.137  29.795  0.00  0.00     0.081 A 
ATOM      3  N   UNL d   1      58.513   0.602  31.056  0.00  0.00    -0.197 NA
ATOM      4  N   UNL d   1      57.590   0.160  30.047  0.00  0.00    -0.200 NA
ATOM      5  C   UNL d   1      58.223  -0.002  29.545  0.00  0.00     0.189 A 
ATOM      6  C   UNL d   1      57.730   0.463  30.806  0.00  0.00     0.198 A 
ATOM      7  C   UNL d   1      59.722   0.030  29.420  0.00  0.00     0.029 A 
ATOM      8  O   UNL d   1      59.957   0.517  30.638  0.00  0.00    -0.289 OA
ATOM      9  C   UNL d   1      60.323   0.265  29.939  0.00  0.00     0.102 A 
ATOM     10  N   UNL d   1      58.085  -0.303  28.789  0.00  0.00    -0.127 N 
ATOM     11  C   UNL d   1      59.833  -0.264  28.649  0.00  0.00     0.002 C 
ATOM     12  C   UNL d   1      61.133   0.248  29.783  0.00  0.00     0.027 C 
ENDROOT
BRANCH   6  13
ATOM     13  S   UNL d   1      57.105   0.627  31.314  0.00  0.00    -0.043 SA
BRANCH  13  14
ATOM     14  C   UNL d   1      57.046   0.245  32.041  0.00  0.00     0.101 C 
BRANCH  14  15
ATOM     15  C   UNL d   1      56.436   0.435  32.555  0.00  0.00     0.286 C 
ATOM     16  O   UNL d   1      55.673   0.573  32.264  0.00  0.00    -0.265 OA
ATOM     17  N   UNL d   1      56.578   0.489  33.363  0.00  0.00    -0.206 NA
BRANCH  17  18
ATOM     18  C   UNL d   1      55.960   0.681  33.881  0.00  0.00     0.106 C 
BRANCH  18  19
ATOM     19  C   UNL d   1      56.087   0.645  34.685  0.00  0.00     0.066 C 
BRANCH  19  20
ATOM     20  C   UNL d   1      55.470   0.416  35.187  0.00  0.00     0.236 C 
ATOM     21  O   UNL d   1      55.501   0.595  35.981  0.00  0.00    -0.283 OA
ENDBRANCH  19  20
ENDBRANCH  18  19
ENDBRANCH  17  18
ENDBRANCH  14  15
ENDBRANCH  13  14
ENDBRANCH   6  13
TORSDOF 6
ENDMDL
MODEL 5
REMARK VINA RESULT:      -0.9      1.510      2.105
REMARK  6 active torsions:
REMARK  status: ('A' for Active; 'I' for Inactive)
REMARK    1  A    between atoms: S_10  and  C_6 
REMARK    2  A    between atoms: C_14  and  S_10 
REMARK    3  A    between atoms: C_11  and  C_14 
REMARK       I    between atoms: N_15  and  C_11 
REMARK    4  A    between atoms: C_20  and  N_15 
REMARK    5  A    between atoms: C_18  and  C_20 
REMARK    6  A    between atoms: C_21  and  C_18 
ROOT
ATOM      1  C   UNL d   1      57.560  -1.187  30.686  0.00  0.00     0.187 A 
ATOM      2  C   UNL d   1      58.085  -0.642  30.358  0.00  0.00     0.081 A 
ATOM      3  N   UNL d   1      57.054  -0.948  31.298  0.00  0.00    -0.197 NA
ATOM      4  N   UNL d   1      57.609   0.376  31.240  0.00  0.00    -0.200 NA
ATOM      5  C   UNL d   1      58.111   0.136  30.632  0.00  0.00     0.189 A 
ATOM      6  C   UNL d   1      57.078  -0.163  31.577  0.00  0.00     0.198 A 
ATOM      7  C   UNL d   1      58.511  -1.030  29.769  0.00  0.00     0.029 A 
ATOM      8  O   UNL d   1      57.660  -1.905  30.306  0.00  0.00    -0.289 OA
ATOM      9  C   UNL d   1      58.251  -1.816  29.732  0.00  0.00     0.102 A 
ATOM     10  N   UNL d   1      58.640   0.671  30.296  0.00  0.00    -0.127 N 
ATOM     11  C   UNL d   1      59.103  -0.691  29.293  0.00  0.00     0.002 C 
ATOM     12  C   UNL d   1      58.534  -2.397  29.218  0.00  0.00     0.027 C 
ENDROOT
BRANCH   6  13
ATOM     13  S   UNL d   1      56.574   0.068  32.184  0.00  0.00    -0.043 SA
BRANCH  13  14
ATOM     14  C   UNL d   1      56.877   0.336  32.901  0.00  0.00     0.101 C 
BRANCH  14  15
ATOM     15  C   UNL d   1      56.386   0.406  33.554  0.00  0.00     0.286 C 
ATOM     16  O   UNL d   1      56.707   0.408  34.318  0.00  0.00    -0.265 OA
ATOM     17  N   UNL d   1      55.573   0.474  33.454  0.00  0.00    -0.206 NA
BRANCH  17  18
ATOM     18  C   UNL d   1      55.078   0.545  34.115  0.00  0.00     0.106 C 
BRANCH  18  19
ATOM     19  C   UNL d   1      54.309   0.283  34.067  0.00  0.00     0.066 C 
BRANCH  19  20
ATOM     20  C   UNL d   1      53.715   0.681  34.485  0.00  0.00     0.236 C 
ATOM     21  O   UNL d   1      53.046   0.282  34.725  0.00  0.00    -0.283 OA
ENDBRANCH  19  20
ENDBRANCH  18  19
ENDBRANCH  17  18
ENDBRANCH  14  15
ENDBRANCH  13  14
ENDBRANCH   6  13
TORSDOF 6
ENDMDL
