MODEL 1
REMARK VINA RESULT:      -4.7      0.000      0.000
REMARK  4 active torsions:
REMARK  status: ('A' for Active; 'I' for Inactive)
REMARK       I    between atoms: N_2  and  C_1 
REMARK    1  A    between atoms: O_3  and  C_1 
REMARK    2  A    between atoms: C_5  and  O_3 
REMARK    3  A    between atoms: O_8  and  C_7 
REMARK    4  A    between atoms: C_10  and  O_8 
ROOT
ATOM      1  C   UNL d   1      57.719   0.312  30.919  0.00  0.00     0.107 A 
ATOM      2  C   UNL d   1      57.795  -0.059  30.186  0.00  0.00     0.050 A 
ATOM      3  C   UNL d   1      58.524  -0.059  29.794  0.00  0.00     0.102 A 
ATOM      4  C   UNL d   1      59.102   0.682  30.870  0.00  0.00     0.004 A 
ATOM      5  C   UNL d   1      58.373   0.682  31.261  0.00  0.00     0.025 A 
ATOM      6  C   UNL d   1      59.177   0.311  30.137  0.00  0.00     0.025 A 
ENDROOT
BRANCH   1   7
ATOM      7  O   UNL d   1      56.992   0.312  31.310  0.00  0.00    -0.259 OA
BRANCH   7   8
ATOM      8  C   UNL d   1      56.769  -0.311  31.796  0.00  0.00     0.378 C 
ATOM      9  N   UNL d   1      56.235  -0.198  32.428  0.00  0.00    -0.247 N 
ATOM     10  C   UNL d   1      55.926   0.562  32.566  0.00  0.00     0.112 A 
ATOM     11  C   UNL d   1      56.018  -0.834  32.911  0.00  0.00     0.112 A 
ATOM     12  C   UNL d   1      55.397   0.682  33.191  0.00  0.00     0.142 A 
ATOM     13  O   UNL d   1      55.175   0.052  33.678  0.00  0.00    -0.300 OA
ATOM     14  C   UNL d   1      55.490  -0.713  33.534  0.00  0.00     0.142 A 
ATOM     15  O   UNL d   1      57.092  -1.086  31.644  0.00  0.00    -0.237 OA
ENDBRANCH   7   8
ENDBRANCH   1   7
BRANCH   3  16
ATOM     16  O   UNL d   1      58.599  -0.430  29.061  0.00  0.00    -0.307 OA
BRANCH  16  17
ATOM     17  C   UNL d   1      59.001  -1.150  29.000  0.00  0.00     0.100 A 
ATOM     18  C   UNL d   1      59.817  -1.158  28.881  0.00  0.00     0.025 A 
ATOM     19  C   UNL d   1      60.220  -1.878  28.820  0.00  0.00     0.002 A 
ATOM     20  C   UNL d   1      59.805  -2.589  28.879  0.00  0.00     0.000 A 
ATOM     21  C   UNL d   1      58.985  -2.573  28.999  0.00  0.00     0.002 A 
ATOM     22  C   UNL d   1      58.587  -1.861  29.059  0.00  0.00     0.025 A 
ENDBRANCH  16  17
ENDBRANCH   3  16
TORSDOF 4
ENDMDL
MODEL 2
REMARK VINA RESULT:      -4.3      1.487      4.603
REMARK  4 active torsions:
REMARK  status: ('A' for Active; 'I' for Inactive)
REMARK       I    between atoms: N_2  and  C_1 
REMARK    1  A    between atoms: O_3  and  C_1 
REMARK    2  A    between atoms: C_5  and  O_3 
REMARK    3  A    between atoms: O_8  and  C_7 
REMARK    4  A    between atoms: C_10  and  O_8 
ROOT
ATOM      1  C   UNL d   1      58.521  -0.516  29.915  0.00  0.00     0.107 A 
ATOM      2  C   UNL d   1      57.765  -0.430  30.235  0.00  0.00     0.050 A 
ATOM      3  C   UNL d   1      57.613   0.169  30.784  0.00  0.00     0.102 A 
ATOM      4  C   UNL d   1      58.973   0.596  30.696  0.00  0.00     0.004 A 
ATOM      5  C   UNL d   1      59.125  -0.003  30.146  0.00  0.00     0.025 A 
ATOM      6  C   UNL d   1      58.217   0.682  31.014  0.00  0.00     0.025 A 
ENDROOT
BRANCH   1   7
ATOM      7  O   UNL d   1      58.673  -1.115  29.367  0.00  0.00    -0.259 OA
BRANCH   7   8
ATOM      8  C   UNL d   1      59.409  -1.477  29.325  0.00  0.00     0.378 C 
ATOM      9  N   UNL d   1      59.490  -2.263  29.053  0.00  0.00    -0.247 N 
ATOM     10  C   UNL d   1      58.810  -2.683  28.821  0.00  0.00     0.112 A 
ATOM     11  C   UNL d   1      60.236  -2.617  29.015  0.00  0.00     0.112 A 
ATOM     12  C   UNL d   1      58.882  -3.461  28.550  0.00  0.00     0.142 A 
ATOM     13  O   UNL d   1      59.624  -3.824  28.509  0.00  0.00    -0.300 OA
ATOM     14  C   UNL d   1      60.307  -3.395  28.745  0.00  0.00     0.142 A 
ATOM     15  O   UNL d   1      60.099  -1.037  29.565  0.00  0.00    -0.237 OA
ENDBRANCH   7   8
ENDBRANCH   1   7
BRANCH   3  16
ATOM     16  O   UNL d   1      56.857   0.255  31.103  0.00  0.00    -0.307 OA
BRANCH  16  17
ATOM     17  C   UNL d   1      56.680  -0.071  31.842  0.00  0.00     0.100 A 
ATOM     18  C   UNL d   1      56.467  -0.865  31.903  0.00  0.00     0.025 A 
ATOM     19  C   UNL d   1      56.290  -1.191  32.643  0.00  0.00     0.002 A 
ATOM     20  C   UNL d   1      56.327  -0.722  33.320  0.00  0.00     0.000 A 
ATOM     21  C   UNL d   1      56.541   0.076  33.251  0.00  0.00     0.002 A 
ATOM     22  C   UNL d   1      56.717   0.399  32.520  0.00  0.00     0.025 A 
ENDBRANCH  16  17
ENDBRANCH   3  16
TORSDOF 4
ENDMDL
MODEL 3
REMARK VINA RESULT:      -3.5      8.805      9.989
REMARK  4 active torsions:
REMARK  status: ('A' for Active; 'I' for Inactive)
REMARK       I    between atoms: N_2  and  C_1 
REMARK    1  A    between atoms: O_3  and  C_1 
REMARK    2  A    between atoms: C_5  and  O_3 
REMARK    3  A    between atoms: O_8  and  C_7 
REMARK    4  A    between atoms: C_10  and  O_8 
ROOT
ATOM      1  C   UNL d   1      59.721  -9.679  33.391  0.00  0.00     0.107 A 
ATOM      2  C   UNL d   1      59.586  -9.410  34.160  0.00  0.00     0.050 A 
ATOM      3  C   UNL d   1      60.223  -9.271  34.669  0.00  0.00     0.102 A 
ATOM      4  C   UNL d   1      61.131  -9.671  33.642  0.00  0.00     0.004 A 
ATOM      5  C   UNL d   1      60.494  -9.810  33.133  0.00  0.00     0.025 A 
ATOM      6  C   UNL d   1      60.995  -9.402  34.410  0.00  0.00     0.025 A 
ENDROOT
BRANCH   1   7
ATOM      7  O   UNL d   1      59.085  -9.818  32.883  0.00  0.00    -0.259 OA
BRANCH   7   8
ATOM      8  C   UNL d   1      59.182  -9.806  32.067  0.00  0.00     0.378 C 
ATOM      9  N   UNL d   1      58.524  -9.803  31.554  0.00  0.00    -0.247 N 
ATOM     10  C   UNL d   1      57.757  -9.811  31.877  0.00  0.00     0.112 A 
ATOM     11  C   UNL d   1      58.634  -9.791  30.734  0.00  0.00     0.112 A 
ATOM     12  C   UNL d   1      57.100  -9.807  31.375  0.00  0.00     0.142 A 
ATOM     13  O   UNL d   1      57.201  -9.796  30.554  0.00  0.00    -0.300 OA
ATOM     14  C   UNL d   1      57.977  -9.787  30.232  0.00  0.00     0.142 A 
ATOM     15  O   UNL d   1      59.972  -9.798  31.747  0.00  0.00    -0.237 OA
ENDBRANCH   7   8
ENDBRANCH   1   7
BRANCH   3  16
ATOM     16  O   UNL d   1      60.086  -9.002  35.437  0.00  0.00    -0.307 OA
BRANCH  16  17
ATOM     17  C   UNL d   1      60.107  -8.191  35.601  0.00  0.00     0.100 A 
ATOM     18  C   UNL d   1      59.405  -7.760  35.642  0.00  0.00     0.025 A 
ATOM     19  C   UNL d   1      59.425  -6.950  35.806  0.00  0.00     0.002 A 
ATOM     20  C   UNL d   1      60.148  -6.572  35.929  0.00  0.00     0.000 A 
ATOM     21  C   UNL d   1      60.850  -7.012  35.887  0.00  0.00     0.002 A 
ATOM     22  C   UNL d   1      60.829  -7.813  35.724  0.00  0.00     0.025 A 
ENDBRANCH  16  17
ENDBRANCH   3  16
TORSDOF 4
ENDMDL
MODEL 4
REMARK VINA RESULT:      -3.5      1.418      2.056
REMARK  4 active torsions:
REMARK  status: ('A' for Active; 'I' for Inactive)
REMARK       I    between atoms: N_2  and  C_1 
REMARK    1  A    between atoms: O_3  and  C_1 
REMARK    2  A    between atoms: C_5  and  O_3 
REMARK    3  A    between atoms: O_8  and  C_7 
REMARK    4  A    between atoms: C_10  and  O_8 
ROOT
ATOM      1  C   UNL d   1      57.086  -0.097  31.975  0.00  0.00     0.107 A 
ATOM      2  C   UNL d   1      57.377   0.391  31.377  0.00  0.00     0.050 A 
ATOM      3  C   UNL d   1      57.574   0.072  30.640  0.00  0.00     0.102 A 
ATOM      4  C   UNL d   1      57.188  -1.224  31.098  0.00  0.00     0.004 A 
ATOM      5  C   UNL d   1      56.992  -0.905  31.835  0.00  0.00     0.025 A 
ATOM      6  C   UNL d   1      57.480  -0.735  30.501  0.00  0.00     0.025 A 
ENDROOT
BRANCH   1   7
ATOM      7  O   UNL d   1      56.889   0.222  32.711  0.00  0.00    -0.259 OA
BRANCH   7   8
ATOM      8  C   UNL d   1      56.111   0.240  32.974  0.00  0.00     0.378 C 
ATOM      9  N   UNL d   1      55.928   0.387  33.775  0.00  0.00    -0.247 N 
ATOM     10  C   UNL d   1      56.547   0.518  34.315  0.00  0.00     0.112 A 
ATOM     11  C   UNL d   1      55.140   0.403  34.027  0.00  0.00     0.112 A 
ATOM     12  C   UNL d   1      56.373   0.665  35.110  0.00  0.00     0.142 A 
ATOM     13  O   UNL d   1      55.589   0.682  35.371  0.00  0.00    -0.300 OA
ATOM     14  C   UNL d   1      54.967   0.549  34.821  0.00  0.00     0.142 A 
ATOM     15  O   UNL d   1      55.485   0.104  32.411  0.00  0.00    -0.237 OA
ENDBRANCH   7   8
ENDBRANCH   1   7
BRANCH   3  16
ATOM     16  O   UNL d   1      57.865   0.561  30.042  0.00  0.00    -0.307 OA
BRANCH  16  17
ATOM     17  C   UNL d   1      58.644   0.472  29.777  0.00  0.00     0.100 A 
ATOM     18  C   UNL d   1      58.791   0.174  29.023  0.00  0.00     0.025 A 
ATOM     19  C   UNL d   1      59.570   0.085  28.757  0.00  0.00     0.002 A 
ATOM     20  C   UNL d   1      60.199   0.295  29.247  0.00  0.00     0.000 A 
ATOM     21  C   UNL d   1      60.043   0.594  30.005  0.00  0.00     0.002 A 
ATOM     22  C   UNL d   1      59.273   0.681  30.267  0.00  0.00     0.025 A 
ENDBRANCH  16  17
ENDBRANCH   3  16
TORSDOF 4
ENDMDL
MODEL 5
REMARK VINA RESULT:      -2.9      1.465      4.644
REMARK  4 active torsions:
REMARK  status: ('A' for Active; 'I' for Inactive)
REMARK       I    between atoms: N_2  and  C_1 
REMARK    1  A    between atoms: O_3  and  C_1 
REMARK    2  A    between atoms: C_5  and  O_3 
REMARK    3  A    between atoms: O_8  and  C_7 
REMARK    4  A    between atoms: C_10  and  O_8 
ROOT
ATOM      1  C   UNL d   1      58.618   0.666  31.301  0.00  0.00     0.107 A 
ATOM      2  C   UNL d   1      57.795   0.659  31.365  0.00  0.00     0.050 A 
ATOM      3  C   UNL d   1      57.437   0.664  32.111  0.00  0.00     0.102 A 
ATOM      4  C   UNL d   1      58.724   0.682  32.729  0.00  0.00     0.004 A 
ATOM      5  C   UNL d   1      59.082   0.677  31.983  0.00  0.00     0.025 A 
ATOM      6  C   UNL d   1      57.901   0.676  32.792  0.00  0.00     0.025 A 
ENDROOT
BRANCH   1   7
ATOM      7  O   UNL d   1      58.975   0.661  30.557  0.00  0.00    -0.259 OA
BRANCH   7   8
ATOM      8  C   UNL d   1      59.042  -0.032  30.121  0.00  0.00     0.378 C 
ATOM      9  N   UNL d   1      59.696  -0.166  29.619  0.00  0.00    -0.247 N 
ATOM     10  C   UNL d   1      60.289   0.415  29.561  0.00  0.00     0.112 A 
ATOM     11  C   UNL d   1      59.752  -0.868  29.184  0.00  0.00     0.112 A 
ATOM     12  C   UNL d   1      60.939   0.289  29.066  0.00  0.00     0.142 A 
ATOM     13  O   UNL d   1      61.003  -0.410  28.628  0.00  0.00    -0.300 OA
ATOM     14  C   UNL d   1      60.402  -0.993  28.690  0.00  0.00     0.142 A 
ATOM     15  O   UNL d   1      58.429  -0.620  30.188  0.00  0.00    -0.237 OA
ENDBRANCH   7   8
ENDBRANCH   1   7
BRANCH   3  16
ATOM     16  O   UNL d   1      56.614   0.658  32.174  0.00  0.00    -0.307 OA
BRANCH  16  17
ATOM     17  C   UNL d   1      56.233   0.033  32.559  0.00  0.00     0.100 A 
ATOM     18  C   UNL d   1      55.779   0.178  33.232  0.00  0.00     0.025 A 
ATOM     19  C   UNL d   1      55.398  -0.447  33.617  0.00  0.00     0.002 A 
ATOM     20  C   UNL d   1      55.472  -1.216  33.329  0.00  0.00     0.000 A 
ATOM     21  C   UNL d   1      55.931  -1.355  32.652  0.00  0.00     0.002 A 
ATOM     22  C   UNL d   1      56.308  -0.737  32.271  0.00  0.00     0.025 A 
ENDBRANCH  16  17
ENDBRANCH   3  16
TORSDOF 4
ENDMDL
