MODEL 1
REMARK VINA RESULT:      -6.8      0.000      0.000
REMARK  5 active torsions:
REMARK  status: ('A' for Active; 'I' for Inactive)
REMARK    1  A    between atoms: C_4  and  S_1 
REMARK    2  A    between atoms: N_5  and  S_1 
REMARK    3  A    between atoms: C_2  and  C_8 
REMARK       I    between atoms: N_3  and  C_2 
REMARK    4  A    between atoms: C_16  and  N_5 
REMARK    5  A    between atoms: C_17  and  N_5 
ROOT
ATOM      1  C   UNL d   1     -48.309  13.940  22.661  0.00  0.00     0.104 A 
ATOM      2  C   UNL d   1     -46.790  13.293  22.636  0.00  0.00     0.057 A 
ATOM      3  C   UNL d   1     -48.069  13.467  22.023  0.00  0.00     0.013 A 
ATOM      4  C   UNL d   1     -47.792  14.088  23.283  0.00  0.00     0.013 A 
ATOM      5  C   UNL d   1     -47.312  13.146  22.012  0.00  0.00     0.005 A 
ATOM      6  C   UNL d   1     -47.030  13.765  23.273  0.00  0.00     0.005 A 
ENDROOT
BRANCH   1   7
ATOM      7  S   UNL d   1     -49.075  14.263  22.669  0.00  0.00     0.271 S 
ATOM      8  O   UNL d   1     -48.897  14.974  22.162  0.00  0.00    -0.200 OA
ATOM      9  O   UNL d   1     -49.336  13.535  23.211  0.00  0.00    -0.200 OA
BRANCH   7  10
ATOM     10  N   UNL d   1     -49.831  14.583  22.677  0.00  0.00    -0.229 N 
BRANCH  10  11
ATOM     11  C   UNL d   1     -49.945  15.358  22.945  0.00  0.00     0.092 C 
ATOM     12  C   UNL d   1     -50.621  15.548  23.377  0.00  0.00     0.021 C 
ENDBRANCH  10  11
BRANCH  10  13
ATOM     13  C   UNL d   1     -50.478  14.140  22.421  0.00  0.00     0.092 C 
ATOM     14  C   UNL d   1     -51.050  14.496  21.943  0.00  0.00     0.021 C 
ENDBRANCH  10  13
ENDBRANCH   7  10
ENDBRANCH   1   7
BRANCH   2  15
ATOM     15  C   UNL d   1     -46.029  12.966  22.618  0.00  0.00     0.265 C 
ATOM     16  N   UNL d   1     -45.896  12.235  22.973  0.00  0.00    -0.272 N 
ATOM     17  C   UNL d   1     -46.516  11.835  23.342  0.00  0.00     0.083 A 
ATOM     18  C   UNL d   1     -45.141  11.904  22.959  0.00  0.00     0.083 A 
ATOM     19  C   UNL d   1     -46.381  11.104  23.697  0.00  0.00     0.019 A 
ATOM     20  C   UNL d   1     -45.628  10.774  23.683  0.00  0.00     0.003 A 
ATOM     21  C   UNL d   1     -45.008  11.174  23.314  0.00  0.00     0.019 A 
ATOM     22  O   UNL d   1     -45.411  13.369  22.248  0.00  0.00    -0.267 OA
ENDBRANCH   2  15
TORSDOF 5
ENDMDL
MODEL 2
REMARK VINA RESULT:      -5.7      1.157      4.554
REMARK  5 active torsions:
REMARK  status: ('A' for Active; 'I' for Inactive)
REMARK    1  A    between atoms: C_4  and  S_1 
REMARK    2  A    between atoms: N_5  and  S_1 
REMARK    3  A    between atoms: C_2  and  C_8 
REMARK       I    between atoms: N_3  and  C_2 
REMARK    4  A    between atoms: C_16  and  N_5 
REMARK    5  A    between atoms: C_17  and  N_5 
ROOT
ATOM      1  C   UNL d   1     -46.928  13.440  22.756  0.00  0.00     0.104 A 
ATOM      2  C   UNL d   1     -48.377  14.211  22.943  0.00  0.00     0.057 A 
ATOM      3  C   UNL d   1     -47.055  14.180  22.403  0.00  0.00     0.013 A 
ATOM      4  C   UNL d   1     -47.524  13.088  23.201  0.00  0.00     0.013 A 
ATOM      5  C   UNL d   1     -47.777  14.563  22.496  0.00  0.00     0.005 A 
ATOM      6  C   UNL d   1     -48.251  13.472  23.296  0.00  0.00     0.005 A 
ENDROOT
BRANCH   1   7
ATOM      7  S   UNL d   1     -46.198  13.056  22.659  0.00  0.00     0.271 S 
ATOM      8  O   UNL d   1     -45.961  13.058  23.518  0.00  0.00    -0.200 OA
ATOM      9  O   UNL d   1     -46.383  13.018  21.733  0.00  0.00    -0.200 OA
BRANCH   7  10
ATOM     10  N   UNL d   1     -45.476  12.677  22.564  0.00  0.00    -0.229 N 
BRANCH  10  11
ATOM     11  C   UNL d   1     -45.042  12.791  21.868  0.00  0.00     0.092 C 
ATOM     12  C   UNL d   1     -44.228  12.919  21.907  0.00  0.00     0.021 C 
ENDBRANCH  10  11
BRANCH  10  13
ATOM     13  C   UNL d   1     -45.179  12.183  23.154  0.00  0.00     0.092 C 
ATOM     14  C   UNL d   1     -45.029  11.389  22.982  0.00  0.00     0.021 C 
ENDBRANCH  10  13
ENDBRANCH   7  10
ENDBRANCH   1   7
BRANCH   2  15
ATOM     15  C   UNL d   1     -49.102  14.602  23.033  0.00  0.00     0.265 C 
ATOM     16  N   UNL d   1     -49.721  14.427  22.520  0.00  0.00    -0.272 N 
ATOM     17  C   UNL d   1     -49.618  13.866  21.923  0.00  0.00     0.083 A 
ATOM     18  C   UNL d   1     -50.444  14.812  22.604  0.00  0.00     0.083 A 
ATOM     19  C   UNL d   1     -50.239  13.691  21.411  0.00  0.00     0.019 A 
ATOM     20  C   UNL d   1     -50.961  14.076  21.495  0.00  0.00     0.003 A 
ATOM     21  C   UNL d   1     -51.064  14.637  22.091  0.00  0.00     0.019 A 
ATOM     22  O   UNL d   1     -49.201  15.162  23.631  0.00  0.00    -0.267 OA
ENDBRANCH   2  15
TORSDOF 5
ENDMDL
MODEL 3
REMARK VINA RESULT:      -5.5      8.379      9.079
REMARK  5 active torsions:
REMARK  status: ('A' for Active; 'I' for Inactive)
REMARK    1  A    between atoms: C_4  and  S_1 
REMARK    2  A    between atoms: N_5  and  S_1 
REMARK    3  A    between atoms: C_2  and  C_8 
REMARK       I    between atoms: N_3  and  C_2 
REMARK    4  A    between atoms: C_16  and  N_5 
REMARK    5  A    between atoms: C_17  and  N_5 
ROOT
ATOM      1  C   UNL d   1     -39.968  14.960  19.309  0.00  0.00     0.104 A 
ATOM      2  C   UNL d   1     -39.660  14.913  20.932  0.00  0.00     0.057 A 
ATOM      3  C   UNL d   1     -39.321  15.374  19.622  0.00  0.00     0.013 A 
ATOM      4  C   UNL d   1     -40.459  14.524  19.806  0.00  0.00     0.013 A 
ATOM      5  C   UNL d   1     -39.168  15.350  20.430  0.00  0.00     0.005 A 
ATOM      6  C   UNL d   1     -40.306  14.499  20.619  0.00  0.00     0.005 A 
ENDROOT
BRANCH   1   7
ATOM      7  S   UNL d   1     -40.119  14.986  18.493  0.00  0.00     0.271 S 
ATOM      8  O   UNL d   1     -39.798  15.805  18.350  0.00  0.00    -0.200 OA
ATOM      9  O   UNL d   1     -40.476  14.115  18.569  0.00  0.00    -0.200 OA
BRANCH   7  10
ATOM     10  N   UNL d   1     -40.269  15.012  17.686  0.00  0.00    -0.229 N 
BRANCH  10  11
ATOM     11  C   UNL d   1     -40.727  15.628  17.375  0.00  0.00     0.092 C 
ATOM     12  C   UNL d   1     -41.282  15.470  16.786  0.00  0.00     0.021 C 
ENDBRANCH  10  11
BRANCH  10  13
ATOM     13  C   UNL d   1     -39.968  14.432  17.183  0.00  0.00     0.092 C 
ATOM     14  C   UNL d   1     -39.493  14.655  16.545  0.00  0.00     0.021 C 
ENDBRANCH  10  13
ENDBRANCH   7  10
ENDBRANCH   1   7
BRANCH   2  15
ATOM     15  C   UNL d   1     -39.500  14.893  21.744  0.00  0.00     0.265 C 
ATOM     16  N   UNL d   1     -39.021  14.296  22.046  0.00  0.00    -0.272 N 
ATOM     17  C   UNL d   1     -38.705  13.725  21.543  0.00  0.00     0.083 A 
ATOM     18  C   UNL d   1     -38.858  14.271  22.854  0.00  0.00     0.083 A 
ATOM     19  C   UNL d   1     -38.225  13.128  21.846  0.00  0.00     0.019 A 
ATOM     20  C   UNL d   1     -38.063  13.102  22.652  0.00  0.00     0.003 A 
ATOM     21  C   UNL d   1     -38.379  13.674  23.156  0.00  0.00     0.019 A 
ATOM     22  O   UNL d   1     -39.818  15.467  22.245  0.00  0.00    -0.267 OA
ENDBRANCH   2  15
TORSDOF 5
ENDMDL
MODEL 4
REMARK VINA RESULT:      -5.4      8.428      9.590
REMARK  5 active torsions:
REMARK  status: ('A' for Active; 'I' for Inactive)
REMARK    1  A    between atoms: C_4  and  S_1 
REMARK    2  A    between atoms: N_5  and  S_1 
REMARK    3  A    between atoms: C_2  and  C_8 
REMARK       I    between atoms: N_3  and  C_2 
REMARK    4  A    between atoms: C_16  and  N_5 
REMARK    5  A    between atoms: C_17  and  N_5 
ROOT
ATOM      1  C   UNL d   1     -39.587  14.516  20.669  0.00  0.00     0.104 A 
ATOM      2  C   UNL d   1     -40.209  14.498  19.138  0.00  0.00     0.057 A 
ATOM      3  C   UNL d   1     -40.236  14.995  20.478  0.00  0.00     0.013 A 
ATOM      4  C   UNL d   1     -39.250  14.029  20.096  0.00  0.00     0.013 A 
ATOM      5  C   UNL d   1     -40.545  14.986  19.715  0.00  0.00     0.005 A 
ATOM      6  C   UNL d   1     -39.560  14.019  19.329  0.00  0.00     0.005 A 
ENDROOT
BRANCH   1   7
ATOM      7  S   UNL d   1     -39.277  14.528  21.440  0.00  0.00     0.271 S 
ATOM      8  O   UNL d   1     -38.555  15.017  21.258  0.00  0.00    -0.200 OA
ATOM      9  O   UNL d   1     -40.020  14.007  21.706  0.00  0.00    -0.200 OA
BRANCH   7  10
ATOM     10  N   UNL d   1     -38.971  14.540  22.201  0.00  0.00    -0.229 N 
BRANCH  10  11
ATOM     11  C   UNL d   1     -38.970  13.846  22.653  0.00  0.00     0.092 C 
ATOM     12  C   UNL d   1     -38.292  13.625  23.066  0.00  0.00     0.021 C 
ENDBRANCH  10  11
BRANCH  10  13
ATOM     13  C   UNL d   1     -38.665  15.236  22.521  0.00  0.00     0.092 C 
ATOM     14  C   UNL d   1     -38.817  15.420  23.312  0.00  0.00     0.021 C 
ENDBRANCH  10  13
ENDBRANCH   7  10
ENDBRANCH   1   7
BRANCH   2  15
ATOM     15  C   UNL d   1     -40.525  14.494  18.373  0.00  0.00     0.265 C 
ATOM     16  N   UNL d   1     -40.185  14.970  17.794  0.00  0.00    -0.272 N 
ATOM     17  C   UNL d   1     -39.537  15.446  17.977  0.00  0.00     0.083 A 
ATOM     18  C   UNL d   1     -40.495  14.970  17.030  0.00  0.00     0.083 A 
ATOM     19  C   UNL d   1     -39.198  15.922  17.396  0.00  0.00     0.019 A 
ATOM     20  C   UNL d   1     -39.507  15.922  16.634  0.00  0.00     0.003 A 
ATOM     21  C   UNL d   1     -40.155  15.446  16.451  0.00  0.00     0.019 A 
ATOM     22  O   UNL d   1     -41.173  14.016  18.194  0.00  0.00    -0.267 OA
ENDBRANCH   2  15
TORSDOF 5
ENDMDL
MODEL 5
REMARK VINA RESULT:      -5.3      8.343     10.028
REMARK  5 active torsions:
REMARK  status: ('A' for Active; 'I' for Inactive)
REMARK    1  A    between atoms: C_4  and  S_1 
REMARK    2  A    between atoms: N_5  and  S_1 
REMARK    3  A    between atoms: C_2  and  C_8 
REMARK       I    between atoms: N_3  and  C_2 
REMARK    4  A    between atoms: C_16  and  N_5 
REMARK    5  A    between atoms: C_17  and  N_5 
ROOT
ATOM      1  C   UNL d   1     -39.580  14.623  19.172  0.00  0.00     0.104 A 
ATOM      2  C   UNL d   1     -38.888  13.877  17.871  0.00  0.00     0.057 A 
ATOM      3  C   UNL d   1     -38.755  14.584  19.105  0.00  0.00     0.013 A 
ATOM      4  C   UNL d   1     -40.058  14.290  18.590  0.00  0.00     0.013 A 
ATOM      5  C   UNL d   1     -38.411  14.212  18.457  0.00  0.00     0.005 A 
ATOM      6  C   UNL d   1     -39.714  13.916  17.937  0.00  0.00     0.005 A 
ENDROOT
BRANCH   1   7
ATOM      7  S   UNL d   1     -39.924  14.999  19.828  0.00  0.00     0.271 S 
ATOM      8  O   UNL d   1     -39.809  15.836  19.546  0.00  0.00    -0.200 OA
ATOM      9  O   UNL d   1     -40.080  14.140  20.191  0.00  0.00    -0.200 OA
BRANCH   7  10
ATOM     10  N   UNL d   1     -40.264  15.370  20.476  0.00  0.00    -0.229 N 
BRANCH  10  11
ATOM     11  C   UNL d   1     -40.885  15.907  20.362  0.00  0.00     0.092 C 
ATOM     12  C   UNL d   1     -41.518  15.922  20.890  0.00  0.00     0.021 C 
ENDBRANCH  10  11
BRANCH  10  13
ATOM     13  C   UNL d   1     -39.994  15.216  21.240  0.00  0.00     0.092 C 
ATOM     14  C   UNL d   1     -39.838  15.846  21.751  0.00  0.00     0.021 C 
ENDBRANCH  10  13
ENDBRANCH   7  10
ENDBRANCH   1   7
BRANCH   2  15
ATOM     15  C   UNL d   1     -38.536  13.504  17.221  0.00  0.00     0.265 C 
ATOM     16  N   UNL d   1     -38.413  13.932  16.528  0.00  0.00    -0.272 N 
ATOM     17  C   UNL d   1     -38.640  14.724  16.486  0.00  0.00     0.083 A 
ATOM     18  C   UNL d   1     -38.062  13.567  15.878  0.00  0.00     0.083 A 
ATOM     19  C   UNL d   1     -38.517  15.151  15.792  0.00  0.00     0.019 A 
ATOM     20  C   UNL d   1     -38.167  14.787  15.143  0.00  0.00     0.003 A 
ATOM     21  C   UNL d   1     -37.940  13.995  15.186  0.00  0.00     0.019 A 
ATOM     22  O   UNL d   1     -38.310  12.712  17.267  0.00  0.00    -0.267 OA
ENDBRANCH   2  15
TORSDOF 5
ENDMDL
