MODEL 1
REMARK VINA RESULT:      -2.1      0.000      0.000
REMARK  5 active torsions:
REMARK  status: ('A' for Active; 'I' for Inactive)
REMARK    1  A    between atoms: C_7  and  C_1 
REMARK    2  A    between atoms: C_6  and  O_13 
REMARK    3  A    between atoms: C_12  and  C_6 
REMARK    4  A    between atoms: O_13  and  C_10 
REMARK    5  A    between atoms: C_28  and  C_14 
ROOT
ATOM      1  C   UNL d   1     -41.733-123.158 -50.259  0.00  0.00     0.064 A 
ATOM      2  C   UNL d   1     -41.509-122.267 -51.349  0.00  0.00     0.062 A 
ATOM      3  C   UNL d   1     -41.580-122.398 -50.538  0.00  0.00     0.199 A 
ATOM      4  C   UNL d   1     -41.815-123.784 -50.788  0.00  0.00     0.126 A 
ATOM      5  C   UNL d   1     -41.591-122.893 -51.878  0.00  0.00     0.105 A 
ATOM      6  O   UNL d   1     -41.744-123.653 -51.598  0.00  0.00    -0.305 OA
ATOM      7  C   UNL d   1     -41.356-121.508 -51.628  0.00  0.00     0.007 A 
ATOM      8  C   UNL d   1     -41.366-122.000 -52.970  0.00  0.00     0.105 A 
ATOM      9  C   UNL d   1     -41.520-122.762 -52.687  0.00  0.00     0.050 A 
ATOM     10  C   UNL d   1     -41.285-121.373 -52.441  0.00  0.00     0.023 A 
ATOM     11  O   UNL d   1     -41.499-121.771 -50.009  0.00  0.00    -0.286 OA
ENDROOT
BRANCH   1  12
ATOM     12  C   UNL d   1     -41.804-123.289 -49.449  0.00  0.00     0.007 A 
ATOM     13  C   UNL d   1     -42.555-123.415 -49.108  0.00  0.00     0.027 A 
ATOM     14  C   UNL d   1     -42.630-123.546 -48.306  0.00  0.00     0.123 A 
ATOM     15  O   UNL d   1     -43.374-123.669 -47.976  0.00  0.00    -0.301 OA
ATOM     16  C   UNL d   1     -41.950-123.555 -47.818  0.00  0.00     0.123 A 
ATOM     17  C   UNL d   1     -43.447-123.802 -47.162  0.00  0.00     0.149 A 
ATOM     18  C   UNL d   1     -42.779-123.811 -46.678  0.00  0.00     0.149 A 
ATOM     19  O   UNL d   1     -42.025-123.687 -47.010  0.00  0.00    -0.301 OA
ATOM     20  C   UNL d   1     -41.199-123.429 -48.159  0.00  0.00     0.027 A 
ATOM     21  C   UNL d   1     -41.129-123.298 -48.969  0.00  0.00     0.002 A 
ENDBRANCH   1  12
BRANCH  10  22
ATOM     22  C   UNL d   1     -41.130-120.609 -52.727  0.00  0.00     0.002 C 
ATOM     23  C   UNL d   1     -41.285-119.952 -52.255  0.00  0.00     0.000 C 
ENDBRANCH  10  22
BRANCH   8  24
ATOM     24  O   UNL d   1     -41.294-121.863 -53.787  0.00  0.00    -0.271 OA
BRANCH  24  25
ATOM     25  C   UNL d   1     -41.459-122.467 -54.323  0.00  0.00     0.323 C 
ATOM     26  O   UNL d   1     -41.137-123.215 -54.222  0.00  0.00    -0.257 OA
BRANCH  25  27
ATOM     27  C   UNL d   1     -41.954-122.319 -54.971  0.00  0.00     0.163 A 
ATOM     28  O   UNL d   1     -42.726-122.586 -55.065  0.00  0.00    -0.300 OA
ATOM     29  C   UNL d   1     -43.015-122.312 -55.788  0.00  0.00     0.123 A 
ATOM     30  C   UNL d   1     -42.410-121.868 -56.143  0.00  0.00     0.029 A 
ATOM     31  C   UNL d   1     -41.755-121.875 -55.633  0.00  0.00     0.032 A 
ENDBRANCH  25  27
ENDBRANCH  24  25
ENDBRANCH   8  24
TORSDOF 5
ENDMDL
