MODEL 1
REMARK VINA RESULT:      13.9      0.000      0.000
REMARK  1 active torsions:
REMARK  status: ('A' for Active; 'I' for Inactive)
REMARK    1  A    between atoms: C_2  and  C_1 
REMARK       I    between atoms: N_3  and  C_2 
ROOT
ATOM      1  C   UNL d   1      46.398 -18.551  43.526  0.00  0.00     0.109 A 
ATOM      2  C   UNL d   1      46.523 -18.772  44.238  0.00  0.00     0.026 A 
ATOM      3  C   UNL d   1      46.398 -19.094  43.060  0.00  0.00    -0.014 A 
ATOM      4  C   UNL d   1      46.328 -18.866  42.753  0.00  0.00    -0.014 A 
ATOM      5  C   UNL d   1      46.625 -19.602  44.255  0.00  0.00     0.045 A 
ATOM      6  C   UNL d   1      46.409 -19.552  42.750  0.00  0.00    -0.007 A 
ATOM      7  C   UNL d   1      46.502 -19.950  43.074  0.00  0.00    -0.007 A 
ATOM      8  C   UNL d   1      46.624 -20.165  43.769  0.00  0.00    -0.022 A 
ATOM      9  C   UNL d   1      46.434 -20.288  42.294  0.00  0.00    -0.001 A 
ATOM     10  C   UNL d   1      46.572 -19.862  43.652  0.00  0.00    -0.022 A 
ENDROOT
BRANCH   1  11
ATOM     11  C   UNL d   1      46.270 -17.654  43.378  0.00  0.00     0.248 C 
ATOM     12  N   UNL d   1      45.974 -17.036  43.786  0.00  0.00    -0.275 N 
ATOM     13  C   UNL d   1      45.956 -16.313  43.458  0.00  0.00     0.083 A 
ATOM     14  C   UNL d   1      45.697 -17.160  44.527  0.00  0.00     0.083 A 
ATOM     15  C   UNL d   1      45.648 -15.678  43.886  0.00  0.00     0.019 A 
ATOM     16  C   UNL d   1      45.365 -15.784  44.632  0.00  0.00     0.003 A 
ATOM     17  C   UNL d   1      45.389 -16.526  44.955  0.00  0.00     0.019 A 
ATOM     18  O   UNL d   1      46.635 -17.769  42.544  0.00  0.00    -0.271 OA
ENDBRANCH   1  11
TORSDOF 1
ENDMDL
MODEL 2
REMARK VINA RESULT:      14.0      7.632      8.081
REMARK  1 active torsions:
REMARK  status: ('A' for Active; 'I' for Inactive)
REMARK    1  A    between atoms: C_2  and  C_1 
REMARK       I    between atoms: N_3  and  C_2 
ROOT
ATOM      1  C   UNL d   1      45.197 -15.517  36.636  0.00  0.00     0.109 A 
ATOM      2  C   UNL d   1      45.833 -15.842  36.389  0.00  0.00     0.026 A 
ATOM      3  C   UNL d   1      45.306 -14.873  36.926  0.00  0.00    -0.014 A 
ATOM      4  C   UNL d   1      44.929 -14.816  37.007  0.00  0.00    -0.014 A 
ATOM      5  C   UNL d   1      46.478 -15.331  36.538  0.00  0.00     0.045 A 
ATOM      6  C   UNL d   1      45.451 -14.383  37.137  0.00  0.00    -0.007 A 
ATOM      7  C   UNL d   1      45.968 -14.344  37.081  0.00  0.00    -0.007 A 
ATOM      8  C   UNL d   1      46.589 -14.661  36.840  0.00  0.00    -0.022 A 
ATOM      9  C   UNL d   1      45.714 -13.623  37.460  0.00  0.00    -0.001 A 
ATOM     10  C   UNL d   1      46.281 -14.775  36.831  0.00  0.00    -0.022 A 
ENDROOT
BRANCH   1  11
ATOM     11  C   UNL d   1      44.414 -15.985  36.526  0.00  0.00     0.248 C 
ATOM     12  N   UNL d   1      43.637 -15.812  36.484  0.00  0.00    -0.275 N 
ATOM     13  C   UNL d   1      43.104 -16.393  36.383  0.00  0.00     0.083 A 
ATOM     14  C   UNL d   1      43.407 -15.047  36.544  0.00  0.00     0.083 A 
ATOM     15  C   UNL d   1      42.301 -16.207  36.339  0.00  0.00     0.019 A 
ATOM     16  C   UNL d   1      42.052 -15.444  36.398  0.00  0.00     0.003 A 
ATOM     17  C   UNL d   1      42.605 -14.862  36.501  0.00  0.00     0.019 A 
ATOM     18  O   UNL d   1      44.913 -16.754  36.487  0.00  0.00    -0.271 OA
ENDBRANCH   1  11
TORSDOF 1
ENDMDL
