MODEL 1
REMARK VINA RESULT:      40.1      0.000      0.000
REMARK  3 active torsions:
REMARK  status: ('A' for Active; 'I' for Inactive)
REMARK    1  A    between atoms: C_8  and  C_3 
REMARK    2  A    between atoms: O_18  and  C_12 
REMARK    3  A    between atoms: O_19  and  C_13 
ROOT
ATOM      1  S   UNL d   1      59.805  49.623  50.761  0.00  0.00     0.211 S 
ATOM      2  C   UNL d   1      60.610  49.622  51.102  0.00  0.00     0.103 A 
ATOM      3  C   UNL d   1      59.061  49.645  51.177  0.00  0.00     0.093 A 
ATOM      4  N   UNL d   1      60.306  49.664  52.442  0.00  0.00    -0.321 N 
ATOM      5  C   UNL d   1      59.466  49.677  52.472  0.00  0.00     0.258 A 
ATOM      6  C   UNL d   1      60.790  49.642  51.899  0.00  0.00     0.070 A 
ATOM      7  C   UNL d   1      58.955  49.670  51.983  0.00  0.00     0.072 A 
ATOM      8  O   UNL d   1      59.497  49.606  50.013  0.00  0.00    -0.217 OA
ATOM      9  O   UNL d   1      60.544  49.600  50.308  0.00  0.00    -0.217 OA
ATOM     10  O   UNL d   1      59.137  49.706  53.332  0.00  0.00    -0.267 OA
ATOM     11  C   UNL d   1      61.210  49.598  50.541  0.00  0.00     0.013 A 
ATOM     12  C   UNL d   1      61.567  49.638  52.142  0.00  0.00     0.018 A 
ATOM     13  C   UNL d   1      62.003  49.594  50.783  0.00  0.00     0.001 A 
ATOM     14  C   UNL d   1      62.168  49.615  51.591  0.00  0.00     0.002 A 
ATOM     15  H   UNL d   1      60.651  49.681  53.193  0.00  0.00     0.169 HD
ENDROOT
BRANCH   3  16
ATOM     16  C   UNL d   1      58.373  49.642  50.711  0.00  0.00     0.013 A 
ATOM     17  C   UNL d   1      57.628  49.669  51.070  0.00  0.00     0.027 A 
ATOM     18  C   UNL d   1      56.949  49.665  50.599  0.00  0.00     0.116 A 
ATOM     19  C   UNL d   1      57.008  49.634  49.790  0.00  0.00     0.116 A 
ATOM     20  C   UNL d   1      57.754  49.606  49.422  0.00  0.00     0.026 A 
ATOM     21  C   UNL d   1      58.442  49.610  49.882  0.00  0.00     0.003 A 
BRANCH  18  22
ATOM     22  O   UNL d   1      56.203  49.693  50.959  0.00  0.00    -0.326 OA
ATOM     23  C   UNL d   1      56.128  49.626  51.777  0.00  0.00     0.181 C 
ENDBRANCH  18  22
BRANCH  19  24
ATOM     24  O   UNL d   1      56.322  49.630  49.321  0.00  0.00    -0.326 OA
ATOM     25  C   UNL d   1      56.152  48.987  48.846  0.00  0.00     0.181 C 
ENDBRANCH  19  24
ENDBRANCH   3  16
TORSDOF 3
ENDMDL
