MODEL 1
REMARK VINA RESULT:      -8.9      0.000      0.000
REMARK  5 active torsions:
REMARK  status: ('A' for Active; 'I' for Inactive)
REMARK    1  A    between atoms: N_4  and  C_1 
REMARK    2  A    between atoms: S_3  and  C_9 
REMARK       I    between atoms: C_6  and  N_4 
REMARK    3  A    between atoms: C_11  and  C_5 
REMARK    4  A    between atoms: C_10  and  C_6 
REMARK    5  A    between atoms: O_25  and  C_22 
ROOT
ATOM      1  C   UNL d   1      51.088  34.091  53.025  0.00  0.00     0.197 A 
ATOM      2  N   UNL d   1      51.315  33.302  53.116  0.00  0.00    -0.221 NA
ATOM      3  C   UNL d   1      52.131  33.270  53.164  0.00  0.00     0.090 A 
ATOM      4  S   UNL d   1      51.771  34.539  53.018  0.00  0.00    -0.046 SA
ATOM      5  C   UNL d   1      52.416  34.022  53.105  0.00  0.00     0.058 A 
ENDROOT
BRANCH   1   6
ATOM      6  N   UNL d   1      50.353  34.455  52.949  0.00  0.00    -0.183 NA
ATOM      7  C   UNL d   1      49.971  34.465  52.217  0.00  0.00     0.281 C 
ATOM      8  O   UNL d   1      50.327  34.113  51.571  0.00  0.00    -0.265 OA
BRANCH   7   9
ATOM      9  C   UNL d   1      49.235  34.828  52.140  0.00  0.00     0.058 A 
ATOM     10  C   UNL d   1      48.917  35.252  52.768  0.00  0.00     0.005 A 
ATOM     11  C   UNL d   1      48.181  35.615  52.691  0.00  0.00     0.011 A 
ATOM     12  C   UNL d   1      47.763  35.555  51.987  0.00  0.00     0.084 A 
ATOM     13  C   UNL d   1      48.080  35.130  51.356  0.00  0.00     0.011 A 
ATOM     14  C   UNL d   1      48.816  34.767  51.433  0.00  0.00     0.005 A 
BRANCH  12  15
ATOM     15  S   UNL d   1      47.027  35.919  51.911  0.00  0.00     0.191 S 
ATOM     16  O   UNL d   1      47.369  36.648  52.086  0.00  0.00    -0.222 OA
ATOM     17  O   UNL d   1      46.684  35.189  51.736  0.00  0.00    -0.222 OA
ATOM     18  C   UNL d   1      46.291  36.282  51.835  0.00  0.00     0.145 C 
ENDBRANCH  12  15
ENDBRANCH   7   9
ENDBRANCH   1   6
BRANCH   3  19
ATOM     19  C   UNL d   1      52.554  32.567  53.257  0.00  0.00     0.018 A 
ATOM     20  C   UNL d   1      53.248  32.570  53.722  0.00  0.00     0.004 A 
ATOM     21  C   UNL d   1      53.671  31.866  53.815  0.00  0.00     0.024 A 
ATOM     22  C   UNL d   1      53.415  31.160  53.454  0.00  0.00     0.094 A 
ATOM     23  C   UNL d   1      52.728  31.165  52.997  0.00  0.00     0.024 A 
ATOM     24  C   UNL d   1      52.301  31.874  52.902  0.00  0.00     0.004 A 
BRANCH  22  25
ATOM     25  O   UNL d   1      53.847  30.452  53.551  0.00  0.00    -0.328 OA
ATOM     26  C   UNL d   1      53.447  29.730  53.659  0.00  0.00     0.181 C 
ENDBRANCH  22  25
ENDBRANCH   3  19
TORSDOF 5
ENDMDL
MODEL 2
REMARK VINA RESULT:      -8.6      1.246      1.670
REMARK  5 active torsions:
REMARK  status: ('A' for Active; 'I' for Inactive)
REMARK    1  A    between atoms: N_4  and  C_1 
REMARK    2  A    between atoms: S_3  and  C_9 
REMARK       I    between atoms: C_6  and  N_4 
REMARK    3  A    between atoms: C_11  and  C_5 
REMARK    4  A    between atoms: C_10  and  C_6 
REMARK    5  A    between atoms: O_25  and  C_22 
ROOT
ATOM      1  C   UNL d   1      51.064  33.440  53.177  0.00  0.00     0.197 A 
ATOM      2  N   UNL d   1      51.756  33.705  53.543  0.00  0.00    -0.221 NA
ATOM      3  C   UNL d   1      52.306  33.099  53.527  0.00  0.00     0.090 A 
ATOM      4  S   UNL d   1      51.197  32.670  52.939  0.00  0.00    -0.046 SA
ATOM      5  C   UNL d   1      51.971  32.465  53.160  0.00  0.00     0.058 A 
ENDROOT
BRANCH   1   6
ATOM      6  N   UNL d   1      50.337  33.800  53.032  0.00  0.00    -0.183 NA
ATOM      7  C   UNL d   1      50.255  34.326  52.401  0.00  0.00     0.281 C 
ATOM      8  O   UNL d   1      50.898  34.487  51.923  0.00  0.00    -0.265 OA
BRANCH   7   9
ATOM      9  C   UNL d   1      49.528  34.686  52.257  0.00  0.00     0.058 A 
ATOM     10  C   UNL d   1      49.173  35.147  52.837  0.00  0.00     0.005 A 
ATOM     11  C   UNL d   1      48.446  35.507  52.692  0.00  0.00     0.011 A 
ATOM     12  C   UNL d   1      48.073  35.407  51.967  0.00  0.00     0.084 A 
ATOM     13  C   UNL d   1      48.428  34.945  51.384  0.00  0.00     0.011 A 
ATOM     14  C   UNL d   1      49.155  34.585  51.528  0.00  0.00     0.005 A 
BRANCH  12  15
ATOM     15  S   UNL d   1      47.346  35.767  51.822  0.00  0.00     0.191 S 
ATOM     16  O   UNL d   1      47.576  36.415  52.277  0.00  0.00    -0.222 OA
ATOM     17  O   UNL d   1      47.115  35.119  51.367  0.00  0.00    -0.222 OA
ATOM     18  C   UNL d   1      46.619  36.127  51.678  0.00  0.00     0.145 C 
ENDBRANCH  12  15
ENDBRANCH   7   9
ENDBRANCH   1   6
BRANCH   3  19
ATOM     19  C   UNL d   1      53.065  33.167  53.845  0.00  0.00     0.018 A 
ATOM     20  C   UNL d   1      53.170  33.585  54.561  0.00  0.00     0.004 A 
ATOM     21  C   UNL d   1      53.930  33.652  54.878  0.00  0.00     0.024 A 
ATOM     22  C   UNL d   1      54.587  33.311  54.496  0.00  0.00     0.094 A 
ATOM     23  C   UNL d   1      54.475  32.899  53.790  0.00  0.00     0.024 A 
ATOM     24  C   UNL d   1      53.710  32.831  53.468  0.00  0.00     0.004 A 
BRANCH  22  25
ATOM     25  O   UNL d   1      55.352  33.382  54.822  0.00  0.00    -0.328 OA
ATOM     26  C   UNL d   1      55.548  34.041  55.290  0.00  0.00     0.181 C 
ENDBRANCH  22  25
ENDBRANCH   3  19
TORSDOF 5
ENDMDL
MODEL 3
REMARK VINA RESULT:      -8.1      1.503      6.165
REMARK  5 active torsions:
REMARK  status: ('A' for Active; 'I' for Inactive)
REMARK    1  A    between atoms: N_4  and  C_1 
REMARK    2  A    between atoms: S_3  and  C_9 
REMARK       I    between atoms: C_6  and  N_4 
REMARK    3  A    between atoms: C_11  and  C_5 
REMARK    4  A    between atoms: C_10  and  C_6 
REMARK    5  A    between atoms: O_25  and  C_22 
ROOT
ATOM      1  C   UNL d   1      49.407  34.500  51.665  0.00  0.00     0.197 A 
ATOM      2  N   UNL d   1      48.803  34.898  52.064  0.00  0.00    -0.221 NA
ATOM      3  C   UNL d   1      48.221  35.096  51.523  0.00  0.00     0.090 A 
ATOM      4  S   UNL d   1      49.189  34.457  50.879  0.00  0.00    -0.046 SA
ATOM      5  C   UNL d   1      48.452  34.829  50.798  0.00  0.00     0.058 A 
ENDROOT
BRANCH   1   6
ATOM      6  N   UNL d   1      50.121  34.174  51.917  0.00  0.00    -0.183 NA
ATOM      7  C   UNL d   1      50.410  34.346  52.671  0.00  0.00     0.281 C 
ATOM      8  O   UNL d   1      49.984  34.839  53.164  0.00  0.00    -0.265 OA
BRANCH   7   9
ATOM      9  C   UNL d   1      51.124  34.020  52.923  0.00  0.00     0.058 A 
ATOM     10  C   UNL d   1      51.158  33.236  53.163  0.00  0.00     0.005 A 
ATOM     11  C   UNL d   1      51.872  32.910  53.415  0.00  0.00     0.011 A 
ATOM     12  C   UNL d   1      52.552  33.369  53.427  0.00  0.00     0.084 A 
ATOM     13  C   UNL d   1      52.521  34.157  53.186  0.00  0.00     0.011 A 
ATOM     14  C   UNL d   1      51.807  34.482  52.934  0.00  0.00     0.005 A 
BRANCH  12  15
ATOM     15  S   UNL d   1      53.267  33.043  53.679  0.00  0.00     0.191 S 
ATOM     16  O   UNL d   1      53.331  32.633  52.967  0.00  0.00    -0.222 OA
ATOM     17  O   UNL d   1      53.203  33.454  54.392  0.00  0.00    -0.222 OA
ATOM     18  C   UNL d   1      53.981  32.718  53.931  0.00  0.00     0.145 C 
ENDBRANCH  12  15
ENDBRANCH   7   9
ENDBRANCH   1   6
BRANCH   3  19
ATOM     19  C   UNL d   1      47.531  35.500  51.726  0.00  0.00     0.018 A 
ATOM     20  C   UNL d   1      46.807  35.263  51.382  0.00  0.00     0.004 A 
ATOM     21  C   UNL d   1      46.116  35.668  51.585  0.00  0.00     0.024 A 
ATOM     22  C   UNL d   1      46.133  36.304  52.124  0.00  0.00     0.094 A 
ATOM     23  C   UNL d   1      46.851  36.531  52.459  0.00  0.00     0.024 A 
ATOM     24  C   UNL d   1      47.549  36.124  52.256  0.00  0.00     0.004 A 
BRANCH  22  25
ATOM     25  O   UNL d   1      45.431  36.709  52.326  0.00  0.00    -0.328 OA
ATOM     26  C   UNL d   1      44.930  36.410  52.919  0.00  0.00     0.181 C 
ENDBRANCH  22  25
ENDBRANCH   3  19
TORSDOF 5
ENDMDL
MODEL 4
REMARK VINA RESULT:      -6.7      9.915     10.513
REMARK  5 active torsions:
REMARK  status: ('A' for Active; 'I' for Inactive)
REMARK    1  A    between atoms: N_4  and  C_1 
REMARK    2  A    between atoms: S_3  and  C_9 
REMARK       I    between atoms: C_6  and  N_4 
REMARK    3  A    between atoms: C_11  and  C_5 
REMARK    4  A    between atoms: C_10  and  C_6 
REMARK    5  A    between atoms: O_25  and  C_22 
ROOT
ATOM      1  C   UNL d   1      44.492  25.953  56.742  0.00  0.00     0.197 A 
ATOM      2  N   UNL d   1      44.593  25.676  55.969  0.00  0.00    -0.221 NA
ATOM      3  C   UNL d   1      44.580  24.858  55.983  0.00  0.00     0.090 A 
ATOM      4  S   UNL d   1      44.418  25.299  57.224  0.00  0.00    -0.046 SA
ATOM      5  C   UNL d   1      44.474  24.622  56.747  0.00  0.00     0.058 A 
ENDROOT
BRANCH   1   6
ATOM      6  N   UNL d   1      44.458  26.712  57.062  0.00  0.00    -0.183 NA
ATOM      7  C   UNL d   1      45.113  27.212  57.008  0.00  0.00     0.281 C 
ATOM      8  O   UNL d   1      45.792  26.950  56.637  0.00  0.00    -0.265 OA
BRANCH   7   9
ATOM      9  C   UNL d   1      45.079  27.970  57.329  0.00  0.00     0.058 A 
ATOM     10  C   UNL d   1      45.150  28.080  58.140  0.00  0.00     0.005 A 
ATOM     11  C   UNL d   1      45.117  28.838  58.460  0.00  0.00     0.011 A 
ATOM     12  C   UNL d   1      45.012  29.488  57.969  0.00  0.00     0.084 A 
ATOM     13  C   UNL d   1      44.940  29.381  57.155  0.00  0.00     0.011 A 
ATOM     14  C   UNL d   1      44.974  28.623  56.835  0.00  0.00     0.005 A 
BRANCH  12  15
ATOM     15  S   UNL d   1      44.978  30.248  58.290  0.00  0.00     0.191 S 
ATOM     16  O   UNL d   1      45.555  30.040  58.841  0.00  0.00    -0.222 OA
ATOM     17  O   UNL d   1      44.401  30.455  57.738  0.00  0.00    -0.222 OA
ATOM     18  C   UNL d   1      44.945  31.006  58.610  0.00  0.00     0.145 C 
ENDBRANCH  12  15
ENDBRANCH   7   9
ENDBRANCH   1   6
BRANCH   3  19
ATOM     19  C   UNL d   1      44.666  24.391  55.308  0.00  0.00     0.018 A 
ATOM     20  C   UNL d   1      45.098  23.678  55.360  0.00  0.00     0.004 A 
ATOM     21  C   UNL d   1      45.183  23.211  54.684  0.00  0.00     0.024 A 
ATOM     22  C   UNL d   1      44.846  23.440  53.958  0.00  0.00     0.094 A 
ATOM     23  C   UNL d   1      44.421  24.146  53.914  0.00  0.00     0.024 A 
ATOM     24  C   UNL d   1      44.334  24.618  54.594  0.00  0.00     0.004 A 
BRANCH  22  25
ATOM     25  O   UNL d   1      44.936  22.964  53.278  0.00  0.00    -0.328 OA
ATOM     26  C   UNL d   1      44.934  23.310  52.521  0.00  0.00     0.181 C 
ENDBRANCH  22  25
ENDBRANCH   3  19
TORSDOF 5
ENDMDL
MODEL 5
REMARK VINA RESULT:      -6.0     10.243     10.783
REMARK  5 active torsions:
REMARK  status: ('A' for Active; 'I' for Inactive)
REMARK    1  A    between atoms: N_4  and  C_1 
REMARK    2  A    between atoms: S_3  and  C_9 
REMARK       I    between atoms: C_6  and  N_4 
REMARK    3  A    between atoms: C_11  and  C_5 
REMARK    4  A    between atoms: C_10  and  C_6 
REMARK    5  A    between atoms: O_25  and  C_22 
ROOT
ATOM      1  C   UNL d   1      44.386  26.957  57.114  0.00  0.00     0.197 A 
ATOM      2  N   UNL d   1      44.518  26.146  57.211  0.00  0.00    -0.221 NA
ATOM      3  C   UNL d   1      44.526  25.795  56.472  0.00  0.00     0.090 A 
ATOM      4  S   UNL d   1      44.314  27.095  56.313  0.00  0.00    -0.046 SA
ATOM      5  C   UNL d   1      44.402  26.369  55.919  0.00  0.00     0.058 A 
ENDROOT
BRANCH   1   6
ATOM      6  N   UNL d   1      44.323  27.579  57.651  0.00  0.00    -0.183 NA
ATOM      7  C   UNL d   1      44.999  27.874  58.022  0.00  0.00     0.281 C 
ATOM      8  O   UNL d   1      45.728  27.546  57.853  0.00  0.00    -0.265 OA
BRANCH   7   9
ATOM      9  C   UNL d   1      44.936  28.497  58.558  0.00  0.00     0.058 A 
ATOM     10  C   UNL d   1      44.648  28.362  59.315  0.00  0.00     0.005 A 
ATOM     11  C   UNL d   1      44.585  28.984  59.852  0.00  0.00     0.011 A 
ATOM     12  C   UNL d   1      44.810  29.742  59.632  0.00  0.00     0.084 A 
ATOM     13  C   UNL d   1      45.099  29.880  58.872  0.00  0.00     0.011 A 
ATOM     14  C   UNL d   1      45.162  29.258  58.336  0.00  0.00     0.005 A 
BRANCH  12  15
ATOM     15  S   UNL d   1      44.747  30.365  60.169  0.00  0.00     0.191 S 
ATOM     16  O   UNL d   1      44.736  30.902  59.544  0.00  0.00    -0.222 OA
ATOM     17  O   UNL d   1      44.757  29.827  60.794  0.00  0.00    -0.222 OA
ATOM     18  C   UNL d   1      44.684  30.987  60.705  0.00  0.00     0.145 C 
ENDBRANCH  12  15
ENDBRANCH   7   9
ENDBRANCH   1   6
BRANCH   3  19
ATOM     19  C   UNL d   1      44.644  24.987  56.355  0.00  0.00     0.018 A 
ATOM     20  C   UNL d   1      44.491  24.459  56.984  0.00  0.00     0.004 A 
ATOM     21  C   UNL d   1      44.610  23.650  56.867  0.00  0.00     0.024 A 
ATOM     22  C   UNL d   1      44.877  23.356  56.134  0.00  0.00     0.094 A 
ATOM     23  C   UNL d   1      45.025  23.884  55.517  0.00  0.00     0.024 A 
ATOM     24  C   UNL d   1      44.907  24.699  55.634  0.00  0.00     0.004 A 
BRANCH  22  25
ATOM     25  O   UNL d   1      44.995  22.537  56.021  0.00  0.00    -0.328 OA
ATOM     26  C   UNL d   1      45.760  22.239  55.892  0.00  0.00     0.181 C 
ENDBRANCH  22  25
ENDBRANCH   3  19
TORSDOF 5
ENDMDL
