MODEL 1
REMARK VINA RESULT:      57.1      0.000      0.000
REMARK  7 active torsions:
REMARK  status: ('A' for Active; 'I' for Inactive)
REMARK    1  A    between atoms: C_12  and  N_3 
REMARK    2  A    between atoms: C_10  and  C_4 
REMARK    3  A    between atoms: C_15  and  C_12 
REMARK    4  A    between atoms: N_14  and  C_21 
REMARK    5  A    between atoms: C_22  and  N_14 
REMARK    6  A    between atoms: C_21  and  C_15 
REMARK    7  A    between atoms: C_20  and  C_22 
ROOT
ATOM      1  C   UNL d   1      14.319  13.394  -1.794  0.00  0.00     0.137 A 
ATOM      2  N   UNL d   1      14.038  12.675  -1.470  0.00  0.00    -0.259 N 
ATOM      3  N   UNL d   1      14.186  13.566  -2.595  0.00  0.00    -0.287 N 
ATOM      4  C   UNL d   1      14.729  13.930  -1.315  0.00  0.00     0.054 A 
ATOM      5  C   UNL d   1      14.166  12.492  -0.667  0.00  0.00     0.266 A 
ATOM      6  C   UNL d   1      13.495  12.316  -2.760  0.00  0.00     0.084 A 
ATOM      7  C   UNL d   1      13.777  13.030  -3.074  0.00  0.00     0.082 A 
ATOM      8  C   UNL d   1      14.862  13.756  -0.508  0.00  0.00     0.009 A 
ATOM      9  C   UNL d   1      14.581  13.036  -0.184  0.00  0.00     0.061 A 
ATOM     10  O   UNL d   1      13.889  11.783  -0.348  0.00  0.00    -0.267 OA
ATOM     11  C   UNL d   1      13.088  11.781  -3.236  0.00  0.00     0.019 A 
ATOM     12  C   UNL d   1      15.269  14.290  -0.033  0.00  0.00     0.000 C 
ATOM     13  C   UNL d   1      13.643  13.202  -3.875  0.00  0.00     0.019 A 
ATOM     14  C   UNL d   1      12.957  11.955  -4.029  0.00  0.00     0.002 A 
ATOM     15  C   UNL d   1      13.236  12.667  -4.350  0.00  0.00     0.002 A 
ENDROOT
BRANCH   3  16
ATOM     16  C   UNL d   1      14.466  14.276  -2.906  0.00  0.00     0.126 C 
BRANCH  16  17
ATOM     17  C   UNL d   1      13.937  14.803  -3.254  0.00  0.00     0.232 C 
ATOM     18  O   UNL d   1      13.132  14.624  -3.298  0.00  0.00    -0.283 OA
BRANCH  17  19
ATOM     19  C   UNL d   1      14.209  15.519  -3.562  0.00  0.00     0.142 C 
BRANCH  19  20
ATOM     20  N   UNL d   1      14.356  15.588  -4.373  0.00  0.00    -0.239 NA
BRANCH  20  21
ATOM     21  C   UNL d   1      14.784  16.229  -4.661  0.00  0.00     0.099 C 
BRANCH  21  22
ATOM     22  C   UNL d   1      14.446  16.732  -5.219  0.00  0.00     0.019 A 
ATOM     23  C   UNL d   1      13.987  16.428  -5.834  0.00  0.00     0.002 A 
ATOM     24  C   UNL d   1      13.651  16.932  -6.389  0.00  0.00     0.000 A 
ATOM     25  C   UNL d   1      13.774  17.751  -6.331  0.00  0.00     0.000 A 
ATOM     26  C   UNL d   1      14.234  18.051  -5.715  0.00  0.00     0.000 A 
ATOM     27  C   UNL d   1      14.567  17.545  -5.163  0.00  0.00     0.002 A 
ENDBRANCH  21  22
ENDBRANCH  20  21
ENDBRANCH  19  20
ENDBRANCH  17  19
ENDBRANCH  16  17
ENDBRANCH   3  16
BRANCH   4  28
ATOM     28  C   UNL d   1      15.005  14.638  -1.634  0.00  0.00     0.125 C 
ATOM     29  N   UNL d   1      15.156  15.285  -1.134  0.00  0.00    -0.146 N 
ENDBRANCH   4  28
TORSDOF 7
ENDMDL
