MODEL 1
REMARK VINA RESULT:      -5.7      0.000      0.000
REMARK  1 active torsions:
REMARK  status: ('A' for Active; 'I' for Inactive)
REMARK    1  A    between atoms: C_4  and  C_1 
ROOT
ATOM      1  C   UNL d   1      56.650  -0.343  31.969  0.00  0.00     0.024 A 
ATOM      2  C   UNL d   1      56.355  -1.007  32.361  0.00  0.00     0.002 A 
ATOM      3  C   UNL d   1      56.427   0.412  32.205  0.00  0.00     0.002 A 
ATOM      4  C   UNL d   1      55.837  -0.916  32.986  0.00  0.00     0.000 A 
ATOM      5  C   UNL d   1      55.904   0.508  32.836  0.00  0.00     0.000 A 
ATOM      6  C   UNL d   1      55.612  -0.159  33.224  0.00  0.00     0.000 A 
ATOM      7  C   UNL d   1      55.085  -0.069  33.860  0.00  0.00     0.000 C 
ENDROOT
BRANCH   1   8
ATOM      8  C   UNL d   1      57.173  -0.439  31.338  0.00  0.00     0.111 A 
ATOM      9  N   UNL d   1      57.266  -1.180  30.988  0.00  0.00    -0.237 NA
ATOM     10  C   UNL d   1      58.219  -0.629  30.075  0.00  0.00     0.106 A 
ATOM     11  C   UNL d   1      58.126   0.112  30.425  0.00  0.00     0.058 A 
ATOM     12  S   UNL d   1      57.603   0.208  31.056  0.00  0.00    -0.066 SA
ENDBRANCH   1   8
TORSDOF 1
ENDMDL
MODEL 2
REMARK VINA RESULT:      -4.5      0.927      2.999
REMARK  1 active torsions:
REMARK  status: ('A' for Active; 'I' for Inactive)
REMARK    1  A    between atoms: C_4  and  C_1 
ROOT
ATOM      1  C   UNL d   1      57.125  -0.409  31.404  0.00  0.00     0.024 A 
ATOM      2  C   UNL d   1      57.536  -0.946  30.930  0.00  0.00     0.002 A 
ATOM      3  C   UNL d   1      57.193   0.399  31.272  0.00  0.00     0.002 A 
ATOM      4  C   UNL d   1      58.014  -0.674  30.326  0.00  0.00     0.000 A 
ATOM      5  C   UNL d   1      57.675   0.677  30.662  0.00  0.00     0.000 A 
ATOM      6  C   UNL d   1      58.084   0.137  30.192  0.00  0.00     0.000 A 
ATOM      7  C   UNL d   1      58.570   0.410  29.577  0.00  0.00     0.000 C 
ENDROOT
BRANCH   1   8
ATOM      8  C   UNL d   1      56.643  -0.687  32.014  0.00  0.00     0.111 A 
ATOM      9  N   UNL d   1      56.495  -1.496  32.087  0.00  0.00    -0.237 NA
ATOM     10  C   UNL d   1      55.678  -1.242  33.233  0.00  0.00     0.106 A 
ATOM     11  C   UNL d   1      55.826  -0.434  33.160  0.00  0.00     0.058 A 
ATOM     12  S   UNL d   1      56.308  -0.156  32.550  0.00  0.00    -0.066 SA
ENDBRANCH   1   8
TORSDOF 1
ENDMDL
