MODEL 1
REMARK VINA RESULT:      -1.6      0.000      0.000
REMARK  5 active torsions:
REMARK  status: ('A' for Active; 'I' for Inactive)
REMARK       I    between atoms: C_5  and  N_1 
REMARK    1  A    between atoms: S_13  and  C_2 
REMARK    2  A    between atoms: S_3  and  C_9 
REMARK    3  A    between atoms: N_7  and  S_3 
REMARK    4  A    between atoms: C_12  and  C_5 
REMARK    5  A    between atoms: C_23  and  S_13 
ROOT
ATOM      1  C   UNL d   1      32.554  23.140 -19.732  0.00  0.00     0.104 A 
ATOM      2  C   UNL d   1      32.550  23.071 -21.380  0.00  0.00     0.057 A 
ATOM      3  C   UNL d   1      31.880  22.885 -20.134  0.00  0.00     0.013 A 
ATOM      4  C   UNL d   1      33.231  23.362 -20.158  0.00  0.00     0.013 A 
ATOM      5  C   UNL d   1      33.231  23.329 -20.984  0.00  0.00     0.005 A 
ATOM      6  C   UNL d   1      31.880  22.852 -20.956  0.00  0.00     0.005 A 
ENDROOT
BRANCH   2   7
ATOM      7  C   UNL d   1      32.551  23.039 -22.197  0.00  0.00     0.266 C 
ATOM      8  N   UNL d   1      32.795  22.354 -22.595  0.00  0.00    -0.253 N 
ATOM      9  C   UNL d   1      33.053  21.658 -22.234  0.00  0.00     0.182 A 
ATOM     10  C   UNL d   1      32.823  22.250 -23.414  0.00  0.00     0.086 A 
ATOM     11  N   UNL d   1      33.241  21.119 -22.834  0.00  0.00    -0.221 NA
ATOM     12  C   UNL d   1      33.100  21.482 -23.559  0.00  0.00     0.100 A 
ATOM     13  C   UNL d   1      33.185  21.221 -24.331  0.00  0.00     0.021 A 
ATOM     14  C   UNL d   1      32.998  21.716 -24.962  0.00  0.00     0.002 A 
ATOM     15  C   UNL d   1      32.721  22.483 -24.813  0.00  0.00     0.002 A 
ATOM     16  C   UNL d   1      32.636  22.743 -24.037  0.00  0.00     0.019 A 
ATOM     17  O   UNL d   1      32.306  23.699 -22.634  0.00  0.00    -0.267 OA
BRANCH   9  18
ATOM     18  S   UNL d   1      33.108  21.532 -21.426  0.00  0.00    -0.049 SA
BRANCH  18  19
ATOM     19  C   UNL d   1      32.843  20.652 -21.012  0.00  0.00     0.038 C 
ATOM     20  C   UNL d   1      33.206  19.807 -21.225  0.00  0.00     0.008 C 
ENDBRANCH  18  19
ENDBRANCH   9  18
ENDBRANCH   2   7
BRANCH   1  21
ATOM     21  S   UNL d   1      32.550  23.172 -18.905  0.00  0.00     0.271 S 
ATOM     22  O   UNL d   1      33.190  22.644 -18.873  0.00  0.00    -0.200 OA
ATOM     23  O   UNL d   1      31.912  23.698 -18.925  0.00  0.00    -0.200 OA
BRANCH  21  24
ATOM     24  N   UNL d   1      32.543  23.206 -18.077  0.00  0.00    -0.229 N 
ATOM     25  C   UNL d   1      33.112  22.791 -17.637  0.00  0.00     0.092 A 
ATOM     26  C   UNL d   1      33.106  22.824 -16.822  0.00  0.00     0.020 A 
ATOM     27  C   UNL d   1      32.537  23.269 -16.436  0.00  0.00     0.003 A 
ATOM     28  C   UNL d   1      31.964  23.688 -16.862  0.00  0.00     0.020 A 
ATOM     29  C   UNL d   1      31.975  23.650 -17.687  0.00  0.00     0.092 A 
ENDBRANCH  21  24
ENDBRANCH   1  21
TORSDOF 5
ENDMDL
MODEL 2
REMARK VINA RESULT:      -1.0      2.644      4.056
REMARK  5 active torsions:
REMARK  status: ('A' for Active; 'I' for Inactive)
REMARK       I    between atoms: C_5  and  N_1 
REMARK    1  A    between atoms: S_13  and  C_2 
REMARK    2  A    between atoms: S_3  and  C_9 
REMARK    3  A    between atoms: N_7  and  S_3 
REMARK    4  A    between atoms: C_12  and  C_5 
REMARK    5  A    between atoms: C_23  and  S_13 
ROOT
ATOM      1  C   UNL d   1      32.409  20.672 -21.625  0.00  0.00     0.104 A 
ATOM      2  C   UNL d   1      32.555  19.162 -22.274  0.00  0.00     0.057 A 
ATOM      3  C   UNL d   1      33.149  20.309 -21.669  0.00  0.00     0.013 A 
ATOM      4  C   UNL d   1      31.737  20.276 -21.908  0.00  0.00     0.013 A 
ATOM      5  C   UNL d   1      31.808  19.519 -22.234  0.00  0.00     0.005 A 
ATOM      6  C   UNL d   1      33.219  19.557 -21.993  0.00  0.00     0.005 A 
ENDROOT
BRANCH   2   7
ATOM      7  C   UNL d   1      32.623  18.413 -22.597  0.00  0.00     0.266 C 
ATOM      8  N   UNL d   1      32.825  18.311 -23.394  0.00  0.00    -0.253 N 
ATOM      9  C   UNL d   1      32.974  18.919 -23.931  0.00  0.00     0.182 A 
ATOM     10  C   UNL d   1      32.912  17.588 -23.786  0.00  0.00     0.086 A 
ATOM     11  N   UNL d   1      33.155  18.571 -24.660  0.00  0.00    -0.221 NA
ATOM     12  C   UNL d   1      33.116  17.754 -24.572  0.00  0.00     0.100 A 
ATOM     13  C   UNL d   1      33.239  17.136 -25.096  0.00  0.00     0.021 A 
ATOM     14  C   UNL d   1      33.160  16.355 -24.847  0.00  0.00     0.002 A 
ATOM     15  C   UNL d   1      32.956  16.194 -24.060  0.00  0.00     0.002 A 
ATOM     16  C   UNL d   1      32.833  16.815 -23.535  0.00  0.00     0.019 A 
ATOM     17  O   UNL d   1      32.489  17.748 -22.121  0.00  0.00    -0.267 OA
BRANCH   9  18
ATOM     18  S   UNL d   1      32.947  19.721 -23.764  0.00  0.00    -0.049 SA
BRANCH  18  19
ATOM     19  C   UNL d   1      33.241  20.409 -24.439  0.00  0.00     0.038 C 
ATOM     20  C   UNL d   1      32.679  20.863 -25.047  0.00  0.00     0.008 C 
ENDBRANCH  18  19
ENDBRANCH   9  18
ENDBRANCH   2   7
BRANCH   1  21
ATOM     21  S   UNL d   1      32.342  21.429 -21.299  0.00  0.00     0.271 S 
ATOM     22  O   UNL d   1      31.633  21.215 -20.926  0.00  0.00    -0.200 OA
ATOM     23  O   UNL d   1      33.048  21.654 -21.666  0.00  0.00    -0.200 OA
BRANCH  21  24
ATOM     24  N   UNL d   1      32.278  22.189 -20.974  0.00  0.00    -0.229 N 
ATOM     25  C   UNL d   1      32.651  22.368 -20.254  0.00  0.00     0.092 A 
ATOM     26  C   UNL d   1      32.589  23.115 -19.933  0.00  0.00     0.020 A 
ATOM     27  C   UNL d   1      32.157  23.691 -20.322  0.00  0.00     0.003 A 
ATOM     28  C   UNL d   1      31.780  23.527 -21.040  0.00  0.00     0.020 A 
ATOM     29  C   UNL d   1      31.847  22.768 -21.360  0.00  0.00     0.092 A 
ENDBRANCH  21  24
ENDBRANCH   1  21
TORSDOF 5
ENDMDL
