MODEL 1
REMARK VINA RESULT:      11.1      0.000      0.000
REMARK  8 active torsions:
REMARK  status: ('A' for Active; 'I' for Inactive)
REMARK    1  A    between atoms: C_2  and  N_1 
REMARK    2  A    between atoms: O_17  and  C_3 
REMARK    3  A    between atoms: O_18  and  C_4 
REMARK    4  A    between atoms: O_19  and  C_5 
REMARK    5  A    between atoms: O_21  and  C_6 
REMARK    6  A    between atoms: C_9  and  C_11 
REMARK    7  A    between atoms: C_12  and  C_9 
REMARK    8  A    between atoms: C_11  and  C_15 
ROOT
ATOM      1  C   UNL d   1      45.872 -16.630  43.764  0.00  0.00     0.000 C 
ENDROOT
BRANCH   1   2
ATOM      2  C   UNL d   1      45.890 -16.272  44.507  0.00  0.00     0.000 C 
BRANCH   2   3
ATOM      3  C   UNL d   1      45.829 -15.446  44.571  0.00  0.00     0.002 A 
ATOM      4  C   UNL d   1      45.126 -15.078  44.393  0.00  0.00     0.026 A 
ATOM      5  C   UNL d   1      45.063 -14.260  44.456  0.00  0.00     0.149 A 
ATOM      6  C   UNL d   1      45.713 -13.810  44.700  0.00  0.00     0.116 A 
ATOM      7  C   UNL d   1      46.424 -14.188  44.879  0.00  0.00     0.026 A 
ATOM      8  C   UNL d   1      46.489 -15.007  44.817  0.00  0.00     0.002 A 
BRANCH   5   9
ATOM      9  N   UNL d   1      44.350 -13.886  44.276  0.00  0.00    -0.112 N 
ATOM     10  O   UNL d   1      44.339 -13.251  43.746  0.00  0.00    -0.532 OA
ATOM     11  O   UNL d   1      43.641 -14.141  44.621  0.00  0.00    -0.532 OA
ENDBRANCH   5   9
BRANCH   6  12
ATOM     12  O   UNL d   1      45.655 -12.987  44.765  0.00  0.00    -0.326 OA
ATOM     13  C   UNL d   1      46.327 -12.540  44.953  0.00  0.00     0.181 C 
ENDBRANCH   6  12
ENDBRANCH   2   3
ENDBRANCH   1   2
BRANCH   1  14
ATOM     14  C   UNL d   1      46.065 -17.432  43.691  0.00  0.00     0.004 A 
ATOM     15  C   UNL d   1      46.080 -17.914  44.360  0.00  0.00     0.026 A 
ATOM     16  C   UNL d   1      46.275 -18.718  44.284  0.00  0.00     0.118 A 
ATOM     17  C   UNL d   1      46.453 -19.032  43.545  0.00  0.00     0.138 A 
ATOM     18  C   UNL d   1      46.438 -18.550  42.876  0.00  0.00     0.118 A 
ATOM     19  C   UNL d   1      46.245 -17.753  42.946  0.00  0.00     0.026 A 
BRANCH  16  20
ATOM     20  O   UNL d   1      46.290 -19.200  44.953  0.00  0.00    -0.326 OA
ATOM     21  C   UNL d   1      45.914 -19.933  44.942  0.00  0.00     0.181 C 
ENDBRANCH  16  20
BRANCH  17  22
ATOM     22  O   UNL d   1      46.645 -19.830  43.473  0.00  0.00    -0.324 OA
ATOM     23  C   UNL d   1      46.336 -20.273  42.853  0.00  0.00     0.182 C 
ENDBRANCH  17  22
BRANCH  18  24
ATOM     24  O   UNL d   1      46.615 -18.865  42.135  0.00  0.00    -0.326 OA
ATOM     25  C   UNL d   1      46.554 -18.392  41.464  0.00  0.00     0.181 C 
ENDBRANCH  18  24
ENDBRANCH   1  14
TORSDOF 8
ENDMDL
