MODEL 1
REMARK VINA RESULT:      67.4      0.000      0.000
REMARK  11 active torsions:
REMARK  status: ('A' for Active; 'I' for Inactive)
REMARK    1  A    between atoms: C_4  and  C_1 
REMARK    2  A    between atoms: C_10  and  C_2 
REMARK    3  A    between atoms: C_16  and  C_9 
REMARK    4  A    between atoms: O_24  and  C_10 
REMARK    5  A    between atoms: O_18  and  C_14 
REMARK    6  A    between atoms: O_25  and  C_16 
REMARK    7  A    between atoms: C_26  and  C_17 
REMARK    8  A    between atoms: C_19  and  O_18 
REMARK    9  A    between atoms: C_29  and  O_24 
REMARK   10  A    between atoms: C_28  and  O_25 
REMARK   11  A    between atoms: C_30  and  C_26 
ROOT
ATOM      1  C   UNL d   1      45.714 -17.989  40.770  0.00  0.00     0.090 A 
ATOM      2  C   UNL d   1      45.971 -18.773  40.771  0.00  0.00     0.168 A 
ATOM      3  C   UNL d   1      45.622 -17.585  41.491  0.00  0.00     0.201 A 
ATOM      4  C   UNL d   1      45.787 -17.965  42.212  0.00  0.00     0.062 A 
ATOM      5  O   UNL d   1      46.136 -19.152  41.492  0.00  0.00    -0.301 OA
ATOM      6  C   UNL d   1      46.044 -18.749  42.213  0.00  0.00     0.105 A 
ATOM      7  C   UNL d   1      45.694 -17.561  42.915  0.00  0.00     0.007 A 
ATOM      8  C   UNL d   1      46.208 -19.128  42.916  0.00  0.00     0.050 A 
ATOM      9  C   UNL d   1      46.116 -18.724  43.637  0.00  0.00     0.105 A 
ATOM     10  C   UNL d   1      45.859 -17.940  43.636  0.00  0.00     0.023 A 
ATOM     11  O   UNL d   1      45.365 -16.801  41.491  0.00  0.00    -0.286 OA
ENDROOT
BRANCH   1  12
ATOM     12  C   UNL d   1      45.549 -17.610  40.050  0.00  0.00     0.105 A 
ATOM     13  O   UNL d   1      44.831 -17.228  39.905  0.00  0.00    -0.302 OA
ATOM     14  C   UNL d   1      44.866 -16.924  39.152  0.00  0.00     0.163 A 
ATOM     15  C   UNL d   1      45.589 -17.108  38.826  0.00  0.00     0.032 A 
ATOM     16  C   UNL d   1      46.031 -17.545  39.390  0.00  0.00     0.027 A 
BRANCH  14  17
ATOM     17  C   UNL d   1      44.258 -16.487  38.762  0.00  0.00     0.323 C 
ATOM     18  O   UNL d   1      43.848 -15.878  39.187  0.00  0.00    -0.257 OA
BRANCH  17  19
ATOM     19  O   UNL d   1      44.055 -16.637  37.987  0.00  0.00    -0.270 OA
BRANCH  19  20
ATOM     20  C   UNL d   1      44.188 -16.090  37.386  0.00  0.00     0.126 C 
ATOM     21  C   UNL d   1      44.067 -16.286  36.611  0.00  0.00     0.029 C 
ENDBRANCH  19  20
ENDBRANCH  17  19
ENDBRANCH  14  17
ENDBRANCH   1  12
BRANCH   2  22
ATOM     22  C   UNL d   1      46.068 -19.197  40.034  0.00  0.00     0.323 C 
ATOM     23  O   UNL d   1      45.584 -19.017  39.402  0.00  0.00    -0.257 OA
BRANCH  22  24
ATOM     24  O   UNL d   1      46.645 -19.782  39.962  0.00  0.00    -0.270 OA
BRANCH  24  25
ATOM     25  C   UNL d   1      46.605 -20.326  39.335  0.00  0.00     0.126 C 
ATOM     26  C   UNL d   1      46.623 -20.054  38.556  0.00  0.00     0.029 C 
ENDBRANCH  24  25
ENDBRANCH  22  24
ENDBRANCH   2  22
BRANCH  10  27
ATOM     27  C   UNL d   1      45.763 -17.519  44.373  0.00  0.00     0.002 C 
BRANCH  27  28
ATOM     28  C   UNL d   1      46.166 -16.805  44.473  0.00  0.00     0.000 C 
ATOM     29  C   UNL d   1      45.755 -16.172  44.841  0.00  0.00     0.000 C 
ENDBRANCH  27  28
ENDBRANCH  10  27
BRANCH   9  30
ATOM     30  O   UNL d   1      46.289 -19.123  44.374  0.00  0.00    -0.273 OA
BRANCH  30  31
ATOM     31  C   UNL d   1      46.163 -19.915  44.430  0.00  0.00     0.300 C 
ATOM     32  O   UNL d   1      46.342 -20.234  44.930  0.00  0.00    -0.259 OA
ATOM     33  C   UNL d   1      45.791 -20.324  43.819  0.00  0.00     0.074 C 
ENDBRANCH  30  31
ENDBRANCH   9  30
TORSDOF 11
ENDMDL
MODEL 2
REMARK VINA RESULT:      69.1      2.062      3.869
REMARK  11 active torsions:
REMARK  status: ('A' for Active; 'I' for Inactive)
REMARK    1  A    between atoms: C_4  and  C_1 
REMARK    2  A    between atoms: C_10  and  C_2 
REMARK    3  A    between atoms: C_16  and  C_9 
REMARK    4  A    between atoms: O_24  and  C_10 
REMARK    5  A    between atoms: O_18  and  C_14 
REMARK    6  A    between atoms: O_25  and  C_16 
REMARK    7  A    between atoms: C_26  and  C_17 
REMARK    8  A    between atoms: C_19  and  O_18 
REMARK    9  A    between atoms: C_29  and  O_24 
REMARK   10  A    between atoms: C_28  and  O_25 
REMARK   11  A    between atoms: C_30  and  C_26 
ROOT
ATOM      1  C   UNL d   1      44.617 -16.455  37.916  0.00  0.00     0.090 A 
ATOM      2  C   UNL d   1      45.423 -16.355  37.771  0.00  0.00     0.168 A 
ATOM      3  C   UNL d   1      44.369 -16.880  38.586  0.00  0.00     0.201 A 
ATOM      4  C   UNL d   1      44.926 -17.206  39.111  0.00  0.00     0.062 A 
ATOM      5  O   UNL d   1      45.980 -16.680  38.296  0.00  0.00    -0.301 OA
ATOM      6  C   UNL d   1      45.732 -17.106  38.966  0.00  0.00     0.105 A 
ATOM      7  C   UNL d   1      44.673 -17.621  39.766  0.00  0.00     0.007 A 
ATOM      8  C   UNL d   1      46.284 -17.421  39.476  0.00  0.00     0.050 A 
ATOM      9  C   UNL d   1      46.036 -17.847  40.146  0.00  0.00     0.105 A 
ATOM     10  C   UNL d   1      45.230 -17.947  40.291  0.00  0.00     0.023 A 
ATOM     11  O   UNL d   1      43.563 -16.980  38.731  0.00  0.00    -0.286 OA
ENDROOT
BRANCH   1  12
ATOM     12  C   UNL d   1      44.061 -16.131  37.392  0.00  0.00     0.105 A 
ATOM     13  O   UNL d   1      43.321 -15.862  37.642  0.00  0.00    -0.302 OA
ATOM     14  C   UNL d   1      42.929 -15.584  36.987  0.00  0.00     0.163 A 
ATOM     15  C   UNL d   1      43.409 -15.673  36.335  0.00  0.00     0.032 A 
ATOM     16  C   UNL d   1      44.132 -16.020  36.583  0.00  0.00     0.027 A 
BRANCH  14  17
ATOM     17  C   UNL d   1      42.152 -15.255  36.973  0.00  0.00     0.323 C 
ATOM     18  O   UNL d   1      42.050 -14.426  37.125  0.00  0.00    -0.257 OA
BRANCH  17  19
ATOM     19  O   UNL d   1      41.497 -15.715  36.818  0.00  0.00    -0.270 OA
BRANCH  19  20
ATOM     20  C   UNL d   1      40.885 -15.455  36.331  0.00  0.00     0.126 C 
ATOM     21  C   UNL d   1      40.132 -15.733  36.425  0.00  0.00     0.029 C 
ENDBRANCH  19  20
ENDBRANCH  17  19
ENDBRANCH  14  17
ENDBRANCH   1  12
BRANCH   2  22
ATOM     22  C   UNL d   1      45.689 -15.919  37.085  0.00  0.00     0.323 C 
ATOM     23  O   UNL d   1      45.268 -15.978  36.387  0.00  0.00    -0.257 OA
BRANCH  22  24
ATOM     24  O   UNL d   1      46.362 -15.445  37.126  0.00  0.00    -0.270 OA
BRANCH  24  25
ATOM     25  C   UNL d   1      46.312 -14.687  37.465  0.00  0.00     0.126 C 
ATOM     26  C   UNL d   1      46.535 -14.026  37.024  0.00  0.00     0.029 C 
ENDBRANCH  24  25
ENDBRANCH  22  24
ENDBRANCH   2  22
BRANCH  10  27
ATOM     27  C   UNL d   1      44.967 -18.382  40.977  0.00  0.00     0.002 C 
BRANCH  27  28
ATOM     28  C   UNL d   1      44.414 -18.029  41.478  0.00  0.00     0.000 C 
ATOM     29  C   UNL d   1      43.797 -18.511  41.781  0.00  0.00     0.000 C 
ENDBRANCH  27  28
ENDBRANCH  10  27
BRANCH   9  30
ATOM     30  O   UNL d   1      46.616 -18.178  40.680  0.00  0.00    -0.273 OA
BRANCH  30  31
ATOM     31  C   UNL d   1      46.609 -18.968  40.826  0.00  0.00     0.300 C 
ATOM     32  O   UNL d   1      46.640 -19.380  40.364  0.00  0.00    -0.259 OA
ATOM     33  C   UNL d   1      46.560 -19.251  41.598  0.00  0.00     0.074 C 
ENDBRANCH  30  31
ENDBRANCH   9  30
TORSDOF 11
ENDMDL
MODEL 3
REMARK VINA RESULT:      69.7      2.512      5.066
REMARK  11 active torsions:
REMARK  status: ('A' for Active; 'I' for Inactive)
REMARK    1  A    between atoms: C_4  and  C_1 
REMARK    2  A    between atoms: C_10  and  C_2 
REMARK    3  A    between atoms: C_16  and  C_9 
REMARK    4  A    between atoms: O_24  and  C_10 
REMARK    5  A    between atoms: O_18  and  C_14 
REMARK    6  A    between atoms: O_25  and  C_16 
REMARK    7  A    between atoms: C_26  and  C_17 
REMARK    8  A    between atoms: C_19  and  O_18 
REMARK    9  A    between atoms: C_29  and  O_24 
REMARK   10  A    between atoms: C_28  and  O_25 
REMARK   11  A    between atoms: C_30  and  C_26 
ROOT
ATOM      1  C   UNL d   1      45.906 -16.842  43.804  0.00  0.00     0.090 A 
ATOM      2  C   UNL d   1      45.411 -16.861  44.463  0.00  0.00     0.168 A 
ATOM      3  C   UNL d   1      46.151 -16.110  43.494  0.00  0.00     0.201 A 
ATOM      4  C   UNL d   1      45.901 -15.398  43.842  0.00  0.00     0.062 A 
ATOM      5  O   UNL d   1      45.161 -16.149  44.811  0.00  0.00    -0.301 OA
ATOM      6  C   UNL d   1      45.406 -15.417  44.501  0.00  0.00     0.105 A 
ATOM      7  C   UNL d   1      46.146 -14.685  43.531  0.00  0.00     0.007 A 
ATOM      8  C   UNL d   1      45.155 -14.723  44.849  0.00  0.00     0.050 A 
ATOM      9  C   UNL d   1      45.400 -13.992  44.538  0.00  0.00     0.105 A 
ATOM     10  C   UNL d   1      45.896 -13.973  43.879  0.00  0.00     0.023 A 
ATOM     11  O   UNL d   1      46.647 -16.091  42.834  0.00  0.00    -0.286 OA
ENDROOT
BRANCH   1  12
ATOM     12  C   UNL d   1      46.156 -17.553  43.456  0.00  0.00     0.105 A 
ATOM     13  O   UNL d   1      46.075 -17.704  42.648  0.00  0.00    -0.302 OA
ATOM     14  C   UNL d   1      46.376 -18.445  42.507  0.00  0.00     0.163 A 
ATOM     15  C   UNL d   1      46.644 -18.759  43.209  0.00  0.00     0.032 A 
ATOM     16  C   UNL d   1      46.508 -18.199  43.819  0.00  0.00     0.027 A 
BRANCH  14  17
ATOM     17  C   UNL d   1      46.411 -18.835  41.759  0.00  0.00     0.323 C 
ATOM     18  O   UNL d   1      46.270 -18.388  41.051  0.00  0.00    -0.257 OA
BRANCH  17  19
ATOM     19  O   UNL d   1      46.577 -19.631  41.701  0.00  0.00    -0.270 OA
BRANCH  19  20
ATOM     20  C   UNL d   1      46.284 -20.096  41.086  0.00  0.00     0.126 C 
ATOM     21  C   UNL d   1      45.502 -20.296  41.054  0.00  0.00     0.029 C 
ENDBRANCH  19  20
ENDBRANCH  17  19
ENDBRANCH  14  17
ENDBRANCH   1  12
BRANCH   2  22
ATOM     22  C   UNL d   1      45.153 -17.609  44.790  0.00  0.00     0.323 C 
ATOM     23  O   UNL d   1      45.705 -18.192  44.937  0.00  0.00    -0.257 OA
BRANCH  22  24
ATOM     24  O   UNL d   1      44.355 -17.740  44.955  0.00  0.00    -0.270 OA
BRANCH  24  25
ATOM     25  C   UNL d   1      43.774 -17.305  44.549  0.00  0.00     0.126 C 
ATOM     26  C   UNL d   1      43.397 -16.675  44.926  0.00  0.00     0.029 C 
ENDBRANCH  24  25
ENDBRANCH  22  24
ENDBRANCH   2  22
BRANCH  10  27
ATOM     27  C   UNL d   1      46.152 -13.225  43.555  0.00  0.00     0.002 C 
BRANCH  27  28
ATOM     28  C   UNL d   1      45.763 -12.933  42.888  0.00  0.00     0.000 C 
ATOM     29  C   UNL d   1      46.145 -13.013  42.145  0.00  0.00     0.000 C 
ENDBRANCH  27  28
ENDBRANCH  10  27
BRANCH   9  30
ATOM     30  O   UNL d   1      45.138 -13.264  44.904  0.00  0.00    -0.273 OA
BRANCH  30  31
ATOM     31  C   UNL d   1      45.558 -12.589  44.781  0.00  0.00     0.300 C 
ATOM     32  O   UNL d   1      45.287 -12.080  44.554  0.00  0.00    -0.259 OA
ATOM     33  C   UNL d   1      46.362 -12.560  44.955  0.00  0.00     0.074 C 
ENDBRANCH  30  31
ENDBRANCH   9  30
TORSDOF 11
ENDMDL
