MODEL 1
REMARK VINA RESULT:     109.1      0.000      0.000
REMARK  4 active torsions:
REMARK  status: ('A' for Active; 'I' for Inactive)
REMARK    1  A    between atoms: N_2  and  S_1 
REMARK    2  A    between atoms: C_4  and  S_1 
REMARK       I    between atoms: C_3  and  N_7 
REMARK    3  A    between atoms: C_6  and  C_3 
REMARK    4  A    between atoms: N_7  and  C_12 
ROOT
ATOM      1  N   UNL d   1     -55.479-100.582 -44.531  0.00  0.00    -0.230 N 
ATOM      2  C   UNL d   1     -56.106-100.082 -44.727  0.00  0.00     0.076 A 
ATOM      3  C   UNL d   1     -56.746 -99.994 -44.217  0.00  0.00     0.037 A 
ATOM      4  C   UNL d   1     -57.372 -99.487 -44.427  0.00  0.00     0.086 A 
ATOM      5  C   UNL d   1     -56.092 -99.663 -45.447  0.00  0.00     0.017 A 
ATOM      6  C   UNL d   1     -56.716 -99.159 -45.653  0.00  0.00     0.003 A 
ATOM      7  C   UNL d   1     -54.839-100.665 -45.049  0.00  0.00     0.092 A 
ATOM      8  C   UNL d   1     -57.353 -99.077 -45.137  0.00  0.00     0.019 A 
ATOM      9  C   UNL d   1     -54.821-100.252 -45.762  0.00  0.00     0.020 A 
ATOM     10  C   UNL d   1     -55.445 -99.752 -45.961  0.00  0.00     0.003 A 
ENDROOT
BRANCH   4  11
ATOM     11  N   UNL d   1     -58.016 -99.398 -43.915  0.00  0.00    -0.208 NA
ATOM     12  C   UNL d   1     -57.904 -99.085 -43.164  0.00  0.00     0.282 C 
ATOM     13  O   UNL d   1     -57.151 -98.854 -42.909  0.00  0.00    -0.265 OA
BRANCH  12  14
ATOM     14  C   UNL d   1     -58.530 -98.993 -42.650  0.00  0.00     0.096 A 
ATOM     15  C   UNL d   1     -59.312 -99.040 -42.940  0.00  0.00     0.065 A 
ATOM     16 CL   UNL d   1     -59.440 -99.180 -43.743  0.00  0.00    -0.082 Cl
ATOM     17  C   UNL d   1     -59.947 -98.948 -42.425  0.00  0.00     0.012 A 
ATOM     18  C   UNL d   1     -59.810 -98.807 -41.619  0.00  0.00     0.003 A 
ATOM     19  C   UNL d   1     -59.036 -98.760 -41.333  0.00  0.00     0.030 A 
ATOM     20  C   UNL d   1     -58.404 -98.854 -41.852  0.00  0.00     0.146 A 
ATOM     21  F   UNL d   1     -57.640 -98.806 -41.563  0.00  0.00    -0.204 F 
ENDBRANCH  12  14
ENDBRANCH   4  11
BRANCH   1  22
ATOM     22  S   UNL d   1     -55.504-100.994 -43.812  0.00  0.00     0.277 S 
ATOM     23  O   UNL d   1     -54.727-100.745 -43.664  0.00  0.00    -0.199 OA
ATOM     24  O   UNL d   1     -56.269-101.237 -43.964  0.00  0.00    -0.199 OA
BRANCH  22  25
ATOM     25  C   UNL d   1     -55.514-101.398 -43.098  0.00  0.00     0.133 A 
ATOM     26  S   UNL d   1     -55.178-102.137 -42.953  0.00  0.00    -0.074 SA
ATOM     27  C   UNL d   1     -55.316-102.334 -42.170  0.00  0.00     0.036 A 
ATOM     28  C   UNL d   1     -55.740-101.719 -41.819  0.00  0.00     0.008 A 
ATOM     29  C   UNL d   1     -55.862-101.138 -42.399  0.00  0.00     0.020 A 
ENDBRANCH  22  25
ENDBRANCH   1  22
TORSDOF 4
ENDMDL
