MODEL 1
REMARK VINA RESULT:      -3.9      0.000      0.000
REMARK  0 active torsions:
REMARK  status: ('A' for Active; 'I' for Inactive)
ROOT
ATOM      1  N   UNL d   1     -41.921-121.962 -53.945  0.00  0.00    -0.219 NA
ATOM      2  C   UNL d   1     -41.482-122.470 -53.457  0.00  0.00     0.215 A 
ATOM      3  S   UNL d   1     -41.229-123.112 -53.919  0.00  0.00    -0.045 SA
ATOM      4  C   UNL d   1     -41.940-122.289 -54.705  0.00  0.00     0.090 A 
ATOM      5  C   UNL d   1     -41.515-122.996 -54.689  0.00  0.00     0.058 A 
ATOM      6  N   UNL d   1     -41.319-122.365 -52.656  0.00  0.00    -0.120 N 
ATOM      7  C   UNL d   1     -42.318-121.960 -55.355  0.00  0.00     0.021 C 
ENDROOT
TORSDOF 0
ENDMDL
MODEL 2
REMARK VINA RESULT:      -3.7      0.756      1.770
REMARK  0 active torsions:
REMARK  status: ('A' for Active; 'I' for Inactive)
ROOT
ATOM      1  N   UNL d   1     -41.843-121.996 -53.796  0.00  0.00    -0.219 NA
ATOM      2  C   UNL d   1     -41.939-122.278 -54.571  0.00  0.00     0.215 A 
ATOM      3  S   UNL d   1     -41.547-123.008 -54.628  0.00  0.00    -0.045 SA
ATOM      4  C   UNL d   1     -41.394-122.550 -53.376  0.00  0.00     0.090 A 
ATOM      5  C   UNL d   1     -41.212-123.172 -53.886  0.00  0.00     0.058 A 
ATOM      6  N   UNL d   1     -42.347-121.907 -55.183  0.00  0.00    -0.120 N 
ATOM      7  C   UNL d   1     -41.173-122.484 -52.588  0.00  0.00     0.021 C 
ENDROOT
TORSDOF 0
ENDMDL
MODEL 3
REMARK VINA RESULT:      -3.2      1.157      1.576
REMARK  0 active torsions:
REMARK  status: ('A' for Active; 'I' for Inactive)
ROOT
ATOM      1  N   UNL d   1     -41.320-122.035 -52.955  0.00  0.00    -0.219 NA
ATOM      2  C   UNL d   1     -41.246-122.223 -52.150  0.00  0.00     0.215 A 
ATOM      3  S   UNL d   1     -41.124-123.042 -52.090  0.00  0.00    -0.045 SA
ATOM      4  C   UNL d   1     -41.245-122.734 -53.390  0.00  0.00     0.090 A 
ATOM      5  C   UNL d   1     -41.125-123.354 -52.859  0.00  0.00     0.058 A 
ATOM      6  N   UNL d   1     -41.284-121.698 -51.516  0.00  0.00    -0.120 N 
ATOM      7  C   UNL d   1     -41.285-122.792 -54.208  0.00  0.00     0.021 C 
ENDROOT
TORSDOF 0
ENDMDL
MODEL 4
REMARK VINA RESULT:      -2.8      3.117      3.920
REMARK  0 active torsions:
REMARK  status: ('A' for Active; 'I' for Inactive)
ROOT
ATOM      1  N   UNL d   1     -42.309-122.185 -50.698  0.00  0.00    -0.219 NA
ATOM      2  C   UNL d   1     -41.582-122.273 -51.087  0.00  0.00     0.215 A 
ATOM      3  S   UNL d   1     -41.127-122.819 -50.657  0.00  0.00    -0.045 SA
ATOM      4  C   UNL d   1     -42.305-122.673 -50.031  0.00  0.00     0.090 A 
ATOM      5  C   UNL d   1     -41.578-123.064 -50.005  0.00  0.00     0.058 A 
ATOM      6  N   UNL d   1     -41.343-121.892 -51.778  0.00  0.00    -0.120 N 
ATOM      7  C   UNL d   1     -42.920-122.751 -49.493  0.00  0.00     0.021 C 
ENDROOT
TORSDOF 0
ENDMDL
MODEL 5
REMARK VINA RESULT:      -2.7      3.104      3.707
REMARK  0 active torsions:
REMARK  status: ('A' for Active; 'I' for Inactive)
ROOT
ATOM      1  N   UNL d   1     -42.314-122.177 -50.728  0.00  0.00    -0.219 NA
ATOM      2  C   UNL d   1     -42.382-122.637 -50.040  0.00  0.00     0.215 A 
ATOM      3  S   UNL d   1     -41.679-123.069 -49.952  0.00  0.00    -0.045 SA
ATOM      4  C   UNL d   1     -41.573-122.324 -51.064  0.00  0.00     0.090 A 
ATOM      5  C   UNL d   1     -41.182-122.873 -50.587  0.00  0.00     0.058 A 
ATOM      6  N   UNL d   1     -43.028-122.667 -49.529  0.00  0.00    -0.120 N 
ATOM      7  C   UNL d   1     -41.285-121.981 -51.751  0.00  0.00     0.021 C 
ENDROOT
TORSDOF 0
ENDMDL
MODEL 6
REMARK VINA RESULT:      -2.0      5.413      5.960
REMARK  0 active torsions:
REMARK  status: ('A' for Active; 'I' for Inactive)
ROOT
ATOM      1  N   UNL d   1     -42.716-122.719 -48.058  0.00  0.00    -0.219 NA
ATOM      2  C   UNL d   1     -42.151-123.052 -47.548  0.00  0.00     0.215 A 
ATOM      3  S   UNL d   1     -41.629-123.506 -48.007  0.00  0.00    -0.045 SA
ATOM      4  C   UNL d   1     -42.543-122.966 -48.828  0.00  0.00     0.090 A 
ATOM      5  C   UNL d   1     -41.875-123.450 -48.797  0.00  0.00     0.058 A 
ATOM      6  N   UNL d   1     -42.108-122.955 -46.731  0.00  0.00    -0.120 N 
ATOM      7  C   UNL d   1     -42.967-122.762 -49.500  0.00  0.00     0.021 C 
ENDROOT
TORSDOF 0
ENDMDL
