MODEL 1
REMARK VINA RESULT:      -6.6      0.000      0.000
REMARK  6 active torsions:
REMARK  status: ('A' for Active; 'I' for Inactive)
REMARK       I    between atoms: N_2  and  C_1 
REMARK       I    between atoms: N_4  and  C_1 
REMARK    1  A    between atoms: C_8  and  N_2 
REMARK    2  A    between atoms: C_3  and  C_5 
REMARK    3  A    between atoms: O_11  and  C_3 
REMARK    4  A    between atoms: C_14  and  N_4 
REMARK    5  A    between atoms: C_15  and  N_4 
REMARK    6  A    between atoms: C_16  and  O_11 
ROOT
ATOM      1  C   UNL d   1     -46.381  13.146  22.862  0.00  0.00     0.064 A 
ATOM      2  C   UNL d   1     -47.882  13.799  23.035  0.00  0.00     0.086 A 
ATOM      3  C   UNL d   1     -47.041  12.653  22.956  0.00  0.00     0.007 A 
ATOM      4  C   UNL d   1     -46.469  13.951  22.854  0.00  0.00     0.007 A 
ATOM      5  C   UNL d   1     -47.795  12.994  23.043  0.00  0.00     0.019 A 
ATOM      6  C   UNL d   1     -47.219  14.289  22.940  0.00  0.00     0.019 A 
ENDROOT
BRANCH   2   7
ATOM      7  N   UNL d   1     -48.629  14.137  23.121  0.00  0.00    -0.192 NA
ATOM      8  C   UNL d   1     -49.120  14.217  22.455  0.00  0.00     0.354 C 
ATOM      9  N   UNL d   1     -49.857  14.551  22.541  0.00  0.00    -0.256 N 
ATOM     10  O   UNL d   1     -48.856  13.959  21.718  0.00  0.00    -0.244 OA
BRANCH   9  11
ATOM     11  C   UNL d   1     -50.113  14.808  23.282  0.00  0.00     0.085 C 
ATOM     12  C   UNL d   1     -50.512  15.530  23.357  0.00  0.00     0.021 C 
ENDBRANCH   9  11
BRANCH   9  13
ATOM     13  C   UNL d   1     -50.348  14.631  21.869  0.00  0.00     0.085 C 
ATOM     14  C   UNL d   1     -51.030  14.174  21.816  0.00  0.00     0.021 C 
ENDBRANCH   9  13
ENDBRANCH   2   7
BRANCH   1  15
ATOM     15  C   UNL d   1     -45.637  12.816  22.776  0.00  0.00     0.300 C 
ATOM     16  O   UNL d   1     -45.388  12.209  23.271  0.00  0.00    -0.259 OA
BRANCH  15  17
ATOM     17  O   UNL d   1     -45.133  13.098  22.186  0.00  0.00    -0.271 OA
BRANCH  17  18
ATOM     18  C   UNL d   1     -44.449  12.693  22.007  0.00  0.00     0.126 C 
ATOM     19  C   UNL d   1     -43.943  12.971  21.421  0.00  0.00     0.029 C 
ENDBRANCH  17  18
ENDBRANCH  15  17
ENDBRANCH   1  15
TORSDOF 6
ENDMDL
MODEL 2
REMARK VINA RESULT:      -4.9      8.207      9.186
REMARK  6 active torsions:
REMARK  status: ('A' for Active; 'I' for Inactive)
REMARK       I    between atoms: N_2  and  C_1 
REMARK       I    between atoms: N_4  and  C_1 
REMARK    1  A    between atoms: C_8  and  N_2 
REMARK    2  A    between atoms: C_3  and  C_5 
REMARK    3  A    between atoms: O_11  and  C_3 
REMARK    4  A    between atoms: C_14  and  N_4 
REMARK    5  A    between atoms: C_15  and  N_4 
REMARK    6  A    between atoms: C_16  and  O_11 
ROOT
ATOM      1  C   UNL d   1     -40.240  14.700  19.059  0.00  0.00     0.064 A 
ATOM      2  C   UNL d   1     -39.496  14.819  20.522  0.00  0.00     0.086 A 
ATOM      3  C   UNL d   1     -40.636  15.043  19.701  0.00  0.00     0.007 A 
ATOM      4  C   UNL d   1     -39.484  14.421  19.146  0.00  0.00     0.007 A 
ATOM      5  C   UNL d   1     -40.251  15.098  20.435  0.00  0.00     0.019 A 
ATOM      6  C   UNL d   1     -39.102  14.476  19.877  0.00  0.00     0.019 A 
ENDROOT
BRANCH   2   7
ATOM      7  N   UNL d   1     -39.113  14.873  21.250  0.00  0.00    -0.192 NA
ATOM      8  C   UNL d   1     -39.206  14.263  21.806  0.00  0.00     0.354 C 
ATOM      9  N   UNL d   1     -38.828  14.317  22.526  0.00  0.00    -0.256 N 
ATOM     10  O   UNL d   1     -39.678  13.612  21.625  0.00  0.00    -0.244 OA
BRANCH   9  11
ATOM     11  C   UNL d   1     -38.357  14.973  22.698  0.00  0.00     0.085 C 
ATOM     12  C   UNL d   1     -38.385  15.317  23.452  0.00  0.00     0.021 C 
ENDBRANCH   9  11
BRANCH   9  13
ATOM     13  C   UNL d   1     -38.923  13.702  23.082  0.00  0.00     0.085 C 
ATOM     14  C   UNL d   1     -38.271  13.245  23.290  0.00  0.00     0.021 C 
ENDBRANCH   9  13
ENDBRANCH   2   7
BRANCH   1  15
ATOM     15  C   UNL d   1     -40.614  14.643  18.333  0.00  0.00     0.300 C 
ATOM     16  O   UNL d   1     -40.951  13.934  18.090  0.00  0.00    -0.259 OA
BRANCH  15  17
ATOM     17  O   UNL d   1     -40.653  15.305  17.842  0.00  0.00    -0.271 OA
BRANCH  17  18
ATOM     18  C   UNL d   1     -41.006  15.250  17.109  0.00  0.00     0.126 C 
ATOM     19  C   UNL d   1     -41.108  15.921  16.645  0.00  0.00     0.029 C 
ENDBRANCH  17  18
ENDBRANCH  15  17
ENDBRANCH   1  15
TORSDOF 6
ENDMDL
MODEL 3
REMARK VINA RESULT:      -4.8      1.878      4.817
REMARK  6 active torsions:
REMARK  status: ('A' for Active; 'I' for Inactive)
REMARK       I    between atoms: N_2  and  C_1 
REMARK       I    between atoms: N_4  and  C_1 
REMARK    1  A    between atoms: C_8  and  N_2 
REMARK    2  A    between atoms: C_3  and  C_5 
REMARK    3  A    between atoms: O_11  and  C_3 
REMARK    4  A    between atoms: C_14  and  N_4 
REMARK    5  A    between atoms: C_15  and  N_4 
REMARK    6  A    between atoms: C_16  and  O_11 
ROOT
ATOM      1  C   UNL d   1     -47.584  13.907  22.845  0.00  0.00     0.064 A 
ATOM      2  C   UNL d   1     -46.624  12.616  23.192  0.00  0.00     0.086 A 
ATOM      3  C   UNL d   1     -46.830  14.024  23.167  0.00  0.00     0.007 A 
ATOM      4  C   UNL d   1     -47.856  13.158  22.698  0.00  0.00     0.007 A 
ATOM      5  C   UNL d   1     -46.353  13.365  23.338  0.00  0.00     0.019 A 
ATOM      6  C   UNL d   1     -47.381  12.503  22.870  0.00  0.00     0.019 A 
ENDROOT
BRANCH   2   7
ATOM      7  N   UNL d   1     -46.153  11.963  23.362  0.00  0.00    -0.192 NA
ATOM      8  C   UNL d   1     -45.377  11.931  23.066  0.00  0.00     0.354 C 
ATOM      9  N   UNL d   1     -44.911  11.285  23.234  0.00  0.00    -0.256 N 
ATOM     10  O   UNL d   1     -45.088  12.552  22.608  0.00  0.00    -0.244 OA
BRANCH   9  11
ATOM     11  C   UNL d   1     -45.208  10.667  23.694  0.00  0.00     0.085 C 
ATOM     12  C   UNL d   1     -44.831   9.930  23.694  0.00  0.00     0.021 C 
ENDBRANCH   9  11
BRANCH   9  13
ATOM     13  C   UNL d   1     -44.131  11.256  22.936  0.00  0.00     0.085 C 
ATOM     14  C   UNL d   1     -43.586  10.751  23.287  0.00  0.00     0.021 C 
ENDBRANCH   9  13
ENDBRANCH   2   7
BRANCH   1  15
ATOM     15  C   UNL d   1     -48.058  14.553  22.673  0.00  0.00     0.300 C 
ATOM     16  O   UNL d   1     -47.776  15.167  22.206  0.00  0.00    -0.259 OA
BRANCH  15  17
ATOM     17  O   UNL d   1     -48.826  14.585  22.974  0.00  0.00    -0.271 OA
BRANCH  17  18
ATOM     18  C   UNL d   1     -49.285  15.248  22.852  0.00  0.00     0.126 C 
ATOM     19  C   UNL d   1     -50.083  15.242  23.048  0.00  0.00     0.029 C 
ENDBRANCH  17  18
ENDBRANCH  15  17
ENDBRANCH   1  15
TORSDOF 6
ENDMDL
MODEL 4
REMARK VINA RESULT:      -4.7      8.114      8.894
REMARK  6 active torsions:
REMARK  status: ('A' for Active; 'I' for Inactive)
REMARK       I    between atoms: N_2  and  C_1 
REMARK       I    between atoms: N_4  and  C_1 
REMARK    1  A    between atoms: C_8  and  N_2 
REMARK    2  A    between atoms: C_3  and  C_5 
REMARK    3  A    between atoms: O_11  and  C_3 
REMARK    4  A    between atoms: C_14  and  N_4 
REMARK    5  A    between atoms: C_15  and  N_4 
REMARK    6  A    between atoms: C_16  and  O_11 
ROOT
ATOM      1  C   UNL d   1     -39.655  15.157  21.251  0.00  0.00     0.064 A 
ATOM      2  C   UNL d   1     -40.163  15.476  19.718  0.00  0.00     0.086 A 
ATOM      3  C   UNL d   1     -39.218  15.666  20.764  0.00  0.00     0.007 A 
ATOM      4  C   UNL d   1     -40.335  14.813  20.977  0.00  0.00     0.007 A 
ATOM      5  C   UNL d   1     -39.483  15.820  19.992  0.00  0.00     0.019 A 
ATOM      6  C   UNL d   1     -40.599  14.967  20.208  0.00  0.00     0.019 A 
ENDROOT
BRANCH   2   7
ATOM      7  N   UNL d   1     -40.427  15.627  18.952  0.00  0.00    -0.192 NA
ATOM      8  C   UNL d   1     -40.168  15.145  18.327  0.00  0.00     0.354 C 
ATOM      9  N   UNL d   1     -40.429  15.295  17.571  0.00  0.00    -0.256 N 
ATOM     10  O   UNL d   1     -39.650  14.521  18.480  0.00  0.00    -0.244 OA
BRANCH   9  11
ATOM     11  C   UNL d   1     -40.947  15.922  17.428  0.00  0.00     0.085 C 
ATOM     12  C   UNL d   1     -41.518  15.861  16.831  0.00  0.00     0.021 C 
ENDBRANCH   9  11
BRANCH   9  13
ATOM     13  C   UNL d   1     -40.166  14.808  16.945  0.00  0.00     0.085 C 
ATOM     14  C   UNL d   1     -39.594  15.095  16.428  0.00  0.00     0.021 C 
ENDBRANCH   9  13
ENDBRANCH   2   7
BRANCH   1  15
ATOM     15  C   UNL d   1     -39.399  15.002  22.012  0.00  0.00     0.300 C 
ATOM     16  O   UNL d   1     -39.433  15.583  22.593  0.00  0.00    -0.259 OA
BRANCH  15  17
ATOM     17  O   UNL d   1     -39.104  14.254  22.198  0.00  0.00    -0.271 OA
BRANCH  17  18
ATOM     18  C   UNL d   1     -38.794  14.109  22.938  0.00  0.00     0.126 C 
ATOM     19  C   UNL d   1     -38.574  13.347  23.155  0.00  0.00     0.029 C 
ENDBRANCH  17  18
ENDBRANCH  15  17
ENDBRANCH   1  15
TORSDOF 6
ENDMDL
MODEL 5
REMARK VINA RESULT:      -4.6      7.551      9.782
REMARK  6 active torsions:
REMARK  status: ('A' for Active; 'I' for Inactive)
REMARK       I    between atoms: N_2  and  C_1 
REMARK       I    between atoms: N_4  and  C_1 
REMARK    1  A    between atoms: C_8  and  N_2 
REMARK    2  A    between atoms: C_3  and  C_5 
REMARK    3  A    between atoms: O_11  and  C_3 
REMARK    4  A    between atoms: C_14  and  N_4 
REMARK    5  A    between atoms: C_15  and  N_4 
REMARK    6  A    between atoms: C_16  and  O_11 
ROOT
ATOM      1  C   UNL d   1     -38.929  15.159  16.791  0.00  0.00     0.064 A 
ATOM      2  C   UNL d   1     -39.669  15.424  18.237  0.00  0.00     0.086 A 
ATOM      3  C   UNL d   1     -38.485  15.400  17.447  0.00  0.00     0.007 A 
ATOM      4  C   UNL d   1     -39.729  15.052  16.855  0.00  0.00     0.007 A 
ATOM      5  C   UNL d   1     -38.868  15.531  18.173  0.00  0.00     0.019 A 
ATOM      6  C   UNL d   1     -40.110  15.183  17.577  0.00  0.00     0.019 A 
ENDROOT
BRANCH   2   7
ATOM      7  N   UNL d   1     -40.049  15.554  18.956  0.00  0.00    -0.192 NA
ATOM      8  C   UNL d   1     -40.119  14.930  19.500  0.00  0.00     0.354 C 
ATOM      9  N   UNL d   1     -40.495  15.058  20.211  0.00  0.00    -0.256 N 
ATOM     10  O   UNL d   1     -39.807  14.189  19.315  0.00  0.00    -0.244 OA
BRANCH   9  11
ATOM     11  C   UNL d   1     -40.804  15.803  20.387  0.00  0.00     0.085 C 
ATOM     12  C   UNL d   1     -41.404  15.880  20.954  0.00  0.00     0.021 C 
ENDBRANCH   9  11
BRANCH   9  13
ATOM     13  C   UNL d   1     -40.563  14.428  20.755  0.00  0.00     0.085 C 
ATOM     14  C   UNL d   1     -40.073  14.415  21.415  0.00  0.00     0.021 C 
ENDBRANCH   9  13
ENDBRANCH   2   7
BRANCH   1  15
ATOM     15  C   UNL d   1     -38.557  15.028  16.074  0.00  0.00     0.300 C 
ATOM     16  O   UNL d   1     -38.309  15.659  15.609  0.00  0.00    -0.259 OA
BRANCH  15  17
ATOM     17  O   UNL d   1     -38.430  14.255  15.816  0.00  0.00    -0.271 OA
BRANCH  17  18
ATOM     18  C   UNL d   1     -37.948  14.112  15.174  0.00  0.00     0.126 C 
ATOM     19  C   UNL d   1     -37.949  13.375  14.809  0.00  0.00     0.029 C 
ENDBRANCH  17  18
ENDBRANCH  15  17
ENDBRANCH   1  15
TORSDOF 6
ENDMDL
MODEL 6
REMARK VINA RESULT:      -4.1      8.691      9.946
REMARK  6 active torsions:
REMARK  status: ('A' for Active; 'I' for Inactive)
REMARK       I    between atoms: N_2  and  C_1 
REMARK       I    between atoms: N_4  and  C_1 
REMARK    1  A    between atoms: C_8  and  N_2 
REMARK    2  A    between atoms: C_3  and  C_5 
REMARK    3  A    between atoms: O_11  and  C_3 
REMARK    4  A    between atoms: C_14  and  N_4 
REMARK    5  A    between atoms: C_15  and  N_4 
REMARK    6  A    between atoms: C_16  and  O_11 
ROOT
ATOM      1  C   UNL d   1     -38.958  14.350  17.598  0.00  0.00     0.064 A 
ATOM      2  C   UNL d   1     -38.921  14.178  19.235  0.00  0.00     0.086 A 
ATOM      3  C   UNL d   1     -39.607  14.025  17.997  0.00  0.00     0.007 A 
ATOM      4  C   UNL d   1     -38.301  14.586  18.009  0.00  0.00     0.007 A 
ATOM      5  C   UNL d   1     -39.578  13.942  18.824  0.00  0.00     0.019 A 
ATOM      6  C   UNL d   1     -38.273  14.504  18.832  0.00  0.00     0.019 A 
ENDROOT
BRANCH   2   7
ATOM      7  N   UNL d   1     -38.891  14.097  20.054  0.00  0.00    -0.192 NA
ATOM      8  C   UNL d   1     -39.238  14.679  20.535  0.00  0.00     0.354 C 
ATOM      9  N   UNL d   1     -39.209  14.598  21.345  0.00  0.00    -0.256 N 
ATOM     10  O   UNL d   1     -39.608  15.329  20.189  0.00  0.00    -0.244 OA
BRANCH   9  11
ATOM     11  C   UNL d   1     -38.837  13.943  21.683  0.00  0.00     0.085 C 
ATOM     12  C   UNL d   1     -39.169  13.573  22.346  0.00  0.00     0.021 C 
ENDBRANCH   9  11
BRANCH   9  13
ATOM     13  C   UNL d   1     -39.559  15.185  21.825  0.00  0.00     0.085 C 
ATOM     14  C   UNL d   1     -39.076  15.667  22.284  0.00  0.00     0.021 C 
ENDBRANCH   9  13
ENDBRANCH   2   7
BRANCH   1  15
ATOM     15  C   UNL d   1     -38.980  14.434  16.785  0.00  0.00     0.300 C 
ATOM     16  O   UNL d   1     -39.516  14.947  16.431  0.00  0.00    -0.259 OA
BRANCH  15  17
ATOM     17  O   UNL d   1     -38.460  13.998  16.316  0.00  0.00    -0.271 OA
BRANCH  17  18
ATOM     18  C   UNL d   1     -38.460  14.095  15.506  0.00  0.00     0.126 C 
ATOM     19  C   UNL d   1     -37.965  13.641  15.033  0.00  0.00     0.029 C 
ENDBRANCH  17  18
ENDBRANCH  15  17
ENDBRANCH   1  15
TORSDOF 6
ENDMDL
