MODEL 1
REMARK VINA RESULT:      19.2      0.000      0.000
REMARK  3 active torsions:
REMARK  status: ('A' for Active; 'I' for Inactive)
REMARK    1  A    between atoms: S_9  and  C_2 
REMARK    2  A    between atoms: C_8  and  C_3 
REMARK    3  A    between atoms: C_10  and  S_9 
ROOT
ATOM      1  N   UNL d   1     -59.942 -98.781 -41.903  0.00  0.00    -0.195 NA
ATOM      2  C   UNL d   1     -59.626 -99.055 -42.612  0.00  0.00     0.086 C 
ATOM      3  C   UNL d   1     -59.311 -99.336 -43.319  0.00  0.00     0.169 C 
ENDROOT
BRANCH   3   4
ATOM      4  S   UNL d   1     -59.094 -98.805 -43.900  0.00  0.00    -0.072 SA
BRANCH   4   5
ATOM      5  C   UNL d   1     -58.384 -98.891 -44.302  0.00  0.00     0.137 A 
ATOM      6  N   UNL d   1     -57.656 -99.123 -43.980  0.00  0.00    -0.232 NA
ATOM      7  C   UNL d   1     -57.103 -99.133 -44.580  0.00  0.00     0.089 A 
ATOM      8  C   UNL d   1     -57.475 -98.910 -45.274  0.00  0.00     0.057 A 
ATOM      9  S   UNL d   1     -58.263 -98.759 -45.108  0.00  0.00    -0.060 SA
BRANCH   7  10
ATOM     10  C   UNL d   1     -56.306 -99.334 -44.503  0.00  0.00     0.018 A 
ATOM     11  C   UNL d   1     -56.108-100.117 -44.353  0.00  0.00     0.002 A 
ATOM     12  C   UNL d   1     -55.311-100.319 -44.275  0.00  0.00     0.000 A 
ATOM     13  C   UNL d   1     -54.722 -99.742 -44.346  0.00  0.00     0.000 A 
ATOM     14  C   UNL d   1     -54.941 -98.955 -44.497  0.00  0.00     0.000 A 
ATOM     15  C   UNL d   1     -55.739 -98.758 -44.574  0.00  0.00     0.002 A 
ENDBRANCH   7  10
ENDBRANCH   4   5
ENDBRANCH   3   4
TORSDOF 3
ENDMDL
MODEL 2
REMARK VINA RESULT:      20.6      7.338      7.948
REMARK  3 active torsions:
REMARK  status: ('A' for Active; 'I' for Inactive)
REMARK    1  A    between atoms: S_9  and  C_2 
REMARK    2  A    between atoms: C_8  and  C_3 
REMARK    3  A    between atoms: C_10  and  S_9 
ROOT
ATOM      1  N   UNL d   1     -55.353-101.400 -40.634  0.00  0.00    -0.195 NA
ATOM      2  C   UNL d   1     -55.366-101.942 -40.014  0.00  0.00     0.086 C 
ATOM      3  C   UNL d   1     -55.385-102.485 -39.396  0.00  0.00     0.169 C 
ENDROOT
BRANCH   3   4
ATOM      4  S   UNL d   1     -54.730-102.572 -38.918  0.00  0.00    -0.072 SA
BRANCH   4   5
ATOM      5  C   UNL d   1     -54.735-102.294 -38.145  0.00  0.00     0.137 A 
ATOM      6  N   UNL d   1     -54.726-101.501 -37.903  0.00  0.00    -0.232 NA
ATOM      7  C   UNL d   1     -54.736-101.485 -37.086  0.00  0.00     0.089 A 
ATOM      8  C   UNL d   1     -54.751-102.257 -36.815  0.00  0.00     0.057 A 
ATOM      9  S   UNL d   1     -54.751-102.759 -37.463  0.00  0.00    -0.060 SA
BRANCH   7  10
ATOM     10  C   UNL d   1     -54.732-100.807 -36.615  0.00  0.00     0.018 A 
ATOM     11  C   UNL d   1     -54.742-100.071 -36.980  0.00  0.00     0.002 A 
ATOM     12  C   UNL d   1     -54.737 -99.392 -36.510  0.00  0.00     0.000 A 
ATOM     13  C   UNL d   1     -54.723 -99.452 -35.685  0.00  0.00     0.000 A 
ATOM     14  C   UNL d   1     -54.713-100.205 -35.333  0.00  0.00     0.000 A 
ATOM     15  C   UNL d   1     -54.717-100.880 -35.807  0.00  0.00     0.002 A 
ENDBRANCH   7  10
ENDBRANCH   4   5
ENDBRANCH   3   4
TORSDOF 3
ENDMDL
