MODEL 1
REMARK VINA RESULT:      -8.6      0.000      0.000
REMARK  4 active torsions:
REMARK  status: ('A' for Active; 'I' for Inactive)
REMARK    1  A    between atoms: C_4  and  C_1 
REMARK    2  A    between atoms: C_13  and  N_3 
REMARK    3  A    between atoms: C_11  and  N_5 
REMARK    4  A    between atoms: C_14  and  C_11 
ROOT
ATOM      1  C   UNL d   1      52.777  32.991  53.183  0.00  0.00     0.057 A 
ATOM      2  N   UNL d   1      52.119  34.160  53.123  0.00  0.00    -0.272 N 
ATOM      3  C   UNL d   1      52.933  34.319  53.082  0.00  0.00     0.265 A 
ATOM      4  C   UNL d   1      52.028  33.347  53.185  0.00  0.00     0.086 A 
ATOM      5  C   UNL d   1      53.335  33.602  53.119  0.00  0.00     0.066 A 
ATOM      6  O   UNL d   1      53.270  35.071  53.015  0.00  0.00    -0.267 OA
ENDROOT
BRANCH   1   7
ATOM      7  C   UNL d   1      52.888  32.184  53.237  0.00  0.00     0.149 A 
ATOM      8  N   UNL d   1      52.549  31.597  52.821  0.00  0.00    -0.227 NA
ATOM      9  C   UNL d   1      52.849  30.873  53.088  0.00  0.00     0.099 A 
ATOM     10  C   UNL d   1      52.696  30.105  52.859  0.00  0.00     0.021 A 
ATOM     11  C   UNL d   1      53.382  31.035  53.682  0.00  0.00     0.083 A 
ATOM     12  C   UNL d   1      53.096  29.488  53.244  0.00  0.00     0.002 A 
ATOM     13  C   UNL d   1      53.630  29.650  53.838  0.00  0.00     0.002 A 
ATOM     14  C   UNL d   1      53.780  30.434  54.066  0.00  0.00     0.019 A 
ATOM     15  N   UNL d   1      53.406  31.857  53.775  0.00  0.00    -0.289 N 
BRANCH  15  16
ATOM     16  C   UNL d   1      53.876  32.281  54.321  0.00  0.00     0.082 C 
ATOM     17  C   UNL d   1      53.836  32.097  55.141  0.00  0.00     0.021 C 
ENDBRANCH  15  16
ENDBRANCH   1   7
BRANCH   2  18
ATOM     18  C   UNL d   1      51.503  34.726  53.105  0.00  0.00     0.083 C 
BRANCH  18  19
ATOM     19  C   UNL d   1      50.825  34.575  52.648  0.00  0.00     0.018 A 
ATOM     20  C   UNL d   1      50.088  34.525  53.026  0.00  0.00     0.002 A 
ATOM     21  C   UNL d   1      49.417  34.375  52.571  0.00  0.00     0.000 A 
ATOM     22  C   UNL d   1      49.471  34.277  51.758  0.00  0.00     0.000 A 
ATOM     23  C   UNL d   1      50.205  34.328  51.387  0.00  0.00     0.000 A 
ATOM     24  C   UNL d   1      50.886  34.479  51.837  0.00  0.00     0.002 A 
ENDBRANCH  18  19
ENDBRANCH   2  18
TORSDOF 4
ENDMDL
MODEL 2
REMARK VINA RESULT:      -8.5      0.971      4.150
REMARK  4 active torsions:
REMARK  status: ('A' for Active; 'I' for Inactive)
REMARK    1  A    between atoms: C_4  and  C_1 
REMARK    2  A    between atoms: C_13  and  N_3 
REMARK    3  A    between atoms: C_11  and  N_5 
REMARK    4  A    between atoms: C_14  and  C_11 
ROOT
ATOM      1  C   UNL d   1      53.007  33.030  53.154  0.00  0.00     0.057 A 
ATOM      2  N   UNL d   1      53.850  32.048  53.510  0.00  0.00    -0.272 N 
ATOM      3  C   UNL d   1      54.295  32.738  53.385  0.00  0.00     0.265 A 
ATOM      4  C   UNL d   1      53.064  32.231  53.368  0.00  0.00     0.086 A 
ATOM      5  C   UNL d   1      53.777  33.339  53.167  0.00  0.00     0.066 A 
ATOM      6  O   UNL d   1      55.115  32.799  53.468  0.00  0.00    -0.267 OA
ENDROOT
BRANCH   1   7
ATOM      7  C   UNL d   1      52.299  33.395  52.974  0.00  0.00     0.149 A 
ATOM      8  N   UNL d   1      51.825  33.298  52.344  0.00  0.00    -0.227 NA
ATOM      9  C   UNL d   1      51.170  33.798  52.422  0.00  0.00     0.099 A 
ATOM     10  C   UNL d   1      50.521  33.922  51.943  0.00  0.00     0.021 A 
ATOM     11  C   UNL d   1      51.259  34.206  53.122  0.00  0.00     0.083 A 
ATOM     12  C   UNL d   1      49.949  34.474  52.183  0.00  0.00     0.002 A 
ATOM     13  C   UNL d   1      50.038  34.882  52.883  0.00  0.00     0.002 A 
ATOM     14  C   UNL d   1      50.701  34.750  53.365  0.00  0.00     0.019 A 
ATOM     15  N   UNL d   1      51.967  33.952  53.468  0.00  0.00    -0.289 N 
BRANCH  15  16
ATOM     16  C   UNL d   1      52.287  34.218  54.193  0.00  0.00     0.082 C 
ATOM     17  C   UNL d   1      52.426  35.038  54.315  0.00  0.00     0.021 C 
ENDBRANCH  15  16
ENDBRANCH   1   7
BRANCH   2  18
ATOM     18  C   UNL d   1      54.150  31.301  53.740  0.00  0.00     0.083 C 
BRANCH  18  19
ATOM     19  C   UNL d   1      53.661  30.631  53.683  0.00  0.00     0.018 A 
ATOM     20  C   UNL d   1      53.373  30.283  54.379  0.00  0.00     0.002 A 
ATOM     21  C   UNL d   1      52.889  29.619  54.320  0.00  0.00     0.000 A 
ATOM     22  C   UNL d   1      52.691  29.303  53.590  0.00  0.00     0.000 A 
ATOM     23  C   UNL d   1      52.980  29.652  52.901  0.00  0.00     0.000 A 
ATOM     24  C   UNL d   1      53.469  30.321  52.950  0.00  0.00     0.002 A 
ENDBRANCH  18  19
ENDBRANCH   2  18
TORSDOF 4
ENDMDL
MODEL 3
REMARK VINA RESULT:      -8.1      1.368      4.349
REMARK  4 active torsions:
REMARK  status: ('A' for Active; 'I' for Inactive)
REMARK    1  A    between atoms: C_4  and  C_1 
REMARK    2  A    between atoms: C_13  and  N_3 
REMARK    3  A    between atoms: C_11  and  N_5 
REMARK    4  A    between atoms: C_14  and  C_11 
ROOT
ATOM      1  C   UNL d   1      52.229  32.547  53.256  0.00  0.00     0.057 A 
ATOM      2  N   UNL d   1      53.338  32.058  53.833  0.00  0.00    -0.272 N 
ATOM      3  C   UNL d   1      53.128  31.553  53.207  0.00  0.00     0.265 A 
ATOM      4  C   UNL d   1      52.786  32.663  53.859  0.00  0.00     0.086 A 
ATOM      5  C   UNL d   1      52.448  31.855  52.855  0.00  0.00     0.066 A 
ATOM      6  O   UNL d   1      53.538  30.871  52.985  0.00  0.00    -0.267 OA
ENDROOT
BRANCH   1   7
ATOM      7  C   UNL d   1      51.600  33.052  53.126  0.00  0.00     0.149 A 
ATOM      8  N   UNL d   1      50.884  33.069  53.472  0.00  0.00    -0.227 NA
ATOM      9  C   UNL d   1      50.445  33.689  53.144  0.00  0.00     0.099 A 
ATOM     10  C   UNL d   1      49.687  33.954  53.292  0.00  0.00     0.021 A 
ATOM     11  C   UNL d   1      50.915  34.052  52.586  0.00  0.00     0.083 A 
ATOM     12  C   UNL d   1      49.402  34.604  52.860  0.00  0.00     0.002 A 
ATOM     13  C   UNL d   1      49.872  34.967  52.302  0.00  0.00     0.002 A 
ATOM     14  C   UNL d   1      50.642  34.691  52.158  0.00  0.00     0.019 A 
ATOM     15  N   UNL d   1      51.640  33.652  52.575  0.00  0.00    -0.289 N 
BRANCH  15  16
ATOM     16  C   UNL d   1      52.296  33.827  52.089  0.00  0.00     0.082 C 
ATOM     17  C   UNL d   1      52.560  34.622  52.012  0.00  0.00     0.021 C 
ENDBRANCH  15  16
ENDBRANCH   1   7
BRANCH   2  18
ATOM     18  C   UNL d   1      53.994  31.964  54.344  0.00  0.00     0.083 C 
BRANCH  18  19
ATOM     19  C   UNL d   1      54.392  32.639  54.623  0.00  0.00     0.018 A 
ATOM     20  C   UNL d   1      54.208  32.931  55.377  0.00  0.00     0.002 A 
ATOM     21  C   UNL d   1      54.605  33.600  55.652  0.00  0.00     0.000 A 
ATOM     22  C   UNL d   1      55.171  33.974  55.192  0.00  0.00     0.000 A 
ATOM     23  C   UNL d   1      55.351  33.680  54.443  0.00  0.00     0.000 A 
ATOM     24  C   UNL d   1      54.957  33.007  54.158  0.00  0.00     0.002 A 
ENDBRANCH  18  19
ENDBRANCH   2  18
TORSDOF 4
ENDMDL
MODEL 4
REMARK VINA RESULT:      -7.8      1.627      4.641
REMARK  4 active torsions:
REMARK  status: ('A' for Active; 'I' for Inactive)
REMARK    1  A    between atoms: C_4  and  C_1 
REMARK    2  A    between atoms: C_13  and  N_3 
REMARK    3  A    between atoms: C_11  and  N_5 
REMARK    4  A    between atoms: C_14  and  C_11 
ROOT
ATOM      1  C   UNL d   1      53.120  31.833  53.368  0.00  0.00     0.057 A 
ATOM      2  N   UNL d   1      52.829  30.527  53.249  0.00  0.00    -0.272 N 
ATOM      3  C   UNL d   1      53.042  30.815  52.499  0.00  0.00     0.265 A 
ATOM      4  C   UNL d   1      52.878  31.153  53.777  0.00  0.00     0.086 A 
ATOM      5  C   UNL d   1      53.220  31.615  52.574  0.00  0.00     0.066 A 
ATOM      6  O   UNL d   1      53.068  30.366  51.806  0.00  0.00    -0.267 OA
ENDROOT
BRANCH   1   7
ATOM      7  C   UNL d   1      53.224  32.558  53.730  0.00  0.00     0.149 A 
ATOM      8  N   UNL d   1      53.767  32.783  54.265  0.00  0.00    -0.227 NA
ATOM      9  C   UNL d   1      53.637  33.577  54.459  0.00  0.00     0.099 A 
ATOM     10  C   UNL d   1      54.024  34.081  54.971  0.00  0.00     0.021 A 
ATOM     11  C   UNL d   1      52.996  33.831  54.025  0.00  0.00     0.083 A 
ATOM     12  C   UNL d   1      53.751  34.862  55.043  0.00  0.00     0.002 A 
ATOM     13  C   UNL d   1      53.110  35.116  54.608  0.00  0.00     0.002 A 
ATOM     14  C   UNL d   1      52.722  34.598  54.089  0.00  0.00     0.019 A 
ATOM     15  N   UNL d   1      52.737  33.191  53.568  0.00  0.00    -0.289 N 
BRANCH  15  16
ATOM     16  C   UNL d   1      52.094  33.191  53.035  0.00  0.00     0.082 C 
ATOM     17  C   UNL d   1      51.357  33.524  53.266  0.00  0.00     0.021 C 
ENDBRANCH  15  16
ENDBRANCH   1   7
BRANCH   2  18
ATOM     18  C   UNL d   1      52.605  29.742  53.432  0.00  0.00     0.083 C 
BRANCH  18  19
ATOM     19  C   UNL d   1      52.954  29.361  54.083  0.00  0.00     0.018 A 
ATOM     20  C   UNL d   1      52.603  29.437  54.830  0.00  0.00     0.002 A 
ATOM     21  C   UNL d   1      52.952  29.057  55.474  0.00  0.00     0.000 A 
ATOM     22  C   UNL d   1      53.633  28.611  55.383  0.00  0.00     0.000 A 
ATOM     23  C   UNL d   1      53.979  28.538  54.638  0.00  0.00     0.000 A 
ATOM     24  C   UNL d   1      53.636  28.917  53.984  0.00  0.00     0.002 A 
ENDBRANCH  18  19
ENDBRANCH   2  18
TORSDOF 4
ENDMDL
MODEL 5
REMARK VINA RESULT:      -7.7      1.356      2.637
REMARK  4 active torsions:
REMARK  status: ('A' for Active; 'I' for Inactive)
REMARK    1  A    between atoms: C_4  and  C_1 
REMARK    2  A    between atoms: C_13  and  N_3 
REMARK    3  A    between atoms: C_11  and  N_5 
REMARK    4  A    between atoms: C_14  and  C_11 
ROOT
ATOM      1  C   UNL d   1      51.740  34.035  52.855  0.00  0.00     0.057 A 
ATOM      2  N   UNL d   1      50.487  34.133  52.380  0.00  0.00    -0.272 N 
ATOM      3  C   UNL d   1      51.014  34.277  51.754  0.00  0.00     0.265 A 
ATOM      4  C   UNL d   1      50.936  33.985  53.051  0.00  0.00     0.086 A 
ATOM      5  C   UNL d   1      51.780  34.217  52.046  0.00  0.00     0.066 A 
ATOM      6  O   UNL d   1      50.794  34.450  50.976  0.00  0.00    -0.267 OA
ENDROOT
BRANCH   1   7
ATOM      7  C   UNL d   1      52.340  33.918  53.396  0.00  0.00     0.149 A 
ATOM      8  N   UNL d   1      52.605  34.399  53.970  0.00  0.00    -0.227 NA
ATOM      9  C   UNL d   1      53.225  34.022  54.369  0.00  0.00     0.099 A 
ATOM     10  C   UNL d   1      53.691  34.260  54.996  0.00  0.00     0.021 A 
ATOM     11  C   UNL d   1      53.330  33.293  54.021  0.00  0.00     0.083 A 
ATOM     12  C   UNL d   1      54.277  33.742  55.274  0.00  0.00     0.002 A 
ATOM     13  C   UNL d   1      54.383  33.013  54.925  0.00  0.00     0.002 A 
ATOM     14  C   UNL d   1      53.905  32.779  54.288  0.00  0.00     0.019 A 
ATOM     15  N   UNL d   1      52.775  33.228  53.410  0.00  0.00    -0.289 N 
BRANCH  15  16
ATOM     16  C   UNL d   1      52.675  32.575  52.899  0.00  0.00     0.082 C 
ATOM     17  C   UNL d   1      52.787  31.794  53.188  0.00  0.00     0.021 C 
ENDBRANCH  15  16
ENDBRANCH   1   7
BRANCH   2  18
ATOM     18  C   UNL d   1      49.652  34.137  52.335  0.00  0.00     0.083 C 
BRANCH  18  19
ATOM     19  C   UNL d   1      49.232  34.790  52.633  0.00  0.00     0.018 A 
ATOM     20  C   UNL d   1      48.730  35.211  52.124  0.00  0.00     0.002 A 
ATOM     21  C   UNL d   1      48.314  35.858  52.422  0.00  0.00     0.000 A 
ATOM     22  C   UNL d   1      48.391  36.085  53.206  0.00  0.00     0.000 A 
ATOM     23  C   UNL d   1      48.892  35.663  53.708  0.00  0.00     0.000 A 
ATOM     24  C   UNL d   1      49.314  35.011  53.417  0.00  0.00     0.002 A 
ENDBRANCH  18  19
ENDBRANCH   2  18
TORSDOF 4
ENDMDL
MODEL 6
REMARK VINA RESULT:      -7.4      2.289      5.271
REMARK  4 active torsions:
REMARK  status: ('A' for Active; 'I' for Inactive)
REMARK    1  A    between atoms: C_4  and  C_1 
REMARK    2  A    between atoms: C_13  and  N_3 
REMARK    3  A    between atoms: C_11  and  N_5 
REMARK    4  A    between atoms: C_14  and  C_11 
ROOT
ATOM      1  C   UNL d   1      50.196  34.340  52.890  0.00  0.00     0.057 A 
ATOM      2  N   UNL d   1      51.487  33.974  52.949  0.00  0.00    -0.272 N 
ATOM      3  C   UNL d   1      51.022  33.286  52.955  0.00  0.00     0.265 A 
ATOM      4  C   UNL d   1      50.978  34.616  52.909  0.00  0.00     0.086 A 
ATOM      5  C   UNL d   1      50.232  33.511  52.919  0.00  0.00     0.066 A 
ATOM      6  O   UNL d   1      51.313  32.513  52.991  0.00  0.00    -0.267 OA
ENDROOT
BRANCH   1   7
ATOM      7  C   UNL d   1      49.549  34.836  52.850  0.00  0.00     0.149 A 
ATOM      8  N   UNL d   1      49.234  35.304  53.410  0.00  0.00    -0.227 NA
ATOM      9  C   UNL d   1      48.579  35.697  53.091  0.00  0.00     0.099 A 
ATOM     10  C   UNL d   1      48.058  36.236  53.416  0.00  0.00     0.021 A 
ATOM     11  C   UNL d   1      48.503  35.455  52.317  0.00  0.00     0.083 A 
ATOM     12  C   UNL d   1      47.446  36.534  52.941  0.00  0.00     0.002 A 
ATOM     13  C   UNL d   1      47.370  36.291  52.166  0.00  0.00     0.002 A 
ATOM     14  C   UNL d   1      47.903  35.743  51.843  0.00  0.00     0.019 A 
ATOM     15  N   UNL d   1      49.111  34.915  52.166  0.00  0.00    -0.289 N 
BRANCH  15  16
ATOM     16  C   UNL d   1      49.255  34.519  51.445  0.00  0.00     0.082 C 
ATOM     17  C   UNL d   1      48.689  34.558  50.825  0.00  0.00     0.021 C 
ENDBRANCH  15  16
ENDBRANCH   1   7
BRANCH   2  18
ATOM     18  C   UNL d   1      52.322  34.006  52.979  0.00  0.00     0.083 C 
BRANCH  18  19
ATOM     19  C   UNL d   1      52.693  34.367  53.630  0.00  0.00     0.018 A 
ATOM     20  C   UNL d   1      52.961  33.892  54.255  0.00  0.00     0.002 A 
ATOM     21  C   UNL d   1      53.328  34.253  54.899  0.00  0.00     0.000 A 
ATOM     22  C   UNL d   1      53.429  35.066  54.927  0.00  0.00     0.000 A 
ATOM     23  C   UNL d   1      53.162  35.534  54.303  0.00  0.00     0.000 A 
ATOM     24  C   UNL d   1      52.791  35.180  53.650  0.00  0.00     0.002 A 
ENDBRANCH  18  19
ENDBRANCH   2  18
TORSDOF 4
ENDMDL
MODEL 7
REMARK VINA RESULT:      -7.2      1.333      4.333
REMARK  4 active torsions:
REMARK  status: ('A' for Active; 'I' for Inactive)
REMARK    1  A    between atoms: C_4  and  C_1 
REMARK    2  A    between atoms: C_13  and  N_3 
REMARK    3  A    between atoms: C_11  and  N_5 
REMARK    4  A    between atoms: C_14  and  C_11 
ROOT
ATOM      1  C   UNL d   1      52.001  34.558  53.755  0.00  0.00     0.057 A 
ATOM      2  N   UNL d   1      53.052  34.012  54.389  0.00  0.00    -0.272 N 
ATOM      3  C   UNL d   1      53.175  34.832  54.342  0.00  0.00     0.265 A 
ATOM      4  C   UNL d   1      52.333  33.849  54.029  0.00  0.00     0.086 A 
ATOM      5  C   UNL d   1      52.531  35.165  53.954  0.00  0.00     0.066 A 
ATOM      6  O   UNL d   1      53.835  35.233  54.638  0.00  0.00    -0.267 OA
ENDROOT
BRANCH   1   7
ATOM      7  C   UNL d   1      51.283  34.594  53.369  0.00  0.00     0.149 A 
ATOM      8  N   UNL d   1      50.573  34.829  53.639  0.00  0.00    -0.227 NA
ATOM      9  C   UNL d   1      50.019  34.762  53.027  0.00  0.00     0.099 A 
ATOM     10  C   UNL d   1      49.220  34.925  52.998  0.00  0.00     0.021 A 
ATOM     11  C   UNL d   1      50.413  34.478  52.373  0.00  0.00     0.083 A 
ATOM     12  C   UNL d   1      48.813  34.795  52.287  0.00  0.00     0.002 A 
ATOM     13  C   UNL d   1      49.207  34.512  51.632  0.00  0.00     0.002 A 
ATOM     14  C   UNL d   1      50.020  34.348  51.669  0.00  0.00     0.019 A 
ATOM     15  N   UNL d   1      51.206  34.373  52.587  0.00  0.00    -0.289 N 
BRANCH  15  16
ATOM     16  C   UNL d   1      51.820  34.092  52.095  0.00  0.00     0.082 C 
ATOM     17  C   UNL d   1      51.911  34.402  51.319  0.00  0.00     0.021 C 
ENDBRANCH  15  16
ENDBRANCH   1   7
BRANCH   2  18
ATOM     18  C   UNL d   1      53.567  33.454  54.740  0.00  0.00     0.083 C 
BRANCH  18  19
ATOM     19  C   UNL d   1      53.793  32.780  54.307  0.00  0.00     0.018 A 
ATOM     20  C   UNL d   1      53.398  32.063  54.442  0.00  0.00     0.002 A 
ATOM     21  C   UNL d   1      53.624  31.398  54.012  0.00  0.00     0.000 A 
ATOM     22  C   UNL d   1      54.228  31.437  53.459  0.00  0.00     0.000 A 
ATOM     23  C   UNL d   1      54.618  32.152  53.328  0.00  0.00     0.000 A 
ATOM     24  C   UNL d   1      54.397  32.827  53.757  0.00  0.00     0.002 A 
ENDBRANCH  18  19
ENDBRANCH   2  18
TORSDOF 4
ENDMDL
