MODEL 1
REMARK VINA RESULT:      31.1      0.000      0.000
REMARK  3 active torsions:
REMARK  status: ('A' for Active; 'I' for Inactive)
REMARK    1  A    between atoms: N_2  and  S_1 
REMARK    2  A    between atoms: N_3  and  S_1 
REMARK    3  A    between atoms: C_4  and  N_2 
ROOT
ATOM      1  S   UNL d   1      59.183  49.415  51.177  0.00  0.00     0.351 S 
ATOM      2  O   UNL d   1      59.277  49.169  51.957  0.00  0.00    -0.180 OA
ATOM      3  O   UNL d   1      59.083  49.663  50.394  0.00  0.00    -0.180 OA
ENDROOT
BRANCH   1   4
ATOM      4  N   UNL d   1      58.421  49.707  51.286  0.00  0.00    -0.144 NA
BRANCH   4   5
ATOM      5  C   UNL d   1      57.846  49.620  50.686  0.00  0.00     0.095 A 
ATOM      6  C   UNL d   1      57.051  49.460  50.886  0.00  0.00     0.018 A 
ATOM      7  C   UNL d   1      56.479  49.386  50.292  0.00  0.00     0.002 A 
ATOM      8  C   UNL d   1      56.865  49.249  51.669  0.00  0.00     0.002 C 
ATOM      9  C   UNL d   1      56.702  49.466  49.492  0.00  0.00     0.000 A 
ATOM     10  C   UNL d   1      57.495  49.628  49.278  0.00  0.00     0.002 A 
ATOM     11  C   UNL d   1      56.129  49.373  48.905  0.00  0.00     0.000 C 
ATOM     12  C   UNL d   1      58.066  49.707  49.882  0.00  0.00     0.020 A 
ENDBRANCH   4   5
ENDBRANCH   1   4
BRANCH   1  13
ATOM     13  N   UNL d   1      59.940  49.142  51.000  0.00  0.00    -0.215 N 
ATOM     14  C   UNL d   1      60.128  48.343  51.132  0.00  0.00     0.093 C 
ATOM     15  C   UNL d   1      60.880  48.076  50.956  0.00  0.00     0.020 C 
ATOM     16  C   UNL d   1      61.481  48.605  50.756  0.00  0.00     0.003 C 
ATOM     17  C   UNL d   1      61.320  49.412  50.733  0.00  0.00     0.020 C 
ATOM     18  C   UNL d   1      60.560  49.691  50.911  0.00  0.00     0.093 C 
ENDBRANCH   1  13
TORSDOF 3
ENDMDL
