MODEL 1
REMARK VINA RESULT:      -6.3      0.000      0.000
REMARK  8 active torsions:
REMARK  status: ('A' for Active; 'I' for Inactive)
REMARK    1  A    between atoms: N_3  and  S_1 
REMARK    2  A    between atoms: C_5  and  S_1 
REMARK    3  A    between atoms: N_2  and  C_7 
REMARK    4  A    between atoms: C_6  and  N_3 
REMARK    5  A    between atoms: C_18  and  N_4 
REMARK    6  A    between atoms: C_7  and  C_6 
REMARK    7  A    between atoms: C_12  and  C_7 
REMARK    8  A    between atoms: O_23  and  C_17 
ROOT
ATOM      1  C   UNL d   1      52.938  32.867  53.296  0.00  0.00     0.086 C 
ENDROOT
BRANCH   1   2
ATOM      2  N   UNL d   1      52.225  33.272  53.152  0.00  0.00    -0.300 N 
ATOM      3  C   UNL d   1      52.197  33.852  52.570  0.00  0.00     0.100 A 
ATOM      4  C   UNL d   1      51.493  34.256  52.424  0.00  0.00     0.100 A 
ATOM      5  N   UNL d   1      50.818  34.077  52.861  0.00  0.00    -0.301 N 
ATOM      6  C   UNL d   1      50.848  33.495  53.445  0.00  0.00     0.100 A 
ATOM      7  C   UNL d   1      51.551  33.094  53.589  0.00  0.00     0.100 A 
BRANCH   5   8
ATOM      8  C   UNL d   1      50.116  34.478  52.718  0.00  0.00     0.064 A 
ATOM      9  C   UNL d   1      49.789  34.964  53.301  0.00  0.00     0.018 A 
ATOM     10  C   UNL d   1      49.086  35.364  53.157  0.00  0.00     0.002 A 
ATOM     11  C   UNL d   1      48.703  35.282  52.426  0.00  0.00     0.000 A 
ATOM     12  C   UNL d   1      49.031  34.796  51.843  0.00  0.00     0.002 A 
ATOM     13  C   UNL d   1      49.734  34.396  51.987  0.00  0.00     0.018 A 
ENDBRANCH   5   8
ENDBRANCH   1   2
BRANCH   1  14
ATOM     14  C   UNL d   1      53.146  32.223  52.824  0.00  0.00     0.130 C 
BRANCH  14  15
ATOM     15  N   UNL d   1      52.970  31.451  53.077  0.00  0.00    -0.155 NA
BRANCH  15  16
ATOM     16  S   UNL d   1      53.040  30.820  52.555  0.00  0.00     0.285 S 
ATOM     17  O   UNL d   1      53.071  31.399  51.851  0.00  0.00    -0.198 OA
ATOM     18  O   UNL d   1      53.105  30.223  52.086  0.00  0.00    -0.198 OA
BRANCH  16  19
ATOM     19  C   UNL d   1      53.013  30.292  53.190  0.00  0.00     0.105 A 
ATOM     20  C   UNL d   1      52.288  30.035  53.477  0.00  0.00     0.015 A 
ATOM     21  C   UNL d   1      52.255  29.505  54.113  0.00  0.00     0.023 A 
ATOM     22  C   UNL d   1      51.524  29.248  54.400  0.00  0.00     0.002 C 
ATOM     23  C   UNL d   1      52.960  29.234  54.461  0.00  0.00     0.094 A 
ATOM     24  C   UNL d   1      53.690  29.495  54.169  0.00  0.00     0.025 A 
ATOM     25  C   UNL d   1      53.718  30.020  53.538  0.00  0.00     0.015 A 
BRANCH  23  26
ATOM     26  O   UNL d   1      52.932  28.706  55.096  0.00  0.00    -0.328 OA
ATOM     27  C   UNL d   1      53.636  28.447  55.457  0.00  0.00     0.181 C 
ENDBRANCH  23  26
ENDBRANCH  16  19
ENDBRANCH  15  16
ENDBRANCH  14  15
ENDBRANCH   1  14
BRANCH   1  28
ATOM     28  C   UNL d   1      53.436  33.108  53.905  0.00  0.00     0.037 A 
ATOM     29  C   UNL d   1      53.173  33.081  54.686  0.00  0.00     0.100 A 
ATOM     30  N   UNL d   1      53.674  33.323  55.299  0.00  0.00    -0.242 NA
ATOM     31  C   UNL d   1      54.435  33.590  55.127  0.00  0.00     0.099 A 
ATOM     32  C   UNL d   1      54.695  33.616  54.349  0.00  0.00     0.021 A 
ATOM     33  C   UNL d   1      54.194  33.374  53.736  0.00  0.00     0.005 A 
ENDBRANCH   1  28
TORSDOF 8
ENDMDL
MODEL 2
REMARK VINA RESULT:      -5.8      1.298      1.538
REMARK  8 active torsions:
REMARK  status: ('A' for Active; 'I' for Inactive)
REMARK    1  A    between atoms: N_3  and  S_1 
REMARK    2  A    between atoms: C_5  and  S_1 
REMARK    3  A    between atoms: N_2  and  C_7 
REMARK    4  A    between atoms: C_6  and  N_3 
REMARK    5  A    between atoms: C_18  and  N_4 
REMARK    6  A    between atoms: C_7  and  C_6 
REMARK    7  A    between atoms: C_12  and  C_7 
REMARK    8  A    between atoms: O_23  and  C_17 
ROOT
ATOM      1  C   UNL d   1      52.861  34.082  53.426  0.00  0.00     0.086 C 
ENDROOT
BRANCH   1   2
ATOM      2  N   UNL d   1      52.123  34.153  53.046  0.00  0.00    -0.300 N 
ATOM      3  C   UNL d   1      52.081  34.503  52.304  0.00  0.00     0.100 A 
ATOM      4  C   UNL d   1      51.352  34.576  51.924  0.00  0.00     0.100 A 
ATOM      5  N   UNL d   1      50.669  34.298  52.288  0.00  0.00    -0.301 N 
ATOM      6  C   UNL d   1      50.714  33.947  53.034  0.00  0.00     0.100 A 
ATOM      7  C   UNL d   1      51.440  33.875  53.411  0.00  0.00     0.100 A 
BRANCH   5   8
ATOM      8  C   UNL d   1      49.943  34.369  51.912  0.00  0.00     0.064 A 
ATOM      9  C   UNL d   1      49.296  34.690  52.315  0.00  0.00     0.018 A 
ATOM     10  C   UNL d   1      48.570  34.761  51.938  0.00  0.00     0.002 A 
ATOM     11  C   UNL d   1      48.483  34.511  51.153  0.00  0.00     0.000 A 
ATOM     12  C   UNL d   1      49.129  34.189  50.750  0.00  0.00     0.002 A 
ATOM     13  C   UNL d   1      49.856  34.118  51.127  0.00  0.00     0.018 A 
ENDBRANCH   5   8
ENDBRANCH   1   2
BRANCH   1  14
ATOM     14  C   UNL d   1      53.439  33.586  53.109  0.00  0.00     0.130 C 
BRANCH  14  15
ATOM     15  N   UNL d   1      53.522  32.810  53.396  0.00  0.00    -0.155 NA
BRANCH  15  16
ATOM     16  S   UNL d   1      54.199  32.377  53.223  0.00  0.00     0.285 S 
ATOM     17  O   UNL d   1      54.626  33.139  52.961  0.00  0.00    -0.198 OA
ATOM     18  O   UNL d   1      54.816  31.959  53.067  0.00  0.00    -0.198 OA
BRANCH  16  19
ATOM     19  C   UNL d   1      53.815  31.684  53.459  0.00  0.00     0.105 A 
ATOM     20  C   UNL d   1      53.394  31.243  52.909  0.00  0.00     0.015 A 
ATOM     21  C   UNL d   1      53.007  30.548  53.141  0.00  0.00     0.023 A 
ATOM     22  C   UNL d   1      52.584  30.104  52.586  0.00  0.00     0.002 C 
ATOM     23  C   UNL d   1      53.047  30.297  53.933  0.00  0.00     0.094 A 
ATOM     24  C   UNL d   1      53.473  30.745  54.485  0.00  0.00     0.025 A 
ATOM     25  C   UNL d   1      53.855  31.434  54.251  0.00  0.00     0.015 A 
BRANCH  23  26
ATOM     26  O   UNL d   1      52.663  29.604  54.169  0.00  0.00    -0.328 OA
ATOM     27  C   UNL d   1      53.021  29.095  54.721  0.00  0.00     0.181 C 
ENDBRANCH  23  26
ENDBRANCH  16  19
ENDBRANCH  15  16
ENDBRANCH  14  15
ENDBRANCH   1  14
BRANCH   1  28
ATOM     28  C   UNL d   1      53.016  34.505  54.115  0.00  0.00     0.037 A 
ATOM     29  C   UNL d   1      52.876  34.158  54.850  0.00  0.00     0.100 A 
ATOM     30  N   UNL d   1      53.032  34.583  55.543  0.00  0.00    -0.242 NA
ATOM     31  C   UNL d   1      53.325  35.353  55.496  0.00  0.00     0.099 A 
ATOM     32  C   UNL d   1      53.463  35.696  54.764  0.00  0.00     0.021 A 
ATOM     33  C   UNL d   1      53.307  35.271  54.071  0.00  0.00     0.005 A 
ENDBRANCH   1  28
TORSDOF 8
ENDMDL
MODEL 3
REMARK VINA RESULT:      -3.9      1.892      4.713
REMARK  8 active torsions:
REMARK  status: ('A' for Active; 'I' for Inactive)
REMARK    1  A    between atoms: N_3  and  S_1 
REMARK    2  A    between atoms: C_5  and  S_1 
REMARK    3  A    between atoms: N_2  and  C_7 
REMARK    4  A    between atoms: C_6  and  N_3 
REMARK    5  A    between atoms: C_18  and  N_4 
REMARK    6  A    between atoms: C_7  and  C_6 
REMARK    7  A    between atoms: C_12  and  C_7 
REMARK    8  A    between atoms: O_23  and  C_17 
ROOT
ATOM      1  C   UNL d   1      54.027  33.182  53.913  0.00  0.00     0.086 C 
ENDROOT
BRANCH   1   2
ATOM      2  N   UNL d   1      53.830  32.373  53.913  0.00  0.00    -0.300 N 
ATOM      3  C   UNL d   1      54.167  31.873  53.354  0.00  0.00     0.100 A 
ATOM      4  C   UNL d   1      53.974  31.071  53.350  0.00  0.00     0.100 A 
ATOM      5  N   UNL d   1      53.445  30.773  53.905  0.00  0.00    -0.301 N 
ATOM      6  C   UNL d   1      53.107  31.276  54.465  0.00  0.00     0.100 A 
ATOM      7  C   UNL d   1      53.300  32.075  54.468  0.00  0.00     0.100 A 
BRANCH   5   8
ATOM      8  C   UNL d   1      53.251  29.975  53.903  0.00  0.00     0.064 A 
ATOM      9  C   UNL d   1      52.760  29.668  53.312  0.00  0.00     0.018 A 
ATOM     10  C   UNL d   1      52.567  28.870  53.311  0.00  0.00     0.002 A 
ATOM     11  C   UNL d   1      52.864  28.369  53.901  0.00  0.00     0.000 A 
ATOM     12  C   UNL d   1      53.355  28.676  54.491  0.00  0.00     0.002 A 
ATOM     13  C   UNL d   1      53.548  29.474  54.493  0.00  0.00     0.018 A 
ENDBRANCH   5   8
ENDBRANCH   1   2
BRANCH   1  14
ATOM     14  C   UNL d   1      53.843  33.649  53.258  0.00  0.00     0.130 C 
BRANCH  14  15
ATOM     15  N   UNL d   1      53.095  34.008  53.202  0.00  0.00    -0.155 NA
BRANCH  15  16
ATOM     16  S   UNL d   1      52.950  34.568  52.618  0.00  0.00     0.285 S 
ATOM     17  O   UNL d   1      53.843  34.622  52.440  0.00  0.00    -0.198 OA
ATOM     18  O   UNL d   1      52.796  35.086  52.081  0.00  0.00    -0.198 OA
BRANCH  16  19
ATOM     19  C   UNL d   1      52.140  34.523  52.777  0.00  0.00     0.105 A 
ATOM     20  C   UNL d   1      51.653  34.076  52.290  0.00  0.00     0.015 A 
ATOM     21  C   UNL d   1      50.841  34.027  52.444  0.00  0.00     0.023 A 
ATOM     22  C   UNL d   1      50.351  33.578  51.953  0.00  0.00     0.002 C 
ATOM     23  C   UNL d   1      50.519  34.433  53.096  0.00  0.00     0.094 A 
ATOM     24  C   UNL d   1      51.014  34.882  53.585  0.00  0.00     0.025 A 
ATOM     25  C   UNL d   1      51.819  34.928  53.429  0.00  0.00     0.015 A 
BRANCH  23  26
ATOM     26  O   UNL d   1      49.709  34.387  53.255  0.00  0.00    -0.328 OA
ATOM     27  C   UNL d   1      49.255  35.081  53.321  0.00  0.00     0.181 C 
ENDBRANCH  23  26
ENDBRANCH  16  19
ENDBRANCH  15  16
ENDBRANCH  14  15
ENDBRANCH   1  14
BRANCH   1  28
ATOM     28  C   UNL d   1      54.405  33.517  54.563  0.00  0.00     0.037 A 
ATOM     29  C   UNL d   1      53.964  33.752  55.219  0.00  0.00     0.100 A 
ATOM     30  N   UNL d   1      54.344  34.089  55.873  0.00  0.00    -0.242 NA
ATOM     31  C   UNL d   1      55.162  34.188  55.866  0.00  0.00     0.099 A 
ATOM     32  C   UNL d   1      55.599  33.954  55.213  0.00  0.00     0.021 A 
ATOM     33  C   UNL d   1      55.219  33.617  54.559  0.00  0.00     0.005 A 
ENDBRANCH   1  28
TORSDOF 8
ENDMDL
MODEL 4
REMARK VINA RESULT:      -3.6      2.009      4.639
REMARK  8 active torsions:
REMARK  status: ('A' for Active; 'I' for Inactive)
REMARK    1  A    between atoms: N_3  and  S_1 
REMARK    2  A    between atoms: C_5  and  S_1 
REMARK    3  A    between atoms: N_2  and  C_7 
REMARK    4  A    between atoms: C_6  and  N_3 
REMARK    5  A    between atoms: C_18  and  N_4 
REMARK    6  A    between atoms: C_7  and  C_6 
REMARK    7  A    between atoms: C_12  and  C_7 
REMARK    8  A    between atoms: O_23  and  C_17 
ROOT
ATOM      1  C   UNL d   1      51.755  33.941  52.787  0.00  0.00     0.086 C 
ENDROOT
BRANCH   1   2
ATOM      2  N   UNL d   1      51.990  33.149  52.896  0.00  0.00    -0.300 N 
ATOM      3  C   UNL d   1      52.582  32.832  52.422  0.00  0.00     0.100 A 
ATOM      4  C   UNL d   1      52.818  32.048  52.527  0.00  0.00     0.100 A 
ATOM      5  N   UNL d   1      52.460  31.585  53.106  0.00  0.00    -0.301 N 
ATOM      6  C   UNL d   1      51.866  31.906  53.581  0.00  0.00     0.100 A 
ATOM      7  C   UNL d   1      51.633  32.686  53.475  0.00  0.00     0.100 A 
BRANCH   5   8
ATOM      8  C   UNL d   1      52.693  30.806  53.211  0.00  0.00     0.064 A 
ATOM      9  C   UNL d   1      52.229  30.190  52.912  0.00  0.00     0.018 A 
ATOM     10  C   UNL d   1      52.463  29.409  53.019  0.00  0.00     0.002 A 
ATOM     11  C   UNL d   1      53.164  29.237  53.426  0.00  0.00     0.000 A 
ATOM     12  C   UNL d   1      53.628  29.853  53.725  0.00  0.00     0.002 A 
ATOM     13  C   UNL d   1      53.394  30.633  53.619  0.00  0.00     0.018 A 
ENDBRANCH   5   8
ENDBRANCH   1   2
BRANCH   1  14
ATOM     14  C   UNL d   1      52.278  34.552  52.972  0.00  0.00     0.130 C 
BRANCH  14  15
ATOM     15  N   UNL d   1      52.642  34.576  53.718  0.00  0.00    -0.155 NA
BRANCH  15  16
ATOM     16  S   UNL d   1      53.038  35.253  53.962  0.00  0.00     0.285 S 
ATOM     17  O   UNL d   1      52.517  35.762  53.414  0.00  0.00    -0.198 OA
ATOM     18  O   UNL d   1      53.417  35.870  54.201  0.00  0.00    -0.198 OA
BRANCH  16  19
ATOM     19  C   UNL d   1      53.513  34.795  54.460  0.00  0.00     0.105 A 
ATOM     20  C   UNL d   1      54.257  34.555  54.209  0.00  0.00     0.015 A 
ATOM     21  C   UNL d   1      54.737  34.096  54.704  0.00  0.00     0.023 A 
ATOM     22  C   UNL d   1      55.486  33.856  54.449  0.00  0.00     0.002 C 
ATOM     23  C   UNL d   1      54.463  33.878  55.458  0.00  0.00     0.094 A 
ATOM     24  C   UNL d   1      53.712  34.122  55.709  0.00  0.00     0.025 A 
ATOM     25  C   UNL d   1      53.239  34.577  55.215  0.00  0.00     0.015 A 
BRANCH  23  26
ATOM     26  O   UNL d   1      54.938  33.420  55.956  0.00  0.00    -0.328 OA
ATOM     27  C   UNL d   1      54.635  32.728  56.304  0.00  0.00     0.181 C 
ENDBRANCH  23  26
ENDBRANCH  16  19
ENDBRANCH  15  16
ENDBRANCH  14  15
ENDBRANCH   1  14
BRANCH   1  28
ATOM     28  C   UNL d   1      51.005  34.115  52.497  0.00  0.00     0.037 A 
ATOM     29  C   UNL d   1      50.379  34.235  53.020  0.00  0.00     0.100 A 
ATOM     30  N   UNL d   1      49.625  34.410  52.728  0.00  0.00    -0.242 NA
ATOM     31  C   UNL d   1      49.502  34.464  51.914  0.00  0.00     0.099 A 
ATOM     32  C   UNL d   1      50.126  34.345  51.395  0.00  0.00     0.021 A 
ATOM     33  C   UNL d   1      50.880  34.169  51.688  0.00  0.00     0.005 A 
ENDBRANCH   1  28
TORSDOF 8
ENDMDL
