MODEL 1
REMARK VINA RESULT:      -4.3      0.000      0.000
REMARK  7 active torsions:
REMARK  status: ('A' for Active; 'I' for Inactive)
REMARK    1  A    between atoms: C_2  and  S_1 
REMARK    2  A    between atoms: N_6  and  S_1 
REMARK    3  A    between atoms: O_14  and  C_5 
REMARK    4  A    between atoms: C_15  and  N_6 
REMARK    5  A    between atoms: O_16  and  C_7 
REMARK    6  A    between atoms: C_11  and  C_19 
REMARK    7  A    between atoms: C_19  and  C_15 
ROOT
ATOM      1  C   UNL d   1      57.509  -0.014  30.696  0.00  0.00     0.112 C 
ENDROOT
BRANCH   1   2
ATOM      2  N   UNL d   1      58.110  -0.255  30.190  0.00  0.00    -0.157 NA
BRANCH   2   3
ATOM      3  S   UNL d   1      58.141   0.022  29.412  0.00  0.00     0.285 S 
ATOM      4  O   UNL d   1      57.486   0.498  29.568  0.00  0.00    -0.198 OA
ATOM      5  O   UNL d   1      58.162   0.302  28.645  0.00  0.00    -0.198 OA
BRANCH   3   6
ATOM      6  C   UNL d   1      58.796  -0.459  29.264  0.00  0.00     0.105 A 
ATOM      7  C   UNL d   1      59.563  -0.181  29.407  0.00  0.00     0.013 A 
ATOM      8  C   UNL d   1      60.212  -0.667  29.256  0.00  0.00     0.001 A 
ATOM      9  C   UNL d   1      60.975  -0.392  29.398  0.00  0.00     0.000 C 
ATOM     10  C   UNL d   1      60.096  -1.432  28.963  0.00  0.00     0.000 A 
ATOM     11  C   UNL d   1      59.332  -1.707  28.822  0.00  0.00     0.001 A 
ATOM     12  C   UNL d   1      58.683  -1.221  28.972  0.00  0.00     0.013 A 
ENDBRANCH   3   6
ENDBRANCH   2   3
ENDBRANCH   1   2
BRANCH   1  13
ATOM     13  C   UNL d   1      57.574  -0.171  31.496  0.00  0.00     0.022 C 
BRANCH  13  14
ATOM     14  C   UNL d   1      56.912  -0.119  31.973  0.00  0.00     0.004 A 
ATOM     15  C   UNL d   1      56.530  -0.801  32.237  0.00  0.00     0.026 A 
ATOM     16  C   UNL d   1      55.862  -0.744  32.718  0.00  0.00     0.116 A 
ATOM     17  C   UNL d   1      55.577   0.011  32.937  0.00  0.00     0.116 A 
ATOM     18  C   UNL d   1      55.957   0.681  32.675  0.00  0.00     0.026 A 
ATOM     19  C   UNL d   1      56.621   0.627  32.196  0.00  0.00     0.002 A 
BRANCH  16  20
ATOM     20  O   UNL d   1      55.483  -1.429  32.980  0.00  0.00    -0.326 OA
ATOM     21  C   UNL d   1      55.840  -2.151  33.313  0.00  0.00     0.181 C 
ENDBRANCH  16  20
BRANCH  17  22
ATOM     22  O   UNL d   1      54.930   0.083  33.404  0.00  0.00    -0.326 OA
ATOM     23  C   UNL d   1      54.872   0.682  33.954  0.00  0.00     0.181 C 
ENDBRANCH  17  22
ENDBRANCH  13  14
ENDBRANCH   1  13
TORSDOF 7
ENDMDL
MODEL 2
REMARK VINA RESULT:      -4.1      1.477      5.097
REMARK  7 active torsions:
REMARK  status: ('A' for Active; 'I' for Inactive)
REMARK    1  A    between atoms: C_2  and  S_1 
REMARK    2  A    between atoms: N_6  and  S_1 
REMARK    3  A    between atoms: O_14  and  C_5 
REMARK    4  A    between atoms: C_15  and  N_6 
REMARK    5  A    between atoms: O_16  and  C_7 
REMARK    6  A    between atoms: C_11  and  C_19 
REMARK    7  A    between atoms: C_19  and  C_15 
ROOT
ATOM      1  C   UNL d   1      57.142  -0.571  31.637  0.00  0.00     0.112 C 
ENDROOT
BRANCH   1   2
ATOM      2  N   UNL d   1      56.562  -0.409  32.195  0.00  0.00    -0.157 NA
BRANCH   2   3
ATOM      3  S   UNL d   1      56.258  -1.010  32.673  0.00  0.00     0.285 S 
ATOM      4  O   UNL d   1      56.597  -1.567  32.167  0.00  0.00    -0.198 OA
ATOM      5  O   UNL d   1      55.962  -1.613  33.138  0.00  0.00    -0.198 OA
BRANCH   3   6
ATOM      6  C   UNL d   1      55.922  -0.446  33.174  0.00  0.00     0.105 A 
ATOM      7  C   UNL d   1      56.330  -0.181  33.842  0.00  0.00     0.013 A 
ATOM      8  C   UNL d   1      55.987   0.383  34.337  0.00  0.00     0.001 A 
ATOM      9  C   UNL d   1      56.392   0.649  35.004  0.00  0.00     0.000 C 
ATOM     10  C   UNL d   1      55.235   0.681  34.165  0.00  0.00     0.000 A 
ATOM     11  C   UNL d   1      54.829   0.415  33.498  0.00  0.00     0.001 A 
ATOM     12  C   UNL d   1      55.173  -0.148  33.003  0.00  0.00     0.013 A 
ENDBRANCH   3   6
ENDBRANCH   2   3
ENDBRANCH   1   2
BRANCH   1  13
ATOM     13  C   UNL d   1      57.306  -0.018  31.057  0.00  0.00     0.022 C 
BRANCH  13  14
ATOM     14  C   UNL d   1      57.963  -0.113  30.580  0.00  0.00     0.004 A 
ATOM     15  C   UNL d   1      58.646   0.330  30.714  0.00  0.00     0.026 A 
ATOM     16  C   UNL d   1      59.307   0.232  30.230  0.00  0.00     0.116 A 
ATOM     17  C   UNL d   1      59.278  -0.322  29.603  0.00  0.00     0.116 A 
ATOM     18  C   UNL d   1      58.603  -0.757  29.475  0.00  0.00     0.026 A 
ATOM     19  C   UNL d   1      57.943  -0.660  29.955  0.00  0.00     0.002 A 
BRANCH  16  20
ATOM     20  O   UNL d   1      59.988   0.676  30.367  0.00  0.00    -0.326 OA
ATOM     21  C   UNL d   1      60.574   0.585  31.007  0.00  0.00     0.181 C 
ENDBRANCH  16  20
BRANCH  17  22
ATOM     22  O   UNL d   1      59.912  -0.430  29.124  0.00  0.00    -0.326 OA
ATOM     23  C   UNL d   1      59.936  -1.044  28.590  0.00  0.00     0.181 C 
ENDBRANCH  17  22
ENDBRANCH  13  14
ENDBRANCH   1  13
TORSDOF 7
ENDMDL
MODEL 3
REMARK VINA RESULT:      -1.6      1.599      2.322
REMARK  7 active torsions:
REMARK  status: ('A' for Active; 'I' for Inactive)
REMARK    1  A    between atoms: C_2  and  S_1 
REMARK    2  A    between atoms: N_6  and  S_1 
REMARK    3  A    between atoms: O_14  and  C_5 
REMARK    4  A    between atoms: C_15  and  N_6 
REMARK    5  A    between atoms: O_16  and  C_7 
REMARK    6  A    between atoms: C_11  and  C_19 
REMARK    7  A    between atoms: C_19  and  C_15 
ROOT
ATOM      1  C   UNL d   1      56.692  -0.058  32.224  0.00  0.00     0.112 C 
ENDROOT
BRANCH   1   2
ATOM      2  N   UNL d   1      57.159  -0.013  31.549  0.00  0.00    -0.157 NA
BRANCH   2   3
ATOM      3  S   UNL d   1      57.255  -0.672  31.061  0.00  0.00     0.285 S 
ATOM      4  O   UNL d   1      56.691  -1.073  31.510  0.00  0.00    -0.198 OA
ATOM      5  O   UNL d   1      57.343  -1.329  30.583  0.00  0.00    -0.198 OA
BRANCH   3   6
ATOM      6  C   UNL d   1      57.819  -0.263  30.616  0.00  0.00     0.105 A 
ATOM      7  C   UNL d   1      57.695  -0.118  29.811  0.00  0.00     0.013 A 
ATOM      8  C   UNL d   1      58.264   0.291  29.374  0.00  0.00     0.001 A 
ATOM      9  C   UNL d   1      58.142   0.437  28.573  0.00  0.00     0.000 C 
ATOM     10  C   UNL d   1      58.956   0.555  29.742  0.00  0.00     0.000 A 
ATOM     11  C   UNL d   1      59.077   0.410  30.544  0.00  0.00     0.001 A 
ATOM     12  C   UNL d   1      58.509   0.001  30.981  0.00  0.00     0.013 A 
ENDBRANCH   3   6
ENDBRANCH   2   3
ENDBRANCH   1   2
BRANCH   1  13
ATOM     13  C   UNL d   1      56.371   0.628  32.533  0.00  0.00     0.022 C 
BRANCH  13  14
ATOM     14  C   UNL d   1      56.116   0.641  33.311  0.00  0.00     0.004 A 
ATOM     15  C   UNL d   1      55.310   0.650  33.488  0.00  0.00     0.026 A 
ATOM     16  C   UNL d   1      55.057   0.663  34.273  0.00  0.00     0.116 A 
ATOM     17  C   UNL d   1      55.625   0.667  34.887  0.00  0.00     0.116 A 
ATOM     18  C   UNL d   1      56.418   0.657  34.708  0.00  0.00     0.026 A 
ATOM     19  C   UNL d   1      56.672   0.644  33.927  0.00  0.00     0.002 A 
BRANCH  16  20
ATOM     20  O   UNL d   1      54.250   0.673  34.446  0.00  0.00    -0.326 OA
ATOM     21  C   UNL d   1      53.578   0.617  33.893  0.00  0.00     0.181 C 
ENDBRANCH  16  20
BRANCH  17  22
ATOM     22  O   UNL d   1      55.395   0.679  35.655  0.00  0.00    -0.326 OA
ATOM     23  C   UNL d   1      55.662   0.120  36.184  0.00  0.00     0.181 C 
ENDBRANCH  17  22
ENDBRANCH  13  14
ENDBRANCH   1  13
TORSDOF 7
ENDMDL
