MODEL 1
REMARK VINA RESULT:      23.6      0.000      0.000
REMARK  3 active torsions:
REMARK  status: ('A' for Active; 'I' for Inactive)
REMARK    1  A    between atoms: N_2  and  S_1 
REMARK    2  A    between atoms: C_3  and  S_1 
REMARK    3  A    between atoms: C_10  and  C_9 
ROOT
ATOM      1  C   UNL d   1      46.024 -18.189  44.251  0.00  0.00     0.104 A 
ATOM      2  C   UNL d   1      45.776 -16.563  44.461  0.00  0.00     0.000 A 
ATOM      3  C   UNL d   1      46.524 -17.645  43.887  0.00  0.00     0.013 A 
ATOM      4  C   UNL d   1      45.401 -17.923  44.719  0.00  0.00     0.013 A 
ATOM      5  C   UNL d   1      45.277 -17.106  44.824  0.00  0.00     0.001 A 
ATOM      6  C   UNL d   1      46.399 -16.828  43.992  0.00  0.00     0.001 A 
ENDROOT
BRANCH   1   7
ATOM      7  S   UNL d   1      46.151 -18.997  44.144  0.00  0.00     0.271 S 
ATOM      8  O   UNL d   1      46.233 -19.097  44.954  0.00  0.00    -0.200 OA
ATOM      9  O   UNL d   1      46.277 -19.798  44.041  0.00  0.00    -0.200 OA
BRANCH   7  10
ATOM     10  N   UNL d   1      46.068 -18.898  43.337  0.00  0.00    -0.226 N 
ATOM     11  C   UNL d   1      46.647 -18.497  42.909  0.00  0.00     0.111 A 
ATOM     12  C   UNL d   1      46.553 -18.403  42.095  0.00  0.00     0.100 A 
ATOM     13  N   UNL d   1      45.892 -18.704  41.712  0.00  0.00    -0.299 N 
ATOM     14  C   UNL d   1      45.313 -19.105  42.135  0.00  0.00     0.100 A 
ATOM     15  C   UNL d   1      45.809 -18.604  40.897  0.00  0.00     0.100 C 
ATOM     16  C   UNL d   1      45.396 -19.206  42.955  0.00  0.00     0.111 A 
ENDBRANCH   7  10
ENDBRANCH   1   7
BRANCH   2  17
ATOM     17  C   UNL d   1      45.658 -15.761  44.561  0.00  0.00     0.000 A 
ATOM     18  C   UNL d   1      44.922 -15.476  44.816  0.00  0.00     0.000 A 
ATOM     19  C   UNL d   1      44.807 -14.665  44.916  0.00  0.00     0.000 A 
ATOM     20  C   UNL d   1      45.422 -14.140  44.763  0.00  0.00     0.000 A 
ATOM     21  C   UNL d   1      46.163 -14.423  44.506  0.00  0.00     0.000 A 
ATOM     22  C   UNL d   1      45.308 -13.329  44.863  0.00  0.00     0.000 C 
ATOM     23  C   UNL d   1      46.274 -15.235  44.408  0.00  0.00     0.000 A 
ENDBRANCH   2  17
TORSDOF 3
ENDMDL
MODEL 2
REMARK VINA RESULT:      26.0      3.171      4.822
REMARK  3 active torsions:
REMARK  status: ('A' for Active; 'I' for Inactive)
REMARK    1  A    between atoms: N_2  and  S_1 
REMARK    2  A    between atoms: C_3  and  S_1 
REMARK    3  A    between atoms: C_10  and  C_9 
ROOT
ATOM      1  C   UNL d   1      45.910 -13.721  44.395  0.00  0.00     0.104 A 
ATOM      2  C   UNL d   1      45.892 -15.376  44.309  0.00  0.00     0.000 A 
ATOM      3  C   UNL d   1      46.320 -14.107  43.794  0.00  0.00     0.013 A 
ATOM      4  C   UNL d   1      45.491 -14.158  44.952  0.00  0.00     0.013 A 
ATOM      5  C   UNL d   1      45.482 -14.990  44.909  0.00  0.00     0.001 A 
ATOM      6  C   UNL d   1      46.311 -14.939  43.751  0.00  0.00     0.001 A 
ENDROOT
BRANCH   1   7
ATOM      7  S   UNL d   1      45.922 -12.897  44.434  0.00  0.00     0.271 S 
ATOM      8  O   UNL d   1      46.556 -12.925  44.954  0.00  0.00    -0.200 OA
ATOM      9  O   UNL d   1      45.937 -12.081  44.474  0.00  0.00    -0.200 OA
BRANCH   7  10
ATOM     10  N   UNL d   1      45.292 -12.868  43.915  0.00  0.00    -0.226 N 
ATOM     11  C   UNL d   1      45.409 -12.631  43.135  0.00  0.00     0.111 A 
ATOM     12  C   UNL d   1      44.764 -12.606  42.621  0.00  0.00     0.100 A 
ATOM     13  N   UNL d   1      44.013 -12.814  42.879  0.00  0.00    -0.299 N 
ATOM     14  C   UNL d   1      43.892 -13.050  43.657  0.00  0.00     0.100 A 
ATOM     15  C   UNL d   1      43.376 -12.784  42.356  0.00  0.00     0.100 C 
ATOM     16  C   UNL d   1      44.533 -13.079  44.183  0.00  0.00     0.111 A 
ENDBRANCH   7  10
ENDBRANCH   1   7
BRANCH   2  17
ATOM     17  C   UNL d   1      45.885 -16.192  44.262  0.00  0.00     0.000 A 
ATOM     18  C   UNL d   1      45.898 -16.568  43.522  0.00  0.00     0.000 A 
ATOM     19  C   UNL d   1      45.892 -17.392  43.480  0.00  0.00     0.000 A 
ATOM     20  C   UNL d   1      45.873 -17.839  44.170  0.00  0.00     0.000 A 
ATOM     21  C   UNL d   1      45.860 -17.465  44.915  0.00  0.00     0.000 A 
ATOM     22  C   UNL d   1      45.866 -18.663  44.128  0.00  0.00     0.000 C 
ATOM     23  C   UNL d   1      45.866 -16.640  44.953  0.00  0.00     0.000 A 
ENDBRANCH   2  17
TORSDOF 3
ENDMDL
