MODEL 1
REMARK VINA RESULT:      44.5      0.000      0.000
REMARK  3 active torsions:
REMARK  status: ('A' for Active; 'I' for Inactive)
REMARK    1  A    between atoms: N_5  and  S_1 
REMARK    2  A    between atoms: C_6  and  S_1 
REMARK    3  A    between atoms: C_2  and  C_13 
ROOT
ATOM      1  N   UNL d   1     -54.787-101.684 -40.821  0.00  0.00    -0.229 N 
ATOM      2  C   UNL d   1     -54.812-101.871 -38.937  0.00  0.00     0.039 A 
ATOM      3  C   UNL d   1     -54.864-100.916 -40.271  0.00  0.00     0.092 A 
ATOM      4  C   UNL d   1     -54.722-102.548 -40.427  0.00  0.00     0.092 A 
ATOM      5  C   UNL d   1     -54.877-101.008 -39.324  0.00  0.00     0.023 A 
ATOM      6  C   UNL d   1     -54.734-102.640 -39.488  0.00  0.00     0.023 A 
ENDROOT
BRANCH   1   7
ATOM      7  S   UNL d   1     -54.775-101.602 -41.677  0.00  0.00     0.271 S 
ATOM      8  O   UNL d   1     -54.821-102.421 -41.761  0.00  0.00    -0.200 OA
ATOM      9  O   UNL d   1     -54.729-100.782 -41.594  0.00  0.00    -0.200 OA
BRANCH   7  10
ATOM     10  C   UNL d   1     -54.764-101.519 -42.498  0.00  0.00     0.106 A 
ATOM     11  C   UNL d   1     -54.752-100.756 -42.828  0.00  0.00     0.040 A 
ATOM     12  C   UNL d   1     -54.741-100.682 -43.642  0.00  0.00     0.123 A 
ATOM     13  O   UNL d   1     -54.729 -99.930 -43.989  0.00  0.00    -0.301 OA
ATOM     14  C   UNL d   1     -54.742-101.353 -44.135  0.00  0.00     0.123 A 
ATOM     15  C   UNL d   1     -54.714 -99.678 -44.956  0.00  0.00     0.149 A 
ATOM     16  C   UNL d   1     -54.716-100.553 -45.482  0.00  0.00     0.149 A 
ATOM     17  O   UNL d   1     -54.730-101.270 -44.949  0.00  0.00    -0.301 OA
ATOM     18  C   UNL d   1     -54.754-102.110 -43.781  0.00  0.00     0.028 A 
ATOM     19  C   UNL d   1     -54.765-102.192 -42.972  0.00  0.00     0.015 A 
ENDBRANCH   7  10
ENDBRANCH   1   7
BRANCH   2  20
ATOM     20  C   UNL d   1     -54.824-101.964 -37.989  0.00  0.00     0.163 A 
ATOM     21  N   UNL d   1     -54.946-101.376 -37.481  0.00  0.00    -0.225 NA
ATOM     22  C   UNL d   1     -54.914-101.677 -36.755  0.00  0.00     0.101 A 
ATOM     23  C   UNL d   1     -54.999-101.327 -36.049  0.00  0.00     0.021 A 
ATOM     24  C   UNL d   1     -54.773-102.447 -36.813  0.00  0.00     0.101 A 
ATOM     25  C   UNL d   1     -54.938-101.775 -35.401  0.00  0.00     0.002 A 
ATOM     26  C   UNL d   1     -54.797-102.550 -35.455  0.00  0.00     0.002 A 
ATOM     27  C   UNL d   1     -54.716-102.875 -36.156  0.00  0.00     0.021 A 
ATOM     28  N   UNL d   1     -54.717-102.627 -37.576  0.00  0.00    -0.225 NA
ENDBRANCH   2  20
TORSDOF 3
ENDMDL
