MODEL 1
REMARK VINA RESULT:      67.8      0.000      0.000
REMARK  4 active torsions:
REMARK  status: ('A' for Active; 'I' for Inactive)
REMARK    1  A    between atoms: C_6  and  N_2 
REMARK    2  A    between atoms: C_11  and  C_6 
REMARK    3  A    between atoms: C_10  and  C_11 
REMARK       I    between atoms: N_14  and  C_10 
REMARK    4  A    between atoms: C_16  and  N_14 
ROOT
ATOM      1  C   UNL d   1     -54.888-101.862 -41.944  0.00  0.00     0.082 C 
ENDROOT
BRANCH   1   2
ATOM      2  C   UNL d   1     -55.120-101.400 -42.472  0.00  0.00     0.281 C 
ATOM      3  N   UNL d   1     -54.798-100.982 -43.101  0.00  0.00    -0.208 NA
ATOM      4  O   UNL d   1     -55.802-101.506 -42.143  0.00  0.00    -0.265 OA
BRANCH   3   5
ATOM      5  C   UNL d   1     -55.292-100.508 -43.571  0.00  0.00     0.087 A 
ATOM      6  C   UNL d   1     -55.998-100.229 -43.258  0.00  0.00     0.046 A 
ATOM      7  C   UNL d   1     -56.491 -99.755 -43.729  0.00  0.00     0.124 A 
ATOM      8  O   UNL d   1     -57.197 -99.475 -43.416  0.00  0.00    -0.301 OA
ATOM      9  C   UNL d   1     -56.282 -99.565 -44.493  0.00  0.00     0.123 A 
ATOM     10  C   UNL d   1     -57.694 -99.006 -43.869  0.00  0.00     0.149 A 
ATOM     11  C   UNL d   1     -57.475 -98.819 -44.642  0.00  0.00     0.149 A 
ATOM     12  O   UNL d   1     -56.769 -99.098 -44.954  0.00  0.00    -0.301 OA
ATOM     13  C   UNL d   1     -55.570 -99.851 -44.796  0.00  0.00     0.028 A 
ATOM     14  C   UNL d   1     -55.073-100.321 -44.343  0.00  0.00     0.021 A 
ENDBRANCH   3   5
ENDBRANCH   1   2
BRANCH   1  15
ATOM     15  C   UNL d   1     -54.797-101.933 -41.133  0.00  0.00     0.100 C 
BRANCH  15  16
ATOM     16  N   UNL d   1     -54.835-101.441 -40.496  0.00  0.00    -0.197 N 
ATOM     17  S   UNL d   1     -54.877-100.877 -39.871  0.00  0.00     0.274 S 
ATOM     18  C   UNL d   1     -54.867-101.302 -39.137  0.00  0.00     0.109 A 
ATOM     19  O   UNL d   1     -54.911-100.513 -39.072  0.00  0.00    -0.200 OA
ATOM     20  O   UNL d   1     -54.920-100.051 -40.021  0.00  0.00    -0.200 OA
ATOM     21  C   UNL d   1     -54.818-102.122 -39.312  0.00  0.00     0.069 A 
ATOM     22  C   UNL d   1     -54.895-101.046 -38.339  0.00  0.00     0.013 A 
ATOM     23  C   UNL d   1     -54.797-102.690 -38.692  0.00  0.00     0.005 A 
ATOM     24  C   UNL d   1     -54.799-102.209 -40.147  0.00  0.00     0.275 A 
ATOM     25  C   UNL d   1     -54.826-102.425 -37.901  0.00  0.00     0.000 A 
ATOM     26  C   UNL d   1     -54.874-101.605 -37.726  0.00  0.00     0.001 A 
ATOM     27  O   UNL d   1     -54.760-102.768 -40.578  0.00  0.00    -0.266 OA
ENDBRANCH  15  16
ENDBRANCH   1  15
TORSDOF 4
ENDMDL
