MODEL 1
REMARK VINA RESULT:      -7.8      0.000      0.000
REMARK  3 active torsions:
REMARK  status: ('A' for Active; 'I' for Inactive)
REMARK    1  A    between atoms: C_8  and  C_6 
REMARK    2  A    between atoms: C_9  and  C_8 
REMARK       I    between atoms: N_10  and  C_9 
REMARK    3  A    between atoms: C_14  and  N_10 
ROOT
ATOM      1  C   UNL d   1     -40.549  14.693  20.579  0.00  0.00     0.085 A 
ATOM      2  C   UNL d   1     -39.664  15.306  21.824  0.00  0.00     0.094 A 
ATOM      3  C   UNL d   1     -40.046  14.202  21.006  0.00  0.00     0.021 A 
ATOM      4  C   UNL d   1     -40.612  15.490  20.770  0.00  0.00     0.021 A 
ATOM      5  C   UNL d   1     -40.172  15.801  21.391  0.00  0.00     0.026 A 
ATOM      6  C   UNL d   1     -39.604  14.508  21.629  0.00  0.00     0.026 A 
ATOM      7  O   UNL d   1     -39.230  15.608  22.436  0.00  0.00    -0.328 OA
ATOM      8  C   UNL d   1     -38.790  15.916  23.056  0.00  0.00     0.181 C 
ENDROOT
BRANCH   1   9
ATOM      9  N   UNL d   1     -40.994  14.388  19.953  0.00  0.00    -0.208 NA
ATOM     10  C   UNL d   1     -40.724  14.464  19.175  0.00  0.00     0.281 C 
ATOM     11  O   UNL d   1     -41.174  14.157  18.554  0.00  0.00    -0.265 OA
BRANCH  10  12
ATOM     12  C   UNL d   1     -40.003  14.849  19.022  0.00  0.00     0.086 C 
BRANCH  12  13
ATOM     13  C   UNL d   1     -39.597  14.684  18.325  0.00  0.00     0.144 A 
ATOM     14  N   UNL d   1     -39.272  13.929  18.310  0.00  0.00    -0.240 NA
ATOM     15  C   UNL d   1     -38.836  13.580  17.710  0.00  0.00     0.083 A 
ATOM     16  C   UNL d   1     -38.613  13.890  16.976  0.00  0.00     0.035 A 
ATOM     17  C   UNL d   1     -38.613  12.812  17.916  0.00  0.00     0.019 A 
ATOM     18  C   UNL d   1     -38.838  14.665  16.768  0.00  0.00     0.086 A 
ATOM     19  C   UNL d   1     -38.167  13.442  16.444  0.00  0.00     0.003 A 
ATOM     20  N   UNL d   1     -39.278  15.199  17.216  0.00  0.00    -0.207 NA
ATOM     21  C   UNL d   1     -38.616  14.978  16.036  0.00  0.00     0.019 A 
ATOM     22  C   UNL d   1     -39.601  15.115  17.957  0.00  0.00     0.297 A 
ATOM     23  O   UNL d   1     -40.012  15.769  18.239  0.00  0.00    -0.264 OA
ATOM     24  C   UNL d   1     -38.171  14.523  15.509  0.00  0.00     0.002 A 
ATOM     25  C   UNL d   1     -37.948  13.756  15.715  0.00  0.00     0.000 A 
ATOM     26  C   UNL d   1     -37.942  12.665  16.653  0.00  0.00     0.000 A 
ATOM     27  C   UNL d   1     -38.161  12.351  17.382  0.00  0.00     0.002 A 
ENDBRANCH  12  13
ENDBRANCH  10  12
ENDBRANCH   1   9
TORSDOF 3
ENDMDL
MODEL 2
REMARK VINA RESULT:      -7.2      1.294      4.663
REMARK  3 active torsions:
REMARK  status: ('A' for Active; 'I' for Inactive)
REMARK    1  A    between atoms: C_8  and  C_6 
REMARK    2  A    between atoms: C_9  and  C_8 
REMARK       I    between atoms: N_10  and  C_9 
REMARK    3  A    between atoms: C_14  and  N_10 
ROOT
ATOM      1  C   UNL d   1     -40.226  14.205  18.181  0.00  0.00     0.085 A 
ATOM      2  C   UNL d   1     -39.183  14.571  16.961  0.00  0.00     0.094 A 
ATOM      3  C   UNL d   1     -39.574  13.722  18.039  0.00  0.00     0.021 A 
ATOM      4  C   UNL d   1     -40.360  14.869  17.716  0.00  0.00     0.021 A 
ATOM      5  C   UNL d   1     -39.842  15.057  17.106  0.00  0.00     0.026 A 
ATOM      6  C   UNL d   1     -39.053  13.906  17.429  0.00  0.00     0.026 A 
ATOM      7  O   UNL d   1     -38.671  14.752  16.361  0.00  0.00    -0.328 OA
ATOM      8  C   UNL d   1     -38.153  14.936  15.753  0.00  0.00     0.181 C 
ENDROOT
BRANCH   1   9
ATOM      9  N   UNL d   1     -40.751  14.023  18.792  0.00  0.00    -0.208 NA
ATOM     10  C   UNL d   1     -40.624  14.325  19.552  0.00  0.00     0.281 C 
ATOM     11  O   UNL d   1     -41.152  14.140  20.159  0.00  0.00    -0.265 OA
BRANCH  10  12
ATOM     12  C   UNL d   1     -39.967  14.813  19.700  0.00  0.00     0.086 C 
BRANCH  12  13
ATOM     13  C   UNL d   1     -39.691  14.894  20.472  0.00  0.00     0.144 A 
ATOM     14  N   UNL d   1     -39.333  14.213  20.762  0.00  0.00    -0.240 NA
ATOM     15  C   UNL d   1     -38.999  14.095  21.500  0.00  0.00     0.083 A 
ATOM     16  C   UNL d   1     -38.934  14.621  22.136  0.00  0.00     0.035 A 
ATOM     17  C   UNL d   1     -38.699  13.330  21.569  0.00  0.00     0.019 A 
ATOM     18  C   UNL d   1     -39.237  15.395  22.067  0.00  0.00     0.086 A 
ATOM     19  C   UNL d   1     -38.572  14.390  22.843  0.00  0.00     0.003 A 
ATOM     20  N   UNL d   1     -39.615  15.731  21.416  0.00  0.00    -0.207 NA
ATOM     21  C   UNL d   1     -39.174  15.921  22.700  0.00  0.00     0.019 A 
ATOM     22  C   UNL d   1     -39.787  15.409  20.690  0.00  0.00     0.297 A 
ATOM     23  O   UNL d   1     -40.174  15.909  20.164  0.00  0.00    -0.264 OA
ATOM     24  C   UNL d   1     -38.811  15.684  23.403  0.00  0.00     0.002 A 
ATOM     25  C   UNL d   1     -38.511  14.918  23.472  0.00  0.00     0.000 A 
ATOM     26  C   UNL d   1     -38.269  13.616  22.912  0.00  0.00     0.000 A 
ATOM     27  C   UNL d   1     -38.330  13.088  22.282  0.00  0.00     0.002 A 
ENDBRANCH  12  13
ENDBRANCH  10  12
ENDBRANCH   1   9
TORSDOF 3
ENDMDL
MODEL 3
REMARK VINA RESULT:      -6.5      7.167      9.087
REMARK  3 active torsions:
REMARK  status: ('A' for Active; 'I' for Inactive)
REMARK    1  A    between atoms: C_8  and  C_6 
REMARK    2  A    between atoms: C_9  and  C_8 
REMARK       I    between atoms: N_10  and  C_9 
REMARK    3  A    between atoms: C_14  and  N_10 
ROOT
ATOM      1  C   UNL d   1     -48.199  14.120  22.601  0.00  0.00     0.085 A 
ATOM      2  C   UNL d   1     -49.615  13.586  21.954  0.00  0.00     0.094 A 
ATOM      3  C   UNL d   1     -48.840  13.962  23.091  0.00  0.00     0.021 A 
ATOM      4  C   UNL d   1     -48.261  14.013  21.788  0.00  0.00     0.021 A 
ATOM      5  C   UNL d   1     -48.966  13.746  21.460  0.00  0.00     0.026 A 
ATOM      6  C   UNL d   1     -49.549  13.695  22.768  0.00  0.00     0.026 A 
ATOM      7  O   UNL d   1     -50.311  13.324  21.635  0.00  0.00    -0.328 OA
ATOM      8  C   UNL d   1     -51.015  13.058  21.310  0.00  0.00     0.181 C 
ENDROOT
BRANCH   1   9
ATOM      9  N   UNL d   1     -47.487  14.388  22.923  0.00  0.00    -0.208 NA
ATOM     10  C   UNL d   1     -46.893  13.848  23.124  0.00  0.00     0.281 C 
ATOM     11  O   UNL d   1     -46.183  14.122  23.446  0.00  0.00    -0.265 OA
BRANCH  10  12
ATOM     12  C   UNL d   1     -47.013  13.034  23.001  0.00  0.00     0.086 C 
BRANCH  12  13
ATOM     13  C   UNL d   1     -46.371  12.520  23.049  0.00  0.00     0.144 A 
ATOM     14  N   UNL d   1     -45.721  12.771  22.613  0.00  0.00    -0.240 NA
ATOM     15  C   UNL d   1     -44.994  12.402  22.534  0.00  0.00     0.083 A 
ATOM     16  C   UNL d   1     -44.729  11.691  22.865  0.00  0.00     0.035 A 
ATOM     17  C   UNL d   1     -44.492  12.838  22.046  0.00  0.00     0.019 A 
ATOM     18  C   UNL d   1     -45.235  11.249  23.359  0.00  0.00     0.086 A 
ATOM     19  C   UNL d   1     -43.966  11.411  22.715  0.00  0.00     0.003 A 
ATOM     20  N   UNL d   1     -46.010  11.430  23.577  0.00  0.00    -0.207 NA
ATOM     21  C   UNL d   1     -44.974  10.540  23.691  0.00  0.00     0.019 A 
ATOM     22  C   UNL d   1     -46.472  12.067  23.375  0.00  0.00     0.297 A 
ATOM     23  O   UNL d   1     -47.228  12.070  23.697  0.00  0.00    -0.264 OA
ATOM     24  C   UNL d   1     -44.210  10.266  23.536  0.00  0.00     0.002 A 
ATOM     25  C   UNL d   1     -43.708  10.703  23.047  0.00  0.00     0.000 A 
ATOM     26  C   UNL d   1     -43.459  11.853  22.220  0.00  0.00     0.000 A 
ATOM     27  C   UNL d   1     -43.717  12.561  21.888  0.00  0.00     0.002 A 
ENDBRANCH  12  13
ENDBRANCH  10  12
ENDBRANCH   1   9
TORSDOF 3
ENDMDL
MODEL 4
REMARK VINA RESULT:      -5.5      1.137      1.784
REMARK  3 active torsions:
REMARK  status: ('A' for Active; 'I' for Inactive)
REMARK    1  A    between atoms: C_8  and  C_6 
REMARK    2  A    between atoms: C_9  and  C_8 
REMARK       I    between atoms: N_10  and  C_9 
REMARK    3  A    between atoms: C_14  and  N_10 
ROOT
ATOM      1  C   UNL d   1     -40.550  14.793  20.736  0.00  0.00     0.085 A 
ATOM      2  C   UNL d   1     -41.884  13.901  21.106  0.00  0.00     0.094 A 
ATOM      3  C   UNL d   1     -41.298  15.135  20.694  0.00  0.00     0.021 A 
ATOM      4  C   UNL d   1     -40.465  14.008  20.963  0.00  0.00     0.021 A 
ATOM      5  C   UNL d   1     -41.128  13.558  21.148  0.00  0.00     0.026 A 
ATOM      6  C   UNL d   1     -41.964  14.689  20.878  0.00  0.00     0.026 A 
ATOM      7  O   UNL d   1     -42.538  13.462  21.288  0.00  0.00    -0.328 OA
ATOM      8  C   UNL d   1     -43.201  13.016  21.472  0.00  0.00     0.181 C 
ENDROOT
BRANCH   1   9
ATOM      9  N   UNL d   1     -39.880  15.238  20.551  0.00  0.00    -0.208 NA
ATOM     10  C   UNL d   1     -39.648  15.333  19.763  0.00  0.00     0.281 C 
ATOM     11  O   UNL d   1     -38.977  15.779  19.584  0.00  0.00    -0.265 OA
BRANCH  10  12
ATOM     12  C   UNL d   1     -40.091  14.978  19.155  0.00  0.00     0.086 C 
BRANCH  12  13
ATOM     13  C   UNL d   1     -39.718  14.772  18.450  0.00  0.00     0.144 A 
ATOM     14  N   UNL d   1     -39.302  14.065  18.499  0.00  0.00    -0.240 NA
ATOM     15  C   UNL d   1     -38.868  13.693  17.911  0.00  0.00     0.083 A 
ATOM     16  C   UNL d   1     -38.738  13.929  17.128  0.00  0.00     0.035 A 
ATOM     17  C   UNL d   1     -38.536  12.991  18.187  0.00  0.00     0.019 A 
ATOM     18  C   UNL d   1     -39.074  14.639  16.848  0.00  0.00     0.086 A 
ATOM     19  C   UNL d   1     -38.278  13.471  16.617  0.00  0.00     0.003 A 
ATOM     20  N   UNL d   1     -39.546  15.172  17.264  0.00  0.00    -0.207 NA
ATOM     21  C   UNL d   1     -38.946  14.878  16.067  0.00  0.00     0.019 A 
ATOM     22  C   UNL d   1     -39.802  15.148  18.035  0.00  0.00     0.297 A 
ATOM     23  O   UNL d   1     -40.272  15.780  18.270  0.00  0.00    -0.264 OA
ATOM     24  C   UNL d   1     -38.485  14.414  15.563  0.00  0.00     0.002 A 
ATOM     25  C   UNL d   1     -38.152  13.711  15.839  0.00  0.00     0.000 A 
ATOM     26  C   UNL d   1     -37.942  12.760  16.898  0.00  0.00     0.000 A 
ATOM     27  C   UNL d   1     -38.068  12.520  17.676  0.00  0.00     0.002 A 
ENDBRANCH  12  13
ENDBRANCH  10  12
ENDBRANCH   1   9
TORSDOF 3
ENDMDL
MODEL 5
REMARK VINA RESULT:      -5.3      8.102     10.055
REMARK  3 active torsions:
REMARK  status: ('A' for Active; 'I' for Inactive)
REMARK    1  A    between atoms: C_8  and  C_6 
REMARK    2  A    between atoms: C_9  and  C_8 
REMARK       I    between atoms: N_10  and  C_9 
REMARK    3  A    between atoms: C_14  and  N_10 
ROOT
ATOM      1  C   UNL d   1     -45.653  12.788  23.131  0.00  0.00     0.085 A 
ATOM      2  C   UNL d   1     -44.873  11.339  23.093  0.00  0.00     0.094 A 
ATOM      3  C   UNL d   1     -45.094  12.637  22.546  0.00  0.00     0.021 A 
ATOM      4  C   UNL d   1     -45.824  12.218  23.698  0.00  0.00     0.021 A 
ATOM      5  C   UNL d   1     -45.437  11.493  23.684  0.00  0.00     0.026 A 
ATOM      6  C   UNL d   1     -44.704  11.912  22.527  0.00  0.00     0.026 A 
ATOM      7  O   UNL d   1     -44.491  10.626  23.076  0.00  0.00    -0.328 OA
ATOM      8  C   UNL d   1     -44.104   9.904  23.059  0.00  0.00     0.181 C 
ENDROOT
BRANCH   1   9
ATOM      9  N   UNL d   1     -46.045  13.515  23.152  0.00  0.00    -0.208 NA
ATOM     10  C   UNL d   1     -46.744  13.622  22.722  0.00  0.00     0.281 C 
ATOM     11  O   UNL d   1     -47.132  14.351  22.747  0.00  0.00    -0.265 OA
BRANCH  10  12
ATOM     12  C   UNL d   1     -47.051  12.997  22.268  0.00  0.00     0.086 C 
BRANCH  12  13
ATOM     13  C   UNL d   1     -47.864  12.950  22.143  0.00  0.00     0.144 A 
ATOM     14  N   UNL d   1     -48.265  12.574  22.754  0.00  0.00    -0.240 NA
ATOM     15  C   UNL d   1     -49.070  12.431  22.816  0.00  0.00     0.083 A 
ATOM     16  C   UNL d   1     -49.678  12.624  22.289  0.00  0.00     0.035 A 
ATOM     17  C   UNL d   1     -49.246  12.037  23.519  0.00  0.00     0.019 A 
ATOM     18  C   UNL d   1     -49.500  13.022  21.578  0.00  0.00     0.086 A 
ATOM     19  C   UNL d   1     -50.463  12.428  22.457  0.00  0.00     0.003 A 
ATOM     20  N   UNL d   1     -48.760  13.265  21.308  0.00  0.00    -0.207 NA
ATOM     21  C   UNL d   1     -50.105  13.216  21.050  0.00  0.00     0.019 A 
ATOM     22  C   UNL d   1     -48.029  13.185  21.653  0.00  0.00     0.297 A 
ATOM     23  O   UNL d   1     -47.400  13.496  21.224  0.00  0.00    -0.264 OA
ATOM     24  C   UNL d   1     -50.888  13.016  21.225  0.00  0.00     0.002 A 
ATOM     25  C   UNL d   1     -51.064  12.623  21.928  0.00  0.00     0.000 A 
ATOM     26  C   UNL d   1     -50.641  12.030  23.169  0.00  0.00     0.000 A 
ATOM     27  C   UNL d   1     -50.040  11.835  23.697  0.00  0.00     0.002 A 
ENDBRANCH  12  13
ENDBRANCH  10  12
ENDBRANCH   1   9
TORSDOF 3
ENDMDL
