MODEL 1
REMARK VINA RESULT:       4.4      0.000      0.000
REMARK  8 active torsions:
REMARK  status: ('A' for Active; 'I' for Inactive)
REMARK    1  A    between atoms: C_7  and  C_3 
REMARK    2  A    between atoms: C_9  and  C_4 
REMARK    3  A    between atoms: O_13  and  C_7 
REMARK    4  A    between atoms: O_15  and  C_12 
REMARK    5  A    between atoms: C_26  and  O_13 
REMARK    6  A    between atoms: O_25  and  C_14 
REMARK    7  A    between atoms: C_16  and  O_15 
REMARK    8  A    between atoms: C_28  and  O_25 
ROOT
ATOM      1  N   UNL d   1      29.976  17.874 -24.275  0.00  0.00    -0.254 N 
ATOM      2  C   UNL d   1      29.355  17.332 -24.267  0.00  0.00     0.182 A 
ATOM      3  C   UNL d   1      30.915  16.803 -24.292  0.00  0.00     0.097 A 
ATOM      4  C   UNL d   1      30.757  17.613 -24.288  0.00  0.00     0.075 A 
ATOM      5  N   UNL d   1      29.517  16.524 -24.271  0.00  0.00    -0.222 NA
ATOM      6  C   UNL d   1      30.297  16.257 -24.283  0.00  0.00     0.090 A 
ATOM      7  C   UNL d   1      29.820  18.686 -24.272  0.00  0.00     0.267 A 
ATOM      8  S   UNL d   1      28.583  17.594 -24.255  0.00  0.00    -0.049 SA
ATOM      9  C   UNL d   1      29.033  18.943 -24.259  0.00  0.00     0.068 A 
ATOM     10  O   UNL d   1      30.439  19.232 -24.280  0.00  0.00    -0.267 OA
ATOM     11  C   UNL d   1      28.415  18.397 -24.251  0.00  0.00     0.043 A 
ATOM     12  C   UNL d   1      30.457  15.453 -24.287  0.00  0.00     0.021 C 
ENDROOT
BRANCH   4  13
ATOM     13  C   UNL d   1      31.375  18.158 -24.296  0.00  0.00     0.019 A 
ATOM     14  C   UNL d   1      31.755  18.356 -23.595  0.00  0.00     0.028 A 
ATOM     15  C   UNL d   1      32.373  18.902 -23.603  0.00  0.00     0.123 A 
ATOM     16  C   UNL d   1      32.612  19.251 -24.321  0.00  0.00     0.126 A 
ATOM     17  C   UNL d   1      32.225  19.048 -25.026  0.00  0.00     0.027 A 
ATOM     18  C   UNL d   1      31.607  18.501 -25.013  0.00  0.00     0.004 A 
BRANCH  15  19
ATOM     19  O   UNL d   1      32.756  19.103 -22.903  0.00  0.00    -0.303 OA
BRANCH  19  20
ATOM     20  C   UNL d   1      32.378  18.993 -22.178  0.00  0.00     0.123 C 
ATOM     21  C   UNL d   1      32.781  19.143 -21.476  0.00  0.00     0.029 C 
ENDBRANCH  19  20
ENDBRANCH  15  19
BRANCH  16  22
ATOM     22  O   UNL d   1      33.230  19.797 -24.333  0.00  0.00    -0.271 OA
BRANCH  22  23
ATOM     23  C   UNL d   1      33.067  20.601 -24.385  0.00  0.00     0.300 C 
ATOM     24  O   UNL d   1      32.787  20.917 -25.094  0.00  0.00    -0.259 OA
ATOM     25  C   UNL d   1      33.184  21.089 -23.734  0.00  0.00     0.074 C 
ENDBRANCH  22  23
ENDBRANCH  16  22
ENDBRANCH   4  13
BRANCH   3  26
ATOM     26  C   UNL d   1      31.697  16.541 -24.304  0.00  0.00     0.303 C 
ATOM     27  O   UNL d   1      32.235  16.850 -24.848  0.00  0.00    -0.259 OA
BRANCH  26  28
ATOM     28  O   UNL d   1      31.939  15.964 -23.764  0.00  0.00    -0.273 OA
BRANCH  28  29
ATOM     29  C   UNL d   1      32.732  15.723 -23.746  0.00  0.00     0.103 C 
ATOM     30  C   UNL d   1      33.159  15.638 -24.445  0.00  0.00     0.027 C 
ATOM     31  C   UNL d   1      33.096  15.566 -23.022  0.00  0.00     0.027 C 
ENDBRANCH  28  29
ENDBRANCH  26  28
ENDBRANCH   3  26
TORSDOF 8
ENDMDL
