MODEL 1
REMARK VINA RESULT:       0.1      0.000      0.000
REMARK  1 active torsions:
REMARK  status: ('A' for Active; 'I' for Inactive)
REMARK    1  A    between atoms: C_6  and  C_2 
ROOT
ATOM      1  S   UNL d   1      46.416 -18.744  42.073  0.00  0.00    -0.024 SA
ATOM      2  C   UNL d   1      46.506 -19.445  42.487  0.00  0.00     0.135 A 
ATOM      3  N   UNL d   1      46.646 -20.053  41.949  0.00  0.00    -0.139 NA
ATOM      4  C   UNL d   1      46.501 -18.920  41.272  0.00  0.00     0.236 A 
ATOM      5  N   UNL d   1      46.641 -19.719  41.192  0.00  0.00    -0.119 NA
ATOM      6  N   UNL d   1      46.452 -18.374  40.656  0.00  0.00    -0.118 N 
ENDROOT
BRANCH   2   7
ATOM      7  C   UNL d   1      46.464 -19.530  43.306  0.00  0.00     0.029 A 
ATOM      8  C   UNL d   1      46.249 -20.245  43.643  0.00  0.00     0.023 A 
ATOM      9  C   UNL d   1      46.206 -20.330  44.466  0.00  0.00     0.099 A 
ATOM     10  N   UNL d   1      46.379 -19.701  44.955  0.00  0.00    -0.242 NA
ATOM     11  C   UNL d   1      46.596 -18.979  44.626  0.00  0.00     0.099 A 
ATOM     12  C   UNL d   1      46.639 -18.894  43.804  0.00  0.00     0.023 A 
ENDBRANCH   2   7
TORSDOF 1
ENDMDL
MODEL 2
REMARK VINA RESULT:       1.1      7.650      7.882
REMARK  1 active torsions:
REMARK  status: ('A' for Active; 'I' for Inactive)
REMARK    1  A    between atoms: C_6  and  C_2 
ROOT
ATOM      1  S   UNL d   1      43.766 -15.231  36.574  0.00  0.00    -0.024 SA
ATOM      2  C   UNL d   1      44.508 -15.577  36.600  0.00  0.00     0.135 A 
ATOM      3  N   UNL d   1      44.429 -16.383  36.450  0.00  0.00    -0.139 NA
ATOM      4  C   UNL d   1      43.223 -15.828  36.407  0.00  0.00     0.236 A 
ATOM      5  N   UNL d   1      43.624 -16.534  36.330  0.00  0.00    -0.119 NA
ATOM      6  N   UNL d   1      42.408 -15.725  36.331  0.00  0.00    -0.118 N 
ENDROOT
BRANCH   2   7
ATOM      7  C   UNL d   1      45.218 -15.186  36.751  0.00  0.00     0.029 A 
ATOM      8  C   UNL d   1      45.241 -14.535  37.247  0.00  0.00     0.023 A 
ATOM      9  C   UNL d   1      45.953 -14.141  37.399  0.00  0.00     0.099 A 
ATOM     10  N   UNL d   1      46.646 -14.397  37.055  0.00  0.00    -0.242 NA
ATOM     11  C   UNL d   1      46.634 -15.050  36.554  0.00  0.00     0.099 A 
ATOM     12  C   UNL d   1      45.922 -15.443  36.403  0.00  0.00     0.023 A 
ENDBRANCH   2   7
TORSDOF 1
ENDMDL
MODEL 3
REMARK VINA RESULT:       2.7      5.479      6.011
REMARK  1 active torsions:
REMARK  status: ('A' for Active; 'I' for Inactive)
REMARK    1  A    between atoms: C_6  and  C_2 
ROOT
ATOM      1  S   UNL d   1      45.115 -13.285  43.129  0.00  0.00    -0.024 SA
ATOM      2  C   UNL d   1      45.450 -13.421  43.865  0.00  0.00     0.135 A 
ATOM      3  N   UNL d   1      45.688 -12.700  44.184  0.00  0.00    -0.139 NA
ATOM      4  C   UNL d   1      45.147 -12.472  42.993  0.00  0.00     0.236 A 
ATOM      5  N   UNL d   1      45.496 -12.111  43.635  0.00  0.00    -0.119 NA
ATOM      6  N   UNL d   1      44.869 -12.091  42.316  0.00  0.00    -0.118 N 
ENDROOT
BRANCH   2   7
ATOM      7  C   UNL d   1      45.535 -14.156  44.226  0.00  0.00     0.029 A 
ATOM      8  C   UNL d   1      46.266 -14.524  44.264  0.00  0.00     0.023 A 
ATOM      9  C   UNL d   1      46.352 -15.263  44.627  0.00  0.00     0.099 A 
ATOM     10  N   UNL d   1      45.707 -15.638  44.955  0.00  0.00    -0.242 NA
ATOM     11  C   UNL d   1      44.968 -15.278  44.922  0.00  0.00     0.099 A 
ATOM     12  C   UNL d   1      44.882 -14.539  44.559  0.00  0.00     0.023 A 
ENDBRANCH   2   7
TORSDOF 1
ENDMDL
MODEL 4
REMARK VINA RESULT:       2.9      7.642      7.854
REMARK  1 active torsions:
REMARK  status: ('A' for Active; 'I' for Inactive)
REMARK    1  A    between atoms: C_6  and  C_2 
ROOT
ATOM      1  S   UNL d   1      45.350 -14.612  37.249  0.00  0.00    -0.024 SA
ATOM      2  C   UNL d   1      45.106 -15.215  36.751  0.00  0.00     0.135 A 
ATOM      3  N   UNL d   1      45.761 -15.501  36.342  0.00  0.00    -0.139 NA
ATOM      4  C   UNL d   1      46.164 -14.526  37.147  0.00  0.00     0.236 A 
ATOM      5  N   UNL d   1      46.419 -15.067  36.594  0.00  0.00    -0.119 NA
ATOM      6  N   UNL d   1      46.639 -13.979  37.543  0.00  0.00    -0.118 N 
ENDROOT
BRANCH   2   7
ATOM      7  C   UNL d   1      44.333 -15.490  36.670  0.00  0.00     0.029 A 
ATOM      8  C   UNL d   1      44.183 -16.253  36.414  0.00  0.00     0.023 A 
ATOM      9  C   UNL d   1      43.407 -16.529  36.333  0.00  0.00     0.099 A 
ATOM     10  N   UNL d   1      42.776 -16.043  36.508  0.00  0.00    -0.242 NA
ATOM     11  C   UNL d   1      42.916 -15.275  36.767  0.00  0.00     0.099 A 
ATOM     12  C   UNL d   1      43.692 -14.999  36.847  0.00  0.00     0.023 A 
ENDBRANCH   2   7
TORSDOF 1
ENDMDL
