MODEL 1
REMARK VINA RESULT:      -5.3      0.000      0.000
REMARK  6 active torsions:
REMARK  status: ('A' for Active; 'I' for Inactive)
REMARK    1  A    between atoms: N_4  and  S_1 
REMARK    2  A    between atoms: C_12  and  S_1 
REMARK    3  A    between atoms: N_3  and  C_2 
REMARK    4  A    between atoms: C_7  and  N_4 
REMARK    5  A    between atoms: C_6  and  C_8 
REMARK       I    between atoms: C_8  and  N_13 
REMARK    6  A    between atoms: N_13  and  C_22 
ROOT
ATOM      1  C   UNL d   1     -47.763  13.305  23.198  0.00  0.00     0.106 A 
ATOM      2  C   UNL d   1     -47.325  13.937  22.917  0.00  0.00     0.015 A 
ATOM      3  C   UNL d   1     -47.414  12.566  23.317  0.00  0.00     0.015 A 
ATOM      4  C   UNL d   1     -46.168  13.097  22.866  0.00  0.00     0.085 A 
ATOM      5  C   UNL d   1     -46.612  12.463  23.150  0.00  0.00     0.020 A 
ATOM      6  C   UNL d   1     -46.524  13.834  22.750  0.00  0.00     0.020 A 
ENDROOT
BRANCH   1   7
ATOM      7  S   UNL d   1     -48.565  13.409  23.366  0.00  0.00     0.300 S 
ATOM      8  O   UNL d   1     -48.504  14.215  23.202  0.00  0.00    -0.198 OA
ATOM      9  O   UNL d   1     -48.640  12.600  23.533  0.00  0.00    -0.198 OA
BRANCH   7  10
ATOM     10  N   UNL d   1     -49.373  13.508  23.535  0.00  0.00     0.034 NA
BRANCH  10  11
ATOM     11  C   UNL d   1     -49.935  13.428  22.937  0.00  0.00     0.760 A 
ATOM     12  N   UNL d   1     -50.214  14.106  22.529  0.00  0.00    -0.059 NA
ATOM     13  C   UNL d   1     -50.776  14.027  21.930  0.00  0.00     0.102 A 
ATOM     14  C   UNL d   1     -51.051  14.696  21.529  0.00  0.00     0.021 C 
ATOM     15  C   UNL d   1     -51.063  13.279  21.734  0.00  0.00     0.041 A 
ATOM     16  C   UNL d   1     -50.784  12.601  22.141  0.00  0.00     0.120 A 
ATOM     17  N   UNL d   1     -50.225  12.687  22.736  0.00  0.00    -0.057 NA
ENDBRANCH  10  11
ENDBRANCH   7  10
ENDBRANCH   1   7
BRANCH   4  18
ATOM     18  N   UNL d   1     -45.356  12.990  22.698  0.00  0.00    -0.208 NA
ATOM     19  C   UNL d   1     -45.106  12.849  21.922  0.00  0.00     0.285 C 
ATOM     20  O   UNL d   1     -45.667  12.815  21.315  0.00  0.00    -0.265 OA
BRANCH  19  21
ATOM     21  C   UNL d   1     -44.304  12.743  21.759  0.00  0.00     0.089 A 
ATOM     22  S   UNL d   1     -43.825  13.249  21.304  0.00  0.00    -0.059 SA
ATOM     23  C   UNL d   1     -43.066  12.917  21.296  0.00  0.00     0.156 A 
ATOM     24  C   UNL d   1     -43.085  12.218  21.742  0.00  0.00     0.031 A 
ATOM     25  C   UNL d   1     -43.843  12.123  22.018  0.00  0.00     0.014 A 
BRANCH  23  26
ATOM     26  N   UNL d   1     -42.404  13.244  20.901  0.00  0.00    -0.107 N 
ATOM     27  O   UNL d   1     -41.979  13.870  21.237  0.00  0.00    -0.531 OA
ATOM     28  O   UNL d   1     -42.179  12.933  20.167  0.00  0.00    -0.531 OA
ENDBRANCH  23  26
ENDBRANCH  19  21
ENDBRANCH   4  18
TORSDOF 6
ENDMDL
MODEL 2
REMARK VINA RESULT:      -3.8      1.819      2.141
REMARK  6 active torsions:
REMARK  status: ('A' for Active; 'I' for Inactive)
REMARK    1  A    between atoms: N_4  and  S_1 
REMARK    2  A    between atoms: C_12  and  S_1 
REMARK    3  A    between atoms: N_3  and  C_2 
REMARK    4  A    between atoms: C_7  and  N_4 
REMARK    5  A    between atoms: C_6  and  C_8 
REMARK       I    between atoms: C_8  and  N_13 
REMARK    6  A    between atoms: N_13  and  C_22 
ROOT
ATOM      1  C   UNL d   1     -48.703  12.435  23.501  0.00  0.00     0.106 A 
ATOM      2  C   UNL d   1     -48.514  11.653  23.650  0.00  0.00     0.015 A 
ATOM      3  C   UNL d   1     -48.111  13.002  23.395  0.00  0.00     0.015 A 
ATOM      4  C   UNL d   1     -47.124  11.988  23.591  0.00  0.00     0.085 A 
ATOM      5  C   UNL d   1     -47.318  12.776  23.441  0.00  0.00     0.020 A 
ATOM      6  C   UNL d   1     -47.722  11.427  23.696  0.00  0.00     0.020 A 
ENDROOT
BRANCH   1   7
ATOM      7  S   UNL d   1     -49.495  12.661  23.456  0.00  0.00     0.300 S 
ATOM      8  O   UNL d   1     -49.278  13.456  23.456  0.00  0.00    -0.198 OA
ATOM      9  O   UNL d   1     -49.728  11.865  23.454  0.00  0.00    -0.198 OA
BRANCH   7  10
ATOM     10  N   UNL d   1     -50.295  12.883  23.410  0.00  0.00     0.034 NA
BRANCH  10  11
ATOM     11  C   UNL d   1     -50.540  13.437  22.849  0.00  0.00     0.760 A 
ATOM     12  N   UNL d   1     -50.530  14.255  23.034  0.00  0.00    -0.059 NA
ATOM     13  C   UNL d   1     -50.775  14.809  22.474  0.00  0.00     0.102 A 
ATOM     14  C   UNL d   1     -50.764  15.616  22.656  0.00  0.00     0.021 C 
ATOM     15  C   UNL d   1     -51.030  14.556  21.731  0.00  0.00     0.041 A 
ATOM     16  C   UNL d   1     -51.041  13.738  21.546  0.00  0.00     0.120 A 
ATOM     17  N   UNL d   1     -50.796  13.192  22.109  0.00  0.00    -0.057 NA
ENDBRANCH  10  11
ENDBRANCH   7  10
ENDBRANCH   1   7
BRANCH   4  18
ATOM     18  N   UNL d   1     -46.320  11.762  23.637  0.00  0.00    -0.208 NA
ATOM     19  C   UNL d   1     -46.075  11.031  23.338  0.00  0.00     0.285 C 
ATOM     20  O   UNL d   1     -46.633  10.526  22.993  0.00  0.00    -0.265 OA
BRANCH  19  21
ATOM     21  C   UNL d   1     -45.281  10.811  23.384  0.00  0.00     0.089 A 
ATOM     22  S   UNL d   1     -44.631  11.266  23.134  0.00  0.00    -0.059 SA
ATOM     23  C   UNL d   1     -43.952  10.819  23.292  0.00  0.00     0.156 A 
ATOM     24  C   UNL d   1     -44.188  10.101  23.633  0.00  0.00     0.031 A 
ATOM     25  C   UNL d   1     -44.999  10.109  23.684  0.00  0.00     0.014 A 
BRANCH  23  26
ATOM     26  N   UNL d   1     -43.168  11.064  23.127  0.00  0.00    -0.107 N 
ATOM     27  O   UNL d   1     -42.572  10.983  23.696  0.00  0.00    -0.531 OA
ATOM     28  O   UNL d   1     -42.995  11.391  22.386  0.00  0.00    -0.531 OA
ENDBRANCH  23  26
ENDBRANCH  19  21
ENDBRANCH   4  18
TORSDOF 6
ENDMDL
