MODEL 1
REMARK VINA RESULT:      37.1      0.000      0.000
REMARK  3 active torsions:
REMARK  status: ('A' for Active; 'I' for Inactive)
REMARK    1  A    between atoms: N_3  and  S_1 
REMARK    2  A    between atoms: C_7  and  S_1 
REMARK    3  A    between atoms: C_10  and  N_3 
ROOT
ATOM      1  S   UNL d   1      14.148  13.668  -2.496  0.00  0.00     0.327 S 
ATOM      2  O   UNL d   1      13.911  14.102  -3.151  0.00  0.00    -0.186 OA
ATOM      3  O   UNL d   1      14.044  12.853  -2.483  0.00  0.00    -0.186 OA
ENDROOT
BRANCH   1   4
ATOM      4  N   UNL d   1      13.806  13.295  -3.142  0.00  0.00    -0.314 NA
BRANCH   4   5
ATOM      5  C   UNL d   1      13.458  12.913  -3.802  0.00  0.00     0.184 A 
ATOM      6  C   UNL d   1      13.114  12.162  -3.703  0.00  0.00     0.226 A 
ATOM      7  O   UNL d   1      13.115  11.799  -2.970  0.00  0.00    -0.284 OA
ATOM      8  C   UNL d   1      12.771  11.788  -4.356  0.00  0.00     0.045 A 
ATOM      9  C   UNL d   1      12.772  12.159  -5.095  0.00  0.00     0.004 A 
ATOM     10  C   UNL d   1      13.115  12.902  -5.181  0.00  0.00     0.003 A 
ATOM     11  C   UNL d   1      13.457  13.277  -4.532  0.00  0.00     0.036 A 
ENDBRANCH   4   5
ENDBRANCH   1   4
BRANCH   1  12
ATOM     12  C   UNL d   1      14.489  14.050  -1.854  0.00  0.00     0.118 A 
ATOM     13  C   UNL d   1      14.650  14.853  -1.895  0.00  0.00     0.035 A 
ATOM     14  C   UNL d   1      14.994  15.242  -1.250  0.00  0.00     0.105 A 
ATOM     15  N   UNL d   1      15.216  16.027  -1.128  0.00  0.00    -0.189 NA
ATOM     16  C   UNL d   1      15.175  14.816  -0.560  0.00  0.00     0.104 A 
ATOM     17  C   UNL d   1      15.536  16.091  -0.362  0.00  0.00     0.369 A 
ATOM     18  O   UNL d   1      15.827  16.777  -0.014  0.00  0.00    -0.242 OA
ATOM     19  N   UNL d   1      15.508  15.340  -0.017  0.00  0.00    -0.189 NA
ATOM     20  C   UNL d   1      15.011  14.005  -0.523  0.00  0.00     0.022 A 
ATOM     21  C   UNL d   1      14.668  13.627  -1.171  0.00  0.00     0.016 A 
ENDBRANCH   1  12
TORSDOF 3
ENDMDL
MODEL 2
REMARK VINA RESULT:      38.7      2.158      4.047
REMARK  3 active torsions:
REMARK  status: ('A' for Active; 'I' for Inactive)
REMARK    1  A    between atoms: N_3  and  S_1 
REMARK    2  A    between atoms: C_7  and  S_1 
REMARK    3  A    between atoms: C_10  and  N_3 
ROOT
ATOM      1  S   UNL d   1      13.842  12.998  -2.859  0.00  0.00     0.327 S 
ATOM      2  O   UNL d   1      14.389  13.421  -2.415  0.00  0.00    -0.186 OA
ATOM      3  O   UNL d   1      13.578  12.266  -2.597  0.00  0.00    -0.186 OA
ENDROOT
BRANCH   1   4
ATOM      4  N   UNL d   1      14.130  12.695  -2.152  0.00  0.00    -0.314 NA
BRANCH   4   5
ATOM      5  C   UNL d   1      14.424  12.386  -1.430  0.00  0.00     0.184 A 
ATOM      6  C   UNL d   1      15.244  12.309  -1.325  0.00  0.00     0.226 A 
ATOM      7  O   UNL d   1      15.762  12.531  -1.919  0.00  0.00    -0.284 OA
ATOM      8  C   UNL d   1      15.532  12.003  -0.611  0.00  0.00     0.045 A 
ATOM      9  C   UNL d   1      15.004  11.780  -0.015  0.00  0.00     0.004 A 
ATOM     10  C   UNL d   1      14.194  11.861  -0.130  0.00  0.00     0.003 A 
ATOM     11  C   UNL d   1      13.907  12.165  -0.840  0.00  0.00     0.036 A 
ENDBRANCH   4   5
ENDBRANCH   1   4
BRANCH   1  12
ATOM     12  C   UNL d   1      13.560  13.309  -3.564  0.00  0.00     0.118 A 
ATOM     13  C   UNL d   1      13.670  14.104  -3.733  0.00  0.00     0.035 A 
ATOM     14  C   UNL d   1      13.387  14.422  -4.443  0.00  0.00     0.105 A 
ATOM     15  N   UNL d   1      13.413  15.183  -4.761  0.00  0.00    -0.189 NA
ATOM     16  C   UNL d   1      12.990  13.933  -4.985  0.00  0.00     0.104 A 
ATOM     17  C   UNL d   1      13.032  15.168  -5.501  0.00  0.00     0.369 A 
ATOM     18  O   UNL d   1      12.932  15.809  -6.008  0.00  0.00    -0.242 OA
ATOM     19  N   UNL d   1      12.774  14.394  -5.633  0.00  0.00    -0.189 NA
ATOM     20  C   UNL d   1      12.881  13.131  -4.810  0.00  0.00     0.022 A 
ATOM     21  C   UNL d   1      13.167  12.824  -4.100  0.00  0.00     0.016 A 
ENDBRANCH   1  12
TORSDOF 3
ENDMDL
