MODEL 1
REMARK VINA RESULT:      -3.5      0.000      0.000
REMARK  3 active torsions:
REMARK  status: ('A' for Active; 'I' for Inactive)
REMARK    1  A    between atoms: C_7  and  C_8 
REMARK       I    between atoms: N_10  and  C_7 
REMARK    2  A    between atoms: C_19  and  N_10 
REMARK    3  A    between atoms: C_11  and  C_19 
ROOT
ATOM      1  C   UNL d   1      32.867  21.648 -21.679  0.00  0.00     0.039 A 
ATOM      2  C   UNL d   1      32.710  22.453 -21.577  0.00  0.00     0.196 A 
ATOM      3  C   UNL d   1      33.055  21.330 -20.941  0.00  0.00     0.003 A 
ATOM      4  C   UNL d   1      32.801  22.630 -20.773  0.00  0.00     0.039 A 
ATOM      5  C   UNL d   1      33.013  21.936 -20.384  0.00  0.00     0.003 A 
ATOM      6  C   UNL d   1      32.865  21.167 -22.340  0.00  0.00     0.008 A 
ATOM      7  C   UNL d   1      33.047  20.372 -22.275  0.00  0.00     0.058 A 
ATOM      8  C   UNL d   1      33.241  20.525 -20.865  0.00  0.00     0.000 A 
ATOM      9  O   UNL d   1      32.499  22.988 -22.168  0.00  0.00    -0.287 OA
ATOM     10  C   UNL d   1      33.236  20.045 -21.540  0.00  0.00     0.005 A 
ATOM     11  C   UNL d   1      32.717  23.330 -20.353  0.00  0.00     0.003 A 
ATOM     12  C   UNL d   1      33.143  21.943 -19.570  0.00  0.00     0.000 A 
ATOM     13  C   UNL d   1      32.845  23.340 -19.542  0.00  0.00     0.000 A 
ATOM     14  C   UNL d   1      33.059  22.647 -19.146  0.00  0.00     0.000 A 
ENDROOT
BRANCH   7  15
ATOM     15  C   UNL d   1      33.044  19.888 -22.945  0.00  0.00     0.279 C 
ATOM     16  N   UNL d   1      32.845  19.095 -22.875  0.00  0.00    -0.204 NA
ATOM     17  O   UNL d   1      33.241  20.201 -23.680  0.00  0.00    -0.265 OA
BRANCH  16  18
ATOM     18  C   UNL d   1      32.840  18.603 -23.542  0.00  0.00     0.127 C 
BRANCH  18  19
ATOM     19  C   UNL d   1      32.572  17.831 -23.484  0.00  0.00     0.119 A 
ATOM     20  O   UNL d   1      32.962  17.214 -23.104  0.00  0.00    -0.304 OA
ATOM     21  C   UNL d   1      32.500  16.534 -23.177  0.00  0.00     0.123 A 
ATOM     22  C   UNL d   1      31.821  16.737 -23.606  0.00  0.00     0.029 A 
ATOM     23  C   UNL d   1      31.866  17.540 -23.796  0.00  0.00     0.028 A 
ENDBRANCH  18  19
ENDBRANCH  16  18
ENDBRANCH   7  15
TORSDOF 3
ENDMDL
MODEL 2
REMARK VINA RESULT:      -3.3      1.096      5.177
REMARK  3 active torsions:
REMARK  status: ('A' for Active; 'I' for Inactive)
REMARK    1  A    between atoms: C_7  and  C_8 
REMARK       I    between atoms: N_10  and  C_7 
REMARK    2  A    between atoms: C_19  and  N_10 
REMARK    3  A    between atoms: C_11  and  C_19 
ROOT
ATOM      1  C   UNL d   1      32.447  18.436 -23.777  0.00  0.00     0.039 A 
ATOM      2  C   UNL d   1      32.097  18.021 -24.399  0.00  0.00     0.196 A 
ATOM      3  C   UNL d   1      32.745  17.886 -23.239  0.00  0.00     0.003 A 
ATOM      4  C   UNL d   1      32.180  17.212 -24.244  0.00  0.00     0.039 A 
ATOM      5  C   UNL d   1      32.580  17.132 -23.529  0.00  0.00     0.003 A 
ATOM      6  C   UNL d   1      32.533  19.236 -23.628  0.00  0.00     0.008 A 
ATOM      7  C   UNL d   1      32.913  19.494 -22.951  0.00  0.00     0.058 A 
ATOM      8  C   UNL d   1      33.132  18.138 -22.550  0.00  0.00     0.000 A 
ATOM      9  O   UNL d   1      31.728  18.350 -25.060  0.00  0.00    -0.287 OA
ATOM     10  C   UNL d   1      33.215  18.949 -22.408  0.00  0.00     0.005 A 
ATOM     11  C   UNL d   1      31.943  16.547 -24.662  0.00  0.00     0.003 A 
ATOM     12  C   UNL d   1      32.744  16.381 -23.230  0.00  0.00     0.000 A 
ATOM     13  C   UNL d   1      32.105  15.797 -24.366  0.00  0.00     0.000 A 
ATOM     14  C   UNL d   1      32.506  15.711 -23.650  0.00  0.00     0.000 A 
ENDROOT
BRANCH   7  15
ATOM     15  C   UNL d   1      32.999  20.302 -22.804  0.00  0.00     0.279 C 
ATOM     16  N   UNL d   1      32.844  20.601 -22.055  0.00  0.00    -0.204 NA
ATOM     17  O   UNL d   1      33.240  20.807 -23.408  0.00  0.00    -0.265 OA
BRANCH  16  18
ATOM     18  C   UNL d   1      32.928  21.410 -21.900  0.00  0.00     0.127 C 
BRANCH  18  19
ATOM     19  C   UNL d   1      32.745  21.710 -21.160  0.00  0.00     0.119 A 
ATOM     20  O   UNL d   1      33.172  21.580 -20.470  0.00  0.00    -0.304 OA
ATOM     21  C   UNL d   1      32.798  21.982 -19.854  0.00  0.00     0.123 A 
ATOM     22  C   UNL d   1      32.134  22.362 -20.172  0.00  0.00     0.029 A 
ATOM     23  C   UNL d   1      32.102  22.194 -20.980  0.00  0.00     0.028 A 
ENDBRANCH  18  19
ENDBRANCH  16  18
ENDBRANCH   7  15
TORSDOF 3
ENDMDL
MODEL 3
REMARK VINA RESULT:      -3.1      2.218      6.206
REMARK  3 active torsions:
REMARK  status: ('A' for Active; 'I' for Inactive)
REMARK    1  A    between atoms: C_7  and  C_8 
REMARK       I    between atoms: N_10  and  C_7 
REMARK    2  A    between atoms: C_19  and  N_10 
REMARK    3  A    between atoms: C_11  and  C_19 
ROOT
ATOM      1  C   UNL d   1      30.296  16.475 -23.747  0.00  0.00     0.039 A 
ATOM      2  C   UNL d   1      29.774  16.010 -23.307  0.00  0.00     0.196 A 
ATOM      3  C   UNL d   1      29.941  16.640 -24.473  0.00  0.00     0.003 A 
ATOM      4  C   UNL d   1      29.094  15.889 -23.764  0.00  0.00     0.039 A 
ATOM      5  C   UNL d   1      29.200  16.279 -24.482  0.00  0.00     0.003 A 
ATOM      6  C   UNL d   1      31.043  16.767 -23.585  0.00  0.00     0.008 A 
ATOM      7  C   UNL d   1      31.439  17.222 -24.137  0.00  0.00     0.058 A 
ATOM      8  C   UNL d   1      30.335  17.101 -25.040  0.00  0.00     0.000 A 
ATOM      9  O   UNL d   1      29.902  15.717 -22.547  0.00  0.00    -0.287 OA
ATOM     10  C   UNL d   1      31.090  17.392 -24.866  0.00  0.00     0.005 A 
ATOM     11  C   UNL d   1      28.400  15.477 -23.616  0.00  0.00     0.003 A 
ATOM     12  C   UNL d   1      28.607  16.255 -25.055  0.00  0.00     0.000 A 
ATOM     13  C   UNL d   1      27.808  15.452 -24.185  0.00  0.00     0.000 A 
ATOM     14  C   UNL d   1      27.909  15.841 -24.907  0.00  0.00     0.000 A 
ENDROOT
BRANCH   7  15
ATOM     15  C   UNL d   1      32.193  17.516 -23.971  0.00  0.00     0.279 C 
ATOM     16  N   UNL d   1      32.277  18.213 -23.546  0.00  0.00    -0.204 NA
ATOM     17  O   UNL d   1      32.860  17.109 -24.232  0.00  0.00    -0.265 OA
BRANCH  16  18
ATOM     18  C   UNL d   1      33.029  18.514 -23.376  0.00  0.00     0.127 C 
BRANCH  18  19
ATOM     19  C   UNL d   1      33.110  19.243 -23.011  0.00  0.00     0.119 A 
ATOM     20  O   UNL d   1      33.148  19.970 -23.392  0.00  0.00    -0.304 OA
ATOM     21  C   UNL d   1      33.229  20.558 -22.819  0.00  0.00     0.123 A 
ATOM     22  C   UNL d   1      33.241  20.187 -22.079  0.00  0.00     0.029 A 
ATOM     23  C   UNL d   1      33.167  19.372 -22.198  0.00  0.00     0.028 A 
ENDBRANCH  18  19
ENDBRANCH  16  18
ENDBRANCH   7  15
TORSDOF 3
ENDMDL
MODEL 4
REMARK VINA RESULT:      -2.6      1.760      5.164
REMARK  3 active torsions:
REMARK  status: ('A' for Active; 'I' for Inactive)
REMARK    1  A    between atoms: C_7  and  C_8 
REMARK       I    between atoms: N_10  and  C_7 
REMARK    2  A    between atoms: C_19  and  N_10 
REMARK    3  A    between atoms: C_11  and  C_19 
ROOT
ATOM      1  C   UNL d   1      32.957  21.284 -21.874  0.00  0.00     0.039 A 
ATOM      2  C   UNL d   1      32.835  21.093 -22.668  0.00  0.00     0.196 A 
ATOM      3  C   UNL d   1      33.098  20.583 -21.462  0.00  0.00     0.003 A 
ATOM      4  C   UNL d   1      32.901  20.271 -22.745  0.00  0.00     0.039 A 
ATOM      5  C   UNL d   1      33.063  19.960 -22.000  0.00  0.00     0.003 A 
ATOM      6  C   UNL d   1      32.958  21.997 -21.474  0.00  0.00     0.008 A 
ATOM      7  C   UNL d   1      33.099  22.021 -20.669  0.00  0.00     0.058 A 
ATOM      8  C   UNL d   1      33.241  20.597 -20.644  0.00  0.00     0.000 A 
ATOM      9  O   UNL d   1      32.675  21.623 -23.280  0.00  0.00    -0.287 OA
ATOM     10  C   UNL d   1      33.240  21.324 -20.249  0.00  0.00     0.005 A 
ATOM     11  C   UNL d   1      32.834  19.774 -23.395  0.00  0.00     0.003 A 
ATOM     12  C   UNL d   1      33.159  19.146 -21.905  0.00  0.00     0.000 A 
ATOM     13  C   UNL d   1      32.929  18.962 -23.302  0.00  0.00     0.000 A 
ATOM     14  C   UNL d   1      33.092  18.645 -22.557  0.00  0.00     0.000 A 
ENDROOT
BRANCH   7  15
ATOM     15  C   UNL d   1      33.100  22.743 -20.267  0.00  0.00     0.279 C 
ATOM     16  N   UNL d   1      33.049  22.756 -19.448  0.00  0.00    -0.204 NA
ATOM     17  O   UNL d   1      33.151  23.449 -20.688  0.00  0.00    -0.265 OA
BRANCH  16  18
ATOM     18  C   UNL d   1      33.050  23.476 -19.038  0.00  0.00     0.127 C 
BRANCH  18  19
ATOM     19  C   UNL d   1      32.783  23.511 -18.264  0.00  0.00     0.119 A 
ATOM     20  O   UNL d   1      32.015  23.362 -18.013  0.00  0.00    -0.304 OA
ATOM     21  C   UNL d   1      31.988  23.460 -17.194  0.00  0.00     0.123 A 
ATOM     22  C   UNL d   1      32.749  23.670 -16.942  0.00  0.00     0.029 A 
ATOM     23  C   UNL d   1      33.241  23.702 -17.605  0.00  0.00     0.028 A 
ENDBRANCH  18  19
ENDBRANCH  16  18
ENDBRANCH   7  15
TORSDOF 3
ENDMDL
MODEL 5
REMARK VINA RESULT:      -2.0      1.250      2.165
REMARK  3 active torsions:
REMARK  status: ('A' for Active; 'I' for Inactive)
REMARK    1  A    between atoms: C_7  and  C_8 
REMARK       I    between atoms: N_10  and  C_7 
REMARK    2  A    between atoms: C_19  and  N_10 
REMARK    3  A    between atoms: C_11  and  C_19 
ROOT
ATOM      1  C   UNL d   1      32.865  20.158 -23.064  0.00  0.00     0.039 A 
ATOM      2  C   UNL d   1      32.921  20.954 -23.279  0.00  0.00     0.196 A 
ATOM      3  C   UNL d   1      32.938  20.111 -22.244  0.00  0.00     0.003 A 
ATOM      4  C   UNL d   1      33.028  21.398 -22.589  0.00  0.00     0.039 A 
ATOM      5  C   UNL d   1      33.038  20.875 -21.952  0.00  0.00     0.003 A 
ATOM      6  C   UNL d   1      32.759  19.476 -23.502  0.00  0.00     0.008 A 
ATOM      7  C   UNL d   1      32.724  18.747 -23.132  0.00  0.00     0.058 A 
ATOM      8  C   UNL d   1      32.904  19.376 -21.859  0.00  0.00     0.000 A 
ATOM      9  O   UNL d   1      32.878  21.257 -24.046  0.00  0.00    -0.287 OA
ATOM     10  C   UNL d   1      32.796  18.691 -22.312  0.00  0.00     0.005 A 
ATOM     11  C   UNL d   1      33.117  22.204 -22.463  0.00  0.00     0.003 A 
ATOM     12  C   UNL d   1      33.137  21.162 -21.185  0.00  0.00     0.000 A 
ATOM     13  C   UNL d   1      33.215  22.492 -21.700  0.00  0.00     0.000 A 
ATOM     14  C   UNL d   1      33.226  21.973 -21.058  0.00  0.00     0.000 A 
ENDROOT
BRANCH   7  15
ATOM     15  C   UNL d   1      32.617  18.059 -23.577  0.00  0.00     0.279 C 
ATOM     16  N   UNL d   1      31.889  17.904 -23.923  0.00  0.00    -0.204 NA
ATOM     17  O   UNL d   1      33.240  17.530 -23.673  0.00  0.00    -0.265 OA
BRANCH  16  18
ATOM     18  C   UNL d   1      31.774  17.216 -24.370  0.00  0.00     0.127 C 
BRANCH  18  19
ATOM     19  C   UNL d   1      31.016  16.961 -24.549  0.00  0.00     0.119 A 
ATOM     20  O   UNL d   1      30.636  16.313 -24.216  0.00  0.00    -0.304 OA
ATOM     21  C   UNL d   1      29.884  16.254 -24.551  0.00  0.00     0.123 A 
ATOM     22  C   UNL d   1      29.804  16.874 -25.095  0.00  0.00     0.029 A 
ATOM     23  C   UNL d   1      30.505  17.311 -25.093  0.00  0.00     0.028 A 
ENDBRANCH  18  19
ENDBRANCH  16  18
ENDBRANCH   7  15
TORSDOF 3
ENDMDL
