MODEL 1
REMARK VINA RESULT:      -3.2      0.000      0.000
REMARK  4 active torsions:
REMARK  status: ('A' for Active; 'I' for Inactive)
REMARK    1  A    between atoms: N_3  and  C_1 
REMARK       I    between atoms: C_7  and  N_3 
REMARK    2  A    between atoms: S_10  and  C_5 
REMARK    3  A    between atoms: C_9  and  C_7 
REMARK    4  A    between atoms: C_13  and  S_10 
ROOT
ATOM      1  N   UNL d   1      33.179  21.211 -21.323  0.00  0.00    -0.181 NA
ATOM      2  C   UNL d   1      32.464  21.491 -21.009  0.00  0.00     0.281 C 
ATOM      3  O   UNL d   1      31.763  21.041 -21.080  0.00  0.00    -0.265 OA
ENDROOT
BRANCH   1   4
ATOM      4  C   UNL d   1      33.189  20.503 -21.695  0.00  0.00     0.219 A 
ATOM      5  S   UNL d   1      33.157  20.290 -22.493  0.00  0.00    -0.019 SA
ATOM      6  C   UNL d   1      33.188  19.466 -22.540  0.00  0.00     0.165 A 
ATOM      7  N   UNL d   1      33.239  19.175 -21.798  0.00  0.00    -0.133 NA
ATOM      8  N   UNL d   1      33.239  19.794 -21.299  0.00  0.00    -0.120 NA
BRANCH   6   9
ATOM      9  S   UNL d   1      33.172  18.989 -23.236  0.00  0.00    -0.059 SA
BRANCH   9  10
ATOM     10  C   UNL d   1      32.855  18.264 -23.223  0.00  0.00     0.037 C 
ATOM     11  C   UNL d   1      32.739  17.850 -23.917  0.00  0.00     0.008 C 
ENDBRANCH   9  10
ENDBRANCH   6   9
ENDBRANCH   1   4
BRANCH   2  12
ATOM     12  C   UNL d   1      32.466  22.247 -20.615  0.00  0.00     0.058 A 
ATOM     13  C   UNL d   1      32.268  22.945 -21.003  0.00  0.00     0.005 A 
ATOM     14  C   UNL d   1      32.281  23.673 -20.581  0.00  0.00     0.000 A 
ATOM     15  C   UNL d   1      32.487  23.702 -19.788  0.00  0.00     0.000 A 
ATOM     16  C   UNL d   1      32.686  23.012 -19.392  0.00  0.00     0.000 A 
ATOM     17  C   UNL d   1      32.675  22.275 -19.809  0.00  0.00     0.005 A 
ENDBRANCH   2  12
TORSDOF 4
ENDMDL
MODEL 2
REMARK VINA RESULT:      -2.6      2.009      4.508
REMARK  4 active torsions:
REMARK  status: ('A' for Active; 'I' for Inactive)
REMARK    1  A    between atoms: N_3  and  C_1 
REMARK       I    between atoms: C_7  and  N_3 
REMARK    2  A    between atoms: S_10  and  C_5 
REMARK    3  A    between atoms: C_9  and  C_7 
REMARK    4  A    between atoms: C_13  and  S_10 
ROOT
ATOM      1  N   UNL d   1      33.241  21.640 -20.618  0.00  0.00    -0.181 NA
ATOM      2  C   UNL d   1      32.616  21.267 -21.014  0.00  0.00     0.281 C 
ATOM      3  O   UNL d   1      31.826  21.391 -20.776  0.00  0.00    -0.265 OA
ENDROOT
BRANCH   1   4
ATOM      4  C   UNL d   1      33.076  22.124 -20.002  0.00  0.00     0.219 A 
ATOM      5  S   UNL d   1      33.228  22.069 -19.191  0.00  0.00    -0.019 SA
ATOM      6  C   UNL d   1      32.923  22.745 -18.827  0.00  0.00     0.165 A 
ATOM      7  N   UNL d   1      32.592  23.205 -19.390  0.00  0.00    -0.133 NA
ATOM      8  N   UNL d   1      32.685  22.833 -20.087  0.00  0.00    -0.120 NA
BRANCH   6   9
ATOM      9  S   UNL d   1      32.943  22.941 -18.007  0.00  0.00    -0.059 SA
BRANCH   9  10
ATOM     10  C   UNL d   1      32.493  23.526 -17.719  0.00  0.00     0.037 C 
ATOM     11  C   UNL d   1      32.503  23.702 -16.921  0.00  0.00     0.008 C 
ENDBRANCH   9  10
ENDBRANCH   6   9
ENDBRANCH   1   4
BRANCH   2  12
ATOM     12  C   UNL d   1      32.805  20.753 -21.669  0.00  0.00     0.058 A 
ATOM     13  C   UNL d   1      33.064  21.044 -22.394  0.00  0.00     0.005 A 
ATOM     14  C   UNL d   1      33.241  20.507 -23.017  0.00  0.00     0.000 A 
ATOM     15  C   UNL d   1      33.160  19.697 -22.918  0.00  0.00     0.000 A 
ATOM     16  C   UNL d   1      32.902  19.398 -22.199  0.00  0.00     0.000 A 
ATOM     17  C   UNL d   1      32.722  19.931 -21.566  0.00  0.00     0.005 A 
ENDBRANCH   2  12
TORSDOF 4
ENDMDL
MODEL 3
REMARK VINA RESULT:      -2.3      1.366      2.004
REMARK  4 active torsions:
REMARK  status: ('A' for Active; 'I' for Inactive)
REMARK    1  A    between atoms: N_3  and  C_1 
REMARK       I    between atoms: C_7  and  N_3 
REMARK    2  A    between atoms: S_10  and  C_5 
REMARK    3  A    between atoms: C_9  and  C_7 
REMARK    4  A    between atoms: C_13  and  S_10 
ROOT
ATOM      1  N   UNL d   1      32.783  19.964 -22.837  0.00  0.00    -0.181 NA
ATOM      2  C   UNL d   1      32.968  20.080 -22.037  0.00  0.00     0.281 C 
ATOM      3  O   UNL d   1      33.241  19.445 -21.567  0.00  0.00    -0.265 OA
ENDROOT
BRANCH   1   4
ATOM      4  C   UNL d   1      32.869  19.234 -23.154  0.00  0.00     0.219 A 
ATOM      5  S   UNL d   1      32.651  18.481 -22.891  0.00  0.00    -0.019 SA
ATOM      6  C   UNL d   1      32.888  17.932 -23.462  0.00  0.00     0.165 A 
ATOM      7  N   UNL d   1      33.241  18.329 -24.058  0.00  0.00    -0.133 NA
ATOM      8  N   UNL d   1      33.227  19.102 -23.872  0.00  0.00    -0.120 NA
BRANCH   6   9
ATOM      9  S   UNL d   1      32.788  17.095 -23.443  0.00  0.00    -0.059 SA
BRANCH   9  10
ATOM     10  C   UNL d   1      32.120  16.761 -23.706  0.00  0.00     0.037 C 
ATOM     11  C   UNL d   1      32.077  15.953 -23.819  0.00  0.00     0.008 C 
ENDBRANCH   9  10
ENDBRANCH   6   9
ENDBRANCH   1   4
BRANCH   2  12
ATOM     12  C   UNL d   1      32.872  20.862 -21.711  0.00  0.00     0.058 A 
ATOM     13  C   UNL d   1      33.239  21.522 -22.039  0.00  0.00     0.005 A 
ATOM     14  C   UNL d   1      33.121  22.278 -21.689  0.00  0.00     0.000 A 
ATOM     15  C   UNL d   1      32.647  22.373 -21.026  0.00  0.00     0.000 A 
ATOM     16  C   UNL d   1      32.278  21.721 -20.692  0.00  0.00     0.000 A 
ATOM     17  C   UNL d   1      32.391  20.956 -21.037  0.00  0.00     0.005 A 
ENDBRANCH   2  12
TORSDOF 4
ENDMDL
MODEL 4
REMARK VINA RESULT:      -2.2      1.598      5.245
REMARK  4 active torsions:
REMARK  status: ('A' for Active; 'I' for Inactive)
REMARK    1  A    between atoms: N_3  and  C_1 
REMARK       I    between atoms: C_7  and  N_3 
REMARK    2  A    between atoms: S_10  and  C_5 
REMARK    3  A    between atoms: C_9  and  C_7 
REMARK    4  A    between atoms: C_13  and  S_10 
ROOT
ATOM      1  N   UNL d   1      33.138  18.177 -23.033  0.00  0.00    -0.181 NA
ATOM      2  C   UNL d   1      32.571  17.961 -23.598  0.00  0.00     0.281 C 
ATOM      3  O   UNL d   1      32.033  18.525 -23.898  0.00  0.00    -0.265 OA
ENDROOT
BRANCH   1   4
ATOM      4  C   UNL d   1      33.163  18.935 -22.779  0.00  0.00     0.219 A 
ATOM      5  S   UNL d   1      33.136  19.274 -22.025  0.00  0.00    -0.019 SA
ATOM      6  C   UNL d   1      33.186  20.094 -22.111  0.00  0.00     0.165 A 
ATOM      7  N   UNL d   1      33.241  20.262 -22.890  0.00  0.00    -0.133 NA
ATOM      8  N   UNL d   1      33.227  19.570 -23.284  0.00  0.00    -0.120 NA
BRANCH   6   9
ATOM      9  S   UNL d   1      33.181  20.677 -21.501  0.00  0.00    -0.059 SA
BRANCH   9  10
ATOM     10  C   UNL d   1      32.521  21.082 -21.333  0.00  0.00     0.037 C 
ATOM     11  C   UNL d   1      32.520  21.645 -20.741  0.00  0.00     0.008 C 
ENDBRANCH   9  10
ENDBRANCH   6   9
ENDBRANCH   1   4
BRANCH   2  12
ATOM     12  C   UNL d   1      32.553  17.150 -23.860  0.00  0.00     0.058 A 
ATOM     13  C   UNL d   1      33.227  16.762 -24.132  0.00  0.00     0.005 A 
ATOM     14  C   UNL d   1      33.171  15.961 -24.383  0.00  0.00     0.000 A 
ATOM     15  C   UNL d   1      32.458  15.556 -24.363  0.00  0.00     0.000 A 
ATOM     16  C   UNL d   1      31.782  15.934 -24.095  0.00  0.00     0.000 A 
ATOM     17  C   UNL d   1      31.828  16.740 -23.839  0.00  0.00     0.005 A 
ENDBRANCH   2  12
TORSDOF 4
ENDMDL
MODEL 5
REMARK VINA RESULT:      -2.1      4.384      6.092
REMARK  4 active torsions:
REMARK  status: ('A' for Active; 'I' for Inactive)
REMARK    1  A    between atoms: N_3  and  C_1 
REMARK       I    between atoms: C_7  and  N_3 
REMARK    2  A    between atoms: S_10  and  C_5 
REMARK    3  A    between atoms: C_9  and  C_7 
REMARK    4  A    between atoms: C_13  and  S_10 
ROOT
ATOM      1  N   UNL d   1      31.051  16.906 -23.627  0.00  0.00    -0.181 NA
ATOM      2  C   UNL d   1      30.563  16.501 -24.160  0.00  0.00     0.281 C 
ATOM      3  O   UNL d   1      30.777  16.430 -24.964  0.00  0.00    -0.265 OA
ENDROOT
BRANCH   1   4
ATOM      4  C   UNL d   1      31.733  17.229 -23.892  0.00  0.00     0.219 A 
ATOM      5  S   UNL d   1      31.909  17.961 -24.234  0.00  0.00    -0.019 SA
ATOM      6  C   UNL d   1      32.719  17.980 -24.396  0.00  0.00     0.165 A 
ATOM      7  N   UNL d   1      33.037  17.285 -24.165  0.00  0.00    -0.133 NA
ATOM      8  N   UNL d   1      32.447  16.841 -23.866  0.00  0.00    -0.120 NA
BRANCH   6   9
ATOM      9  S   UNL d   1      33.159  18.609 -24.745  0.00  0.00    -0.059 SA
BRANCH   9  10
ATOM     10  C   UNL d   1      32.991  19.364 -24.574  0.00  0.00     0.037 C 
ATOM     11  C   UNL d   1      33.226  19.965 -25.076  0.00  0.00     0.008 C 
ENDBRANCH   9  10
ENDBRANCH   6   9
ENDBRANCH   1   4
BRANCH   2  12
ATOM     12  C   UNL d   1      29.839  16.161 -23.865  0.00  0.00     0.058 A 
ATOM     13  C   UNL d   1      29.798  15.777 -23.137  0.00  0.00     0.005 A 
ATOM     14  C   UNL d   1      29.066  15.454 -22.878  0.00  0.00     0.000 A 
ATOM     15  C   UNL d   1      28.388  15.512 -23.337  0.00  0.00     0.000 A 
ATOM     16  C   UNL d   1      28.418  15.891 -24.063  0.00  0.00     0.000 A 
ATOM     17  C   UNL d   1      29.151  16.220 -24.332  0.00  0.00     0.005 A 
ENDBRANCH   2  12
TORSDOF 4
ENDMDL
MODEL 6
REMARK VINA RESULT:      -1.3      2.778      4.457
REMARK  4 active torsions:
REMARK  status: ('A' for Active; 'I' for Inactive)
REMARK    1  A    between atoms: N_3  and  C_1 
REMARK       I    between atoms: C_7  and  N_3 
REMARK    2  A    between atoms: S_10  and  C_5 
REMARK    3  A    between atoms: C_9  and  C_7 
REMARK    4  A    between atoms: C_13  and  S_10 
ROOT
ATOM      1  N   UNL d   1      33.134  22.814 -21.649  0.00  0.00    -0.181 NA
ATOM      2  C   UNL d   1      32.559  23.120 -22.162  0.00  0.00     0.281 C 
ATOM      3  O   UNL d   1      31.862  23.468 -21.861  0.00  0.00    -0.265 OA
ENDROOT
BRANCH   1   4
ATOM      4  C   UNL d   1      33.012  22.857 -20.859  0.00  0.00     0.219 A 
ATOM      5  S   UNL d   1      33.061  23.481 -20.318  0.00  0.00    -0.019 SA
ATOM      6  C   UNL d   1      32.870  23.187 -19.570  0.00  0.00     0.165 A 
ATOM      7  N   UNL d   1      32.708  22.408 -19.641  0.00  0.00    -0.133 NA
ATOM      8  N   UNL d   1      32.793  22.216 -20.409  0.00  0.00    -0.120 NA
BRANCH   6   9
ATOM      9  S   UNL d   1      32.844  23.611 -18.842  0.00  0.00    -0.059 SA
BRANCH   9  10
ATOM     10  C   UNL d   1      32.471  23.312 -18.211  0.00  0.00     0.037 C 
ATOM     11  C   UNL d   1      32.510  23.689 -17.488  0.00  0.00     0.008 C 
ENDBRANCH   9  10
ENDBRANCH   6   9
ENDBRANCH   1   4
BRANCH   2  12
ATOM     12  C   UNL d   1      32.700  23.069 -23.001  0.00  0.00     0.058 A 
ATOM     13  C   UNL d   1      32.468  22.416 -23.447  0.00  0.00     0.005 A 
ATOM     14  C   UNL d   1      32.624  22.401 -24.273  0.00  0.00     0.000 A 
ATOM     15  C   UNL d   1      33.005  23.024 -24.646  0.00  0.00     0.000 A 
ATOM     16  C   UNL d   1      33.241  23.678 -24.212  0.00  0.00     0.000 A 
ATOM     17  C   UNL d   1      33.088  23.702 -23.379  0.00  0.00     0.005 A 
ENDBRANCH   2  12
TORSDOF 4
ENDMDL
MODEL 7
REMARK VINA RESULT:      -1.2      4.317      5.564
REMARK  4 active torsions:
REMARK  status: ('A' for Active; 'I' for Inactive)
REMARK    1  A    between atoms: N_3  and  C_1 
REMARK       I    between atoms: C_7  and  N_3 
REMARK    2  A    between atoms: S_10  and  C_5 
REMARK    3  A    between atoms: C_9  and  C_7 
REMARK    4  A    between atoms: C_13  and  S_10 
ROOT
ATOM      1  N   UNL d   1      30.874  17.514 -24.050  0.00  0.00    -0.181 NA
ATOM      2  C   UNL d   1      31.640  17.464 -24.361  0.00  0.00     0.281 C 
ATOM      3  O   UNL d   1      31.874  16.801 -24.813  0.00  0.00    -0.265 OA
ENDROOT
BRANCH   1   4
ATOM      4  C   UNL d   1      30.359  16.918 -24.189  0.00  0.00     0.219 A 
ATOM      5  S   UNL d   1      29.718  16.621 -23.759  0.00  0.00    -0.019 SA
ATOM      6  C   UNL d   1      29.392  15.993 -24.185  0.00  0.00     0.165 A 
ATOM      7  N   UNL d   1      29.814  15.901 -24.857  0.00  0.00    -0.133 NA
ATOM      8  N   UNL d   1      30.387  16.452 -24.855  0.00  0.00    -0.120 NA
BRANCH   6   9
ATOM      9  S   UNL d   1      28.730  15.515 -23.973  0.00  0.00    -0.059 SA
BRANCH   9  10
ATOM     10  C   UNL d   1      28.115  15.825 -23.582  0.00  0.00     0.037 C 
ATOM     11  C   UNL d   1      27.388  15.453 -23.589  0.00  0.00     0.008 C 
ENDBRANCH   9  10
ENDBRANCH   6   9
ENDBRANCH   1   4
BRANCH   2  12
ATOM     12  C   UNL d   1      32.180  18.106 -24.207  0.00  0.00     0.058 A 
ATOM     13  C   UNL d   1      32.432  18.619 -24.799  0.00  0.00     0.005 A 
ATOM     14  C   UNL d   1      32.966  19.242 -24.609  0.00  0.00     0.000 A 
ATOM     15  C   UNL d   1      33.241  19.349 -23.844  0.00  0.00     0.000 A 
ATOM     16  C   UNL d   1      32.995  18.843 -23.247  0.00  0.00     0.000 A 
ATOM     17  C   UNL d   1      32.459  18.213 -23.429  0.00  0.00     0.005 A 
ENDBRANCH   2  12
TORSDOF 4
ENDMDL
