MODEL 1
REMARK VINA RESULT:      -1.8      0.000      0.000
REMARK  5 active torsions:
REMARK  status: ('A' for Active; 'I' for Inactive)
REMARK    1  A    between atoms: N_2  and  C_1 
REMARK       I    between atoms: C_7  and  N_2 
REMARK    2  A    between atoms: C_21  and  N_3 
REMARK    3  A    between atoms: C_8  and  C_7 
REMARK       I    between atoms: C_12  and  N_13 
REMARK    4  A    between atoms: N_13  and  C_14 
REMARK    5  A    between atoms: C_20  and  C_21 
ROOT
ATOM      1  C   UNL d   1      32.986  20.884 -22.371  0.00  0.00     0.182 A 
ATOM      2  N   UNL d   1      33.124  20.785 -23.172  0.00  0.00    -0.285 N 
ATOM      3  S   UNL d   1      32.906  20.137 -22.033  0.00  0.00    -0.048 SA
ATOM      4  C   UNL d   1      32.995  19.574 -22.632  0.00  0.00     0.050 A 
ATOM      5  C   UNL d   1      33.130  19.976 -23.339  0.00  0.00     0.072 A 
ATOM      6  C   UNL d   1      32.970  18.751 -22.624  0.00  0.00     0.027 A 
ATOM      7  C   UNL d   1      33.241  19.555 -24.039  0.00  0.00     0.020 A 
ATOM      8  C   UNL d   1      33.080  18.330 -23.322  0.00  0.00     0.085 A 
ATOM      9  C   UNL d   1      33.216  18.733 -24.030  0.00  0.00     0.021 A 
ENDROOT
BRANCH   1  10
ATOM     10  N   UNL d   1      32.938  21.608 -21.978  0.00  0.00    -0.183 NA
ATOM     11  C   UNL d   1      32.808  21.621 -21.165  0.00  0.00     0.287 C 
ATOM     12  O   UNL d   1      32.727  20.912 -20.752  0.00  0.00    -0.265 OA
BRANCH  11  13
ATOM     13  C   UNL d   1      32.758  22.341 -20.765  0.00  0.00     0.087 A 
ATOM     14  S   UNL d   1      33.232  22.585 -20.132  0.00  0.00    -0.082 SA
ATOM     15  C   UNL d   1      32.996  23.341 -19.899  0.00  0.00     0.036 A 
ATOM     16  C   UNL d   1      32.373  23.567 -20.390  0.00  0.00     0.008 A 
ATOM     17  C   UNL d   1      32.222  22.956 -20.925  0.00  0.00     0.012 A 
ENDBRANCH  11  13
ENDBRANCH   1  10
BRANCH   2  18
ATOM     18  C   UNL d   1      33.238  21.387 -23.727  0.00  0.00     0.082 C 
BRANCH  18  19
ATOM     19  C   UNL d   1      32.605  21.677 -24.164  0.00  0.00     0.019 C 
ATOM     20  C   UNL d   1      32.728  22.243 -24.747  0.00  0.00     0.002 C 
ENDBRANCH  18  19
ENDBRANCH   2  18
BRANCH   8  21
ATOM     21  N   UNL d   1      33.055  17.495 -23.317  0.00  0.00    -0.208 NA
ATOM     22  C   UNL d   1      32.385  17.107 -23.573  0.00  0.00     0.279 C 
ATOM     23  O   UNL d   1      32.363  16.284 -23.567  0.00  0.00    -0.265 OA
ATOM     24  C   UNL d   1      31.727  17.528 -23.839  0.00  0.00     0.068 C 
ENDBRANCH   8  21
TORSDOF 5
ENDMDL
MODEL 2
REMARK VINA RESULT:       1.1      2.265      4.986
REMARK  5 active torsions:
REMARK  status: ('A' for Active; 'I' for Inactive)
REMARK    1  A    between atoms: N_2  and  C_1 
REMARK       I    between atoms: C_7  and  N_2 
REMARK    2  A    between atoms: C_21  and  N_3 
REMARK    3  A    between atoms: C_8  and  C_7 
REMARK       I    between atoms: C_12  and  N_13 
REMARK    4  A    between atoms: N_13  and  C_14 
REMARK    5  A    between atoms: C_20  and  C_21 
ROOT
ATOM      1  C   UNL d   1      33.114  18.828 -23.777  0.00  0.00     0.182 A 
ATOM      2  N   UNL d   1      33.175  19.371 -23.166  0.00  0.00    -0.285 N 
ATOM      3  S   UNL d   1      33.089  19.246 -24.487  0.00  0.00    -0.048 SA
ATOM      4  C   UNL d   1      33.135  20.053 -24.310  0.00  0.00     0.050 A 
ATOM      5  C   UNL d   1      33.188  20.130 -23.491  0.00  0.00     0.072 A 
ATOM      6  C   UNL d   1      33.134  20.723 -24.789  0.00  0.00     0.027 A 
ATOM      7  C   UNL d   1      33.241  20.878 -23.149  0.00  0.00     0.020 A 
ATOM      8  C   UNL d   1      33.187  21.470 -24.448  0.00  0.00     0.085 A 
ATOM      9  C   UNL d   1      33.241  21.548 -23.629  0.00  0.00     0.021 A 
ENDROOT
BRANCH   1  10
ATOM     10  N   UNL d   1      33.084  18.009 -23.690  0.00  0.00    -0.183 NA
ATOM     11  C   UNL d   1      32.434  17.593 -23.976  0.00  0.00     0.287 C 
ATOM     12  O   UNL d   1      31.819  17.999 -24.346  0.00  0.00    -0.265 OA
BRANCH  11  13
ATOM     13  C   UNL d   1      32.396  16.773 -23.892  0.00  0.00     0.087 A 
ATOM     14  S   UNL d   1      31.808  16.345 -23.496  0.00  0.00    -0.082 SA
ATOM     15  C   UNL d   1      31.985  15.540 -23.546  0.00  0.00     0.036 A 
ATOM     16  C   UNL d   1      32.687  15.469 -23.974  0.00  0.00     0.008 A 
ATOM     17  C   UNL d   1      32.945  16.223 -24.190  0.00  0.00     0.012 A 
ENDBRANCH  11  13
ENDBRANCH   1  10
BRANCH   2  18
ATOM     18  C   UNL d   1      33.216  19.197 -22.359  0.00  0.00     0.082 C 
BRANCH  18  19
ATOM     19  C   UNL d   1      32.964  19.745 -21.801  0.00  0.00     0.019 C 
ATOM     20  C   UNL d   1      33.159  19.649 -21.009  0.00  0.00     0.002 C 
ENDBRANCH  18  19
ENDBRANCH   2  18
BRANCH   8  21
ATOM     21  N   UNL d   1      33.187  22.152 -24.931  0.00  0.00    -0.208 NA
ATOM     22  C   UNL d   1      33.006  22.878 -24.608  0.00  0.00     0.279 C 
ATOM     23  O   UNL d   1      33.006  23.549 -25.086  0.00  0.00    -0.265 OA
ATOM     24  C   UNL d   1      32.821  22.952 -23.807  0.00  0.00     0.068 C 
ENDBRANCH   8  21
TORSDOF 5
ENDMDL
