MODEL 1
REMARK VINA RESULT:      -7.8      0.000      0.000
REMARK  8 active torsions:
REMARK  status: ('A' for Active; 'I' for Inactive)
REMARK    1  A    between atoms: C_2  and  P_1 
REMARK    2  A    between atoms: O_5  and  P_1 
REMARK    3  A    between atoms: O_6  and  P_1 
REMARK    4  A    between atoms: N_3  and  C_2 
REMARK       I    between atoms: C_4  and  N_3 
REMARK    5  A    between atoms: C_9  and  C_4 
REMARK    6  A    between atoms: C_12  and  O_5 
REMARK    7  A    between atoms: C_11  and  O_6 
REMARK    8  A    between atoms: C_10  and  C_9 
ROOT
ATOM      1  C   UNL d   1      52.983  33.427  54.021  0.00  0.00     0.165 C 
ATOM      2  C   UNL d   1      53.202  33.465  54.816  0.00  0.00     0.029 C 
ENDROOT
BRANCH   1   3
ATOM      3  P   UNL d   1      52.476  33.994  53.698  0.00  0.00     0.392 P 
ATOM      4  O   UNL d   1      51.822  33.464  53.816  0.00  0.00    -0.251 OA
BRANCH   3   5
ATOM      5  O   UNL d   1      51.946  34.569  53.367  0.00  0.00    -0.265 OA
BRANCH   5   6
ATOM      6  C   UNL d   1      51.341  34.331  52.859  0.00  0.00     0.103 C 
ATOM      7  C   UNL d   1      50.585  34.213  53.149  0.00  0.00     0.027 C 
ATOM      8  C   UNL d   1      51.480  34.206  52.057  0.00  0.00     0.027 C 
ENDBRANCH   5   6
ENDBRANCH   3   5
BRANCH   3   9
ATOM      9  O   UNL d   1      53.118  34.503  53.586  0.00  0.00    -0.265 OA
BRANCH   9  10
ATOM     10  C   UNL d   1      53.151  35.219  53.991  0.00  0.00     0.103 C 
ATOM     11  C   UNL d   1      53.542  35.853  53.665  0.00  0.00     0.027 C 
ATOM     12  C   UNL d   1      52.797  35.291  54.709  0.00  0.00     0.027 C 
ENDBRANCH   9  10
ENDBRANCH   3   9
ENDBRANCH   1   3
BRANCH   1  13
ATOM     13  N   UNL d   1      53.272  32.817  53.549  0.00  0.00    -0.200 NA
ATOM     14  C   UNL d   1      53.626  32.151  53.907  0.00  0.00     0.280 C 
ATOM     15  O   UNL d   1      53.687  32.102  54.729  0.00  0.00    -0.265 OA
BRANCH  14  16
ATOM     16  C   UNL d   1      53.919  31.533  53.411  0.00  0.00     0.062 C 
BRANCH  16  17
ATOM     17  C   UNL d   1      53.537  30.771  53.460  0.00  0.00     0.005 A 
ATOM     18  C   UNL d   1      52.976  30.570  52.876  0.00  0.00     0.000 A 
ATOM     19  C   UNL d   1      52.588  29.832  52.899  0.00  0.00     0.000 A 
ATOM     20  C   UNL d   1      52.769  29.306  53.507  0.00  0.00     0.000 A 
ATOM     21  C   UNL d   1      53.337  29.518  54.091  0.00  0.00     0.000 A 
ATOM     22  C   UNL d   1      53.718  30.245  54.067  0.00  0.00     0.000 A 
ENDBRANCH  16  17
ENDBRANCH  14  16
ENDBRANCH   1  13
TORSDOF 8
ENDMDL
MODEL 2
REMARK VINA RESULT:      -7.3      1.226      2.250
REMARK  8 active torsions:
REMARK  status: ('A' for Active; 'I' for Inactive)
REMARK    1  A    between atoms: C_2  and  P_1 
REMARK    2  A    between atoms: O_5  and  P_1 
REMARK    3  A    between atoms: O_6  and  P_1 
REMARK    4  A    between atoms: N_3  and  C_2 
REMARK       I    between atoms: C_4  and  N_3 
REMARK    5  A    between atoms: C_9  and  C_4 
REMARK    6  A    between atoms: C_12  and  O_5 
REMARK    7  A    between atoms: C_11  and  O_6 
REMARK    8  A    between atoms: C_10  and  C_9 
ROOT
ATOM      1  C   UNL d   1      53.216  33.191  53.454  0.00  0.00     0.165 C 
ATOM      2  C   UNL d   1      53.241  33.422  52.662  0.00  0.00     0.029 C 
ENDROOT
BRANCH   1   3
ATOM      3  P   UNL d   1      53.625  33.621  54.030  0.00  0.00     0.392 P 
ATOM      4  O   UNL d   1      54.344  33.236  53.793  0.00  0.00    -0.251 OA
BRANCH   3   5
ATOM      5  O   UNL d   1      54.054  34.057  54.618  0.00  0.00    -0.265 OA
BRANCH   5   6
ATOM      6  C   UNL d   1      54.678  33.701  55.024  0.00  0.00     0.103 C 
ATOM      7  C   UNL d   1      55.451  33.850  54.800  0.00  0.00     0.027 C 
ATOM      8  C   UNL d   1      54.542  33.192  55.657  0.00  0.00     0.027 C 
ENDBRANCH   5   6
ENDBRANCH   3   5
BRANCH   3   9
ATOM      9  O   UNL d   1      52.920  33.991  54.254  0.00  0.00    -0.265 OA
BRANCH   9  10
ATOM     10  C   UNL d   1      52.842  34.807  54.181  0.00  0.00     0.103 C 
ATOM     11  C   UNL d   1      52.666  35.259  54.833  0.00  0.00     0.027 C 
ATOM     12  C   UNL d   1      52.941  35.158  53.465  0.00  0.00     0.027 C 
ENDBRANCH   9  10
ENDBRANCH   3   9
ENDBRANCH   1   3
BRANCH   1  13
ATOM     13  N   UNL d   1      52.780  32.527  53.669  0.00  0.00    -0.200 NA
ATOM     14  C   UNL d   1      52.655  31.918  53.113  0.00  0.00     0.280 C 
ATOM     15  O   UNL d   1      52.966  31.979  52.349  0.00  0.00    -0.265 OA
BRANCH  14  16
ATOM     16  C   UNL d   1      52.205  31.242  53.346  0.00  0.00     0.062 C 
BRANCH  16  17
ATOM     17  C   UNL d   1      52.627  30.512  53.481  0.00  0.00     0.005 A 
ATOM     18  C   UNL d   1      52.737  30.256  54.268  0.00  0.00     0.000 A 
ATOM     19  C   UNL d   1      53.145  29.547  54.429  0.00  0.00     0.000 A 
ATOM     20  C   UNL d   1      53.438  29.104  53.798  0.00  0.00     0.000 A 
ATOM     21  C   UNL d   1      53.321  29.371  53.008  0.00  0.00     0.000 A 
ATOM     22  C   UNL d   1      52.920  30.069  52.851  0.00  0.00     0.000 A 
ENDBRANCH  16  17
ENDBRANCH  14  16
ENDBRANCH   1  13
TORSDOF 8
ENDMDL
MODEL 3
REMARK VINA RESULT:      -7.0      1.382      4.121
REMARK  8 active torsions:
REMARK  status: ('A' for Active; 'I' for Inactive)
REMARK    1  A    between atoms: C_2  and  P_1 
REMARK    2  A    between atoms: O_5  and  P_1 
REMARK    3  A    between atoms: O_6  and  P_1 
REMARK    4  A    between atoms: N_3  and  C_2 
REMARK       I    between atoms: C_4  and  N_3 
REMARK    5  A    between atoms: C_9  and  C_4 
REMARK    6  A    between atoms: C_12  and  O_5 
REMARK    7  A    between atoms: C_11  and  O_6 
REMARK    8  A    between atoms: C_10  and  C_9 
ROOT
ATOM      1  C   UNL d   1      52.623  33.128  53.145  0.00  0.00     0.165 C 
ATOM      2  C   UNL d   1      53.039  33.694  52.712  0.00  0.00     0.029 C 
ENDROOT
BRANCH   1   3
ATOM      3  P   UNL d   1      52.972  32.403  53.333  0.00  0.00     0.392 P 
ATOM      4  O   UNL d   1      52.803  32.128  52.547  0.00  0.00    -0.251 OA
BRANCH   3   5
ATOM      5  O   UNL d   1      53.328  31.654  53.515  0.00  0.00    -0.265 OA
BRANCH   5   6
ATOM      6  C   UNL d   1      53.015  30.959  53.199  0.00  0.00     0.103 C 
ATOM      7  C   UNL d   1      53.378  30.599  52.560  0.00  0.00     0.027 C 
ATOM      8  C   UNL d   1      52.338  30.613  53.515  0.00  0.00     0.027 C 
ENDBRANCH   5   6
ENDBRANCH   3   5
BRANCH   3   9
ATOM      9  O   UNL d   1      53.132  32.678  54.096  0.00  0.00    -0.265 OA
BRANCH   9  10
ATOM     10  C   UNL d   1      53.911  32.733  54.358  0.00  0.00     0.103 C 
ATOM     11  C   UNL d   1      54.082  32.638  55.147  0.00  0.00     0.027 C 
ATOM     12  C   UNL d   1      54.502  32.882  53.835  0.00  0.00     0.027 C 
ENDBRANCH   9  10
ENDBRANCH   3   9
ENDBRANCH   1   3
BRANCH   1  13
ATOM     13  N   UNL d   1      51.853  33.290  53.390  0.00  0.00    -0.200 NA
ATOM     14  C   UNL d   1      51.437  33.926  53.047  0.00  0.00     0.280 C 
ATOM     15  O   UNL d   1      51.791  34.392  52.464  0.00  0.00    -0.265 OA
BRANCH  14  16
ATOM     16  C   UNL d   1      50.648  34.081  53.307  0.00  0.00     0.062 C 
BRANCH  16  17
ATOM     17  C   UNL d   1      50.083  34.347  52.725  0.00  0.00     0.005 A 
ATOM     18  C   UNL d   1      49.562  34.966  52.931  0.00  0.00     0.000 A 
ATOM     19  C   UNL d   1      49.000  35.246  52.383  0.00  0.00     0.000 A 
ATOM     20  C   UNL d   1      48.968  34.902  51.635  0.00  0.00     0.000 A 
ATOM     21  C   UNL d   1      49.498  34.278  51.437  0.00  0.00     0.000 A 
ATOM     22  C   UNL d   1      50.051  34.003  51.978  0.00  0.00     0.000 A 
ENDBRANCH  16  17
ENDBRANCH  14  16
ENDBRANCH   1  13
TORSDOF 8
ENDMDL
