MODEL 1
REMARK VINA RESULT:      51.7      0.000      0.000
REMARK  5 active torsions:
REMARK  status: ('A' for Active; 'I' for Inactive)
REMARK    1  A    between atoms: C_6  and  N_1 
REMARK    2  A    between atoms: C_8  and  C_4 
REMARK    3  A    between atoms: C_13  and  C_8 
REMARK    4  A    between atoms: O_20  and  C_11 
REMARK    5  A    between atoms: O_21  and  C_16 
ROOT
ATOM      1  N   UNL d   1     -57.558 -98.838 -45.353  0.00  0.00    -0.231 N 
ATOM      2  C   UNL d   1     -57.129 -98.800 -46.060  0.00  0.00     0.204 A 
ATOM      3  C   UNL d   1     -57.017 -98.875 -44.731  0.00  0.00     0.274 A 
ATOM      4  C   UNL d   1     -56.253 -98.859 -45.052  0.00  0.00     0.089 A 
ATOM      5  S   UNL d   1     -56.330 -98.813 -45.870  0.00  0.00    -0.043 SA
ATOM      6  N   UNL d   1     -57.457 -98.756 -46.818  0.00  0.00    -0.121 N 
ATOM      7  O   UNL d   1     -57.205 -98.919 -43.924  0.00  0.00    -0.266 OA
ENDROOT
BRANCH   4   8
ATOM      8  C   UNL d   1     -55.554 -98.886 -44.628  0.00  0.00     0.011 C 
BRANCH   8   9
ATOM      9  C   UNL d   1     -55.344 -99.568 -44.219  0.00  0.00     0.003 A 
ATOM     10  C   UNL d   1     -55.239-100.282 -44.619  0.00  0.00     0.026 A 
ATOM     11  C   UNL d   1     -55.030-100.961 -44.212  0.00  0.00     0.116 A 
ATOM     12  C   UNL d   1     -54.921-100.938 -43.388  0.00  0.00     0.116 A 
ATOM     13  C   UNL d   1     -55.027-100.219 -42.988  0.00  0.00     0.026 A 
ATOM     14  C   UNL d   1     -55.236 -99.540 -43.395  0.00  0.00     0.002 A 
BRANCH  11  15
ATOM     15  O   UNL d   1     -54.927-101.671 -44.621  0.00  0.00    -0.326 OA
ATOM     16  C   UNL d   1     -55.439-101.866 -45.246  0.00  0.00     0.181 C 
ENDBRANCH  11  15
BRANCH  12  17
ATOM     17  O   UNL d   1     -54.712-101.612 -42.975  0.00  0.00    -0.326 OA
ATOM     18  C   UNL d   1     -54.989-101.732 -42.206  0.00  0.00     0.181 C 
ENDBRANCH  12  17
ENDBRANCH   8   9
ENDBRANCH   4   8
BRANCH   1  19
ATOM     19  C   UNL d   1     -58.379 -98.839 -45.275  0.00  0.00     0.183 A 
ATOM     20  N   UNL d   1     -58.804 -98.756 -44.581  0.00  0.00    -0.220 NA
ATOM     21  C   UNL d   1     -59.606 -98.790 -44.760  0.00  0.00     0.108 A 
ATOM     22  C   UNL d   1     -59.676 -98.897 -45.579  0.00  0.00     0.059 A 
ATOM     23  S   UNL d   1     -58.919 -98.927 -45.892  0.00  0.00    -0.048 SA
ENDBRANCH   1  19
TORSDOF 5
ENDMDL
