MODEL 1
REMARK VINA RESULT:      -6.1      0.000      0.000
REMARK  2 active torsions:
REMARK  status: ('A' for Active; 'I' for Inactive)
REMARK    1  A    between atoms: C_6  and  C_1 
REMARK    2  A    between atoms: C_7  and  C_5 
ROOT
ATOM      1  C   UNL d   1      57.966  -0.268  30.319  0.00  0.00     0.169 A 
ATOM      2  C   UNL d   1      57.733   0.302  30.754  0.00  0.00     0.048 A 
ATOM      3  N   UNL d   1      57.243  -1.104  31.028  0.00  0.00    -0.148 NA
ATOM      4  N   UNL d   1      57.724  -0.975  30.451  0.00  0.00    -0.142 NA
ATOM      5  C   UNL d   1      57.011  -0.534  31.463  0.00  0.00     0.105 A 
ENDROOT
BRANCH   5   6
ATOM      6  C   UNL d   1      56.512  -0.462  32.113  0.00  0.00     0.020 A 
ATOM      7  C   UNL d   1      56.298   0.287  32.394  0.00  0.00     0.004 A 
ATOM      8  C   UNL d   1      55.796   0.359  33.048  0.00  0.00     0.030 A 
ATOM      9  C   UNL d   1      55.506  -0.319  33.424  0.00  0.00     0.140 A 
ATOM     10  C   UNL d   1      55.723  -1.074  33.137  0.00  0.00     0.030 A 
ATOM     11  F   UNL d   1      55.010  -0.254  34.069  0.00  0.00    -0.204 F 
ATOM     12  C   UNL d   1      56.224  -1.138  32.485  0.00  0.00     0.004 A 
ENDBRANCH   5   6
BRANCH   1  13
ATOM     13  C   UNL d   1      58.446  -0.139  29.742  0.00  0.00     0.231 C 
ATOM     14  O   UNL d   1      59.183  -0.053  29.875  0.00  0.00    -0.643 OA
ATOM     15  O   UNL d   1      58.177  -0.097  29.035  0.00  0.00    -0.643 OA
ENDBRANCH   1  13
TORSDOF 2
ENDMDL
MODEL 2
REMARK VINA RESULT:      -5.1      2.950      3.888
REMARK  2 active torsions:
REMARK  status: ('A' for Active; 'I' for Inactive)
REMARK    1  A    between atoms: C_6  and  C_1 
REMARK    2  A    between atoms: C_7  and  C_5 
ROOT
ATOM      1  C   UNL d   1      55.350   0.152  33.612  0.00  0.00     0.169 A 
ATOM      2  C   UNL d   1      55.707   0.681  33.211  0.00  0.00     0.048 A 
ATOM      3  N   UNL d   1      55.903  -0.782  32.872  0.00  0.00    -0.148 NA
ATOM      4  N   UNL d   1      55.444  -0.583  33.446  0.00  0.00    -0.142 NA
ATOM      5  C   UNL d   1      56.260  -0.252  32.471  0.00  0.00     0.105 A 
ENDROOT
BRANCH   5   6
ATOM      6  C   UNL d   1      56.781  -0.254  31.835  0.00  0.00     0.020 A 
ATOM      7  C   UNL d   1      57.071   0.459  31.530  0.00  0.00     0.004 A 
ATOM      8  C   UNL d   1      57.595   0.456  30.889  0.00  0.00     0.030 A 
ATOM      9  C   UNL d   1      57.832  -0.261  30.551  0.00  0.00     0.140 A 
ATOM     10  C   UNL d   1      57.538  -0.980  30.862  0.00  0.00     0.030 A 
ATOM     11  F   UNL d   1      58.349  -0.269  29.920  0.00  0.00    -0.204 F 
ATOM     12  C   UNL d   1      57.016  -0.969  31.500  0.00  0.00     0.004 A 
ENDBRANCH   5   6
BRANCH   1  13
ATOM     13  C   UNL d   1      54.891   0.350  34.186  0.00  0.00     0.231 C 
ATOM     14  O   UNL d   1      55.140   0.325  34.897  0.00  0.00    -0.643 OA
ATOM     15  O   UNL d   1      54.182   0.573  34.036  0.00  0.00    -0.643 OA
ENDBRANCH   1  13
TORSDOF 2
ENDMDL
MODEL 3
REMARK VINA RESULT:      -4.4      2.590      3.894
REMARK  2 active torsions:
REMARK  status: ('A' for Active; 'I' for Inactive)
REMARK    1  A    between atoms: C_6  and  C_1 
REMARK    2  A    between atoms: C_7  and  C_5 
ROOT
ATOM      1  C   UNL d   1      56.604  -0.610  32.294  0.00  0.00     0.169 A 
ATOM      2  C   UNL d   1      56.983   0.015  32.107  0.00  0.00     0.048 A 
ATOM      3  N   UNL d   1      57.009  -1.186  31.185  0.00  0.00    -0.148 NA
ATOM      4  N   UNL d   1      56.614  -1.215  31.836  0.00  0.00    -0.142 NA
ATOM      5  C   UNL d   1      57.387  -0.561  30.998  0.00  0.00     0.105 A 
ENDROOT
BRANCH   5   6
ATOM      6  C   UNL d   1      57.858  -0.331  30.365  0.00  0.00     0.020 A 
ATOM      7  C   UNL d   1      58.371  -0.874  30.007  0.00  0.00     0.004 A 
ATOM      8  C   UNL d   1      58.845  -0.641  29.369  0.00  0.00     0.030 A 
ATOM      9  C   UNL d   1      58.807   0.137  29.087  0.00  0.00     0.140 A 
ATOM     10  C   UNL d   1      58.288   0.682  29.451  0.00  0.00     0.030 A 
ATOM     11  F   UNL d   1      59.272   0.371  28.459  0.00  0.00    -0.204 F 
ATOM     12  C   UNL d   1      57.819   0.443  30.086  0.00  0.00     0.004 A 
ENDBRANCH   5   6
BRANCH   1  13
ATOM     13  C   UNL d   1      56.210  -0.639  32.944  0.00  0.00     0.231 C 
ATOM     14  O   UNL d   1      55.963  -1.301  33.209  0.00  0.00    -0.643 OA
ATOM     15  O   UNL d   1      56.067   0.002  33.322  0.00  0.00    -0.643 OA
ENDBRANCH   1  13
TORSDOF 2
ENDMDL
MODEL 4
REMARK VINA RESULT:      -3.4      1.414      2.014
REMARK  2 active torsions:
REMARK  status: ('A' for Active; 'I' for Inactive)
REMARK    1  A    between atoms: C_6  and  C_1 
REMARK    2  A    between atoms: C_7  and  C_5 
ROOT
ATOM      1  C   UNL d   1      56.950  -0.146  31.870  0.00  0.00     0.169 A 
ATOM      2  C   UNL d   1      56.757   0.502  32.203  0.00  0.00     0.048 A 
ATOM      3  N   UNL d   1      56.187  -0.806  32.710  0.00  0.00    -0.148 NA
ATOM      4  N   UNL d   1      56.668  -0.804  32.119  0.00  0.00    -0.142 NA
ATOM      5  C   UNL d   1      55.993  -0.158  33.043  0.00  0.00     0.105 A 
ENDROOT
BRANCH   5   6
ATOM      6  C   UNL d   1      55.507   0.053  33.671  0.00  0.00     0.020 A 
ATOM      7  C   UNL d   1      55.816   0.462  34.321  0.00  0.00     0.004 A 
ATOM      8  C   UNL d   1      55.325   0.674  34.953  0.00  0.00     0.030 A 
ATOM      9  C   UNL d   1      54.521   0.476  34.937  0.00  0.00     0.140 A 
ATOM     10  C   UNL d   1      54.212   0.062  34.280  0.00  0.00     0.030 A 
ATOM     11  F   UNL d   1      54.033   0.682  35.558  0.00  0.00    -0.204 F 
ATOM     12  C   UNL d   1      54.707  -0.146  33.654  0.00  0.00     0.004 A 
ENDBRANCH   5   6
BRANCH   1  13
ATOM     13  C   UNL d   1      57.431  -0.144  31.280  0.00  0.00     0.231 C 
ATOM     14  O   UNL d   1      57.181  -0.299  30.586  0.00  0.00    -0.643 OA
ATOM     15  O   UNL d   1      58.163   0.016  31.396  0.00  0.00    -0.643 OA
ENDBRANCH   1  13
TORSDOF 2
ENDMDL
