MODEL 1
REMARK VINA RESULT:      12.0      0.000      0.000
REMARK  5 active torsions:
REMARK  status: ('A' for Active; 'I' for Inactive)
REMARK    1  A    between atoms: C_12  and  C_4 
REMARK    2  A    between atoms: N_10  and  C_6 
REMARK    3  A    between atoms: C_11  and  C_9 
REMARK    4  A    between atoms: C_14  and  N_10 
REMARK    5  A    between atoms: C_15  and  C_14 
ROOT
ATOM      1  C   UNL d   1     -42.603-122.863 -49.742  0.00  0.00     0.167 A 
ATOM      2  N   UNL d   1     -42.225-122.893 -50.478  0.00  0.00    -0.195 N 
ATOM      3  N   UNL d   1     -41.131-123.537 -49.875  0.00  0.00    -0.163 NA
ATOM      4  C   UNL d   1     -42.247-123.166 -49.085  0.00  0.00     0.055 A 
ATOM      5  N   UNL d   1     -43.348-122.521 -49.677  0.00  0.00    -0.231 NA
ATOM      6  C   UNL d   1     -42.601-122.582 -51.131  0.00  0.00     0.167 A 
ATOM      7  C   UNL d   1     -41.503-123.507 -49.150  0.00  0.00     0.104 A 
ATOM      8  C   UNL d   1     -43.349-122.238 -51.067  0.00  0.00     0.054 A 
ATOM      9  C   UNL d   1     -43.721-122.208 -50.343  0.00  0.00     0.063 A 
ATOM     10  C   UNL d   1     -41.132-123.816 -48.496  0.00  0.00     0.023 C 
ENDROOT
BRANCH   6  11
ATOM     11  N   UNL d   1     -42.212-122.613 -51.890  0.00  0.00    -0.224 NA
BRANCH  11  12
ATOM     12  C   UNL d   1     -41.604-122.239 -52.336  0.00  0.00     0.120 C 
BRANCH  12  13
ATOM     13  C   UNL d   1     -41.509-122.406 -53.154  0.00  0.00     0.101 A 
ATOM     14  N   UNL d   1     -41.633-121.794 -53.720  0.00  0.00    -0.242 NA
ATOM     15  C   UNL d   1     -41.536-121.967 -54.553  0.00  0.00     0.099 A 
ATOM     16  C   UNL d   1     -41.318-122.742 -54.802  0.00  0.00     0.021 A 
ATOM     17  C   UNL d   1     -41.193-123.361 -54.219  0.00  0.00     0.003 A 
ATOM     18  C   UNL d   1     -41.290-123.185 -53.403  0.00  0.00     0.021 A 
ENDBRANCH  12  13
ENDBRANCH  11  12
ENDBRANCH   6  11
BRANCH   9  19
ATOM     19  C   UNL d   1     -44.493-121.855 -50.274  0.00  0.00     0.036 C 
ATOM     20  C   UNL d   1     -45.258-121.510 -50.208  0.00  0.00     0.006 C 
ATOM     21  C   UNL d   1     -44.582-121.104 -49.879  0.00  0.00     0.006 C 
ATOM     22  C   UNL d   1     -45.164-122.259 -50.600  0.00  0.00     0.006 C 
ENDBRANCH   9  19
BRANCH   4  23
ATOM     23  C   UNL d   1     -42.621-123.135 -48.357  0.00  0.00     0.004 A 
ATOM     24  C   UNL d   1     -43.114-123.747 -48.134  0.00  0.00     0.000 A 
ATOM     25  C   UNL d   1     -43.492-123.717 -47.398  0.00  0.00     0.000 A 
ATOM     26  C   UNL d   1     -43.365-123.075 -46.907  0.00  0.00     0.000 A 
ATOM     27  C   UNL d   1     -42.868-122.468 -47.144  0.00  0.00     0.000 A 
ATOM     28  C   UNL d   1     -42.496-122.498 -47.868  0.00  0.00     0.000 A 
ENDBRANCH   4  23
TORSDOF 5
ENDMDL
