MODEL 1
REMARK VINA RESULT:      -7.3      0.000      0.000
REMARK  6 active torsions:
REMARK  status: ('A' for Active; 'I' for Inactive)
REMARK    1  A    between atoms: S_3  and  N_1 
REMARK    2  A    between atoms: C_19  and  S_3 
REMARK    3  A    between atoms: S_4  and  N_8 
REMARK    4  A    between atoms: C_11  and  C_5 
REMARK    5  A    between atoms: C_12  and  C_6 
REMARK    6  A    between atoms: N_8  and  C_20 
ROOT
ATOM      1  N   UNL d   1     -48.721  12.815  22.798  0.00  0.00    -0.152 N 
ATOM      2  N   UNL d   1     -47.967  12.476  22.725  0.00  0.00    -0.155 NA
ATOM      3  C   UNL d   1     -48.623  13.642  22.827  0.00  0.00     0.096 A 
ATOM      4  C   UNL d   1     -47.408  13.084  22.708  0.00  0.00     0.104 A 
ATOM      5  C   UNL d   1     -47.818  13.801  22.771  0.00  0.00     0.041 A 
ENDROOT
BRANCH   4   6
ATOM      6  C   UNL d   1     -46.592  12.994  22.640  0.00  0.00     0.019 A 
ATOM      7  C   UNL d   1     -46.218  12.331  22.978  0.00  0.00     0.003 A 
ATOM      8  C   UNL d   1     -45.405  12.244  22.909  0.00  0.00     0.020 A 
ATOM      9  C   UNL d   1     -44.953  12.809  22.507  0.00  0.00     0.093 A 
ATOM     10  C   UNL d   1     -45.329  13.469  22.171  0.00  0.00     0.020 A 
ATOM     11  C   UNL d   1     -46.152  13.560  22.239  0.00  0.00     0.003 A 
BRANCH   9  12
ATOM     12  N   UNL d   1     -44.134  12.727  22.434  0.00  0.00    -0.162 NA
BRANCH  12  13
ATOM     13  S   UNL d   1     -43.778  12.683  21.696  0.00  0.00     0.266 S 
ATOM     14  O   UNL d   1     -43.634  11.904  21.946  0.00  0.00    -0.203 OA
ATOM     15  O   UNL d   1     -43.369  12.327  21.068  0.00  0.00    -0.203 OA
ATOM     16  C   UNL d   1     -43.908  13.451  21.424  0.00  0.00     0.165 C 
ENDBRANCH  12  13
ENDBRANCH   9  12
ENDBRANCH   4   6
BRANCH   1  17
ATOM     17  S   UNL d   1     -49.435  12.399  22.836  0.00  0.00     0.287 S 
ATOM     18  O   UNL d   1     -50.096  12.074  22.462  0.00  0.00    -0.198 OA
ATOM     19  O   UNL d   1     -49.151  12.669  22.107  0.00  0.00    -0.198 OA
BRANCH  17  20
ATOM     20  C   UNL d   1     -49.659  12.161  23.587  0.00  0.00     0.118 C 
ATOM     21  C   UNL d   1     -50.145  11.493  23.678  0.00  0.00     0.014 C 
ENDBRANCH  17  20
ENDBRANCH   1  17
BRANCH   3  22
ATOM     22  C   UNL d   1     -49.229  14.189  22.898  0.00  0.00     0.019 A 
ATOM     23  C   UNL d   1     -49.657  14.407  22.227  0.00  0.00     0.004 A 
ATOM     24  C   UNL d   1     -50.269  14.958  22.292  0.00  0.00     0.030 A 
ATOM     25  C   UNL d   1     -50.443  15.282  23.022  0.00  0.00     0.140 A 
ATOM     26  C   UNL d   1     -50.020  15.067  23.683  0.00  0.00     0.030 A 
ATOM     27  F   UNL d   1     -51.061  15.839  23.085  0.00  0.00    -0.204 F 
ATOM     28  C   UNL d   1     -49.412  14.521  23.629  0.00  0.00     0.004 A 
ENDBRANCH   3  22
TORSDOF 6
ENDMDL
MODEL 2
REMARK VINA RESULT:      -6.6      8.923      9.962
REMARK  6 active torsions:
REMARK  status: ('A' for Active; 'I' for Inactive)
REMARK    1  A    between atoms: S_3  and  N_1 
REMARK    2  A    between atoms: C_19  and  S_3 
REMARK    3  A    between atoms: S_4  and  N_8 
REMARK    4  A    between atoms: C_11  and  C_5 
REMARK    5  A    between atoms: C_12  and  C_6 
REMARK    6  A    between atoms: N_8  and  C_20 
ROOT
ATOM      1  N   UNL d   1     -39.934  14.636  18.316  0.00  0.00    -0.152 N 
ATOM      2  N   UNL d   1     -39.991  14.623  19.144  0.00  0.00    -0.155 NA
ATOM      3  C   UNL d   1     -39.150  14.436  18.115  0.00  0.00     0.096 A 
ATOM      4  C   UNL d   1     -39.253  14.417  19.453  0.00  0.00     0.104 A 
ATOM      5  C   UNL d   1     -38.738  14.303  18.815  0.00  0.00     0.041 A 
ENDROOT
BRANCH   4   6
ATOM      6  C   UNL d   1     -39.063  14.340  20.251  0.00  0.00     0.019 A 
ATOM      7  C   UNL d   1     -38.384  13.914  20.478  0.00  0.00     0.003 A 
ATOM      8  C   UNL d   1     -38.197  13.838  21.273  0.00  0.00     0.020 A 
ATOM      9  C   UNL d   1     -38.679  14.182  21.853  0.00  0.00     0.093 A 
ATOM     10  C   UNL d   1     -39.355  14.606  21.624  0.00  0.00     0.020 A 
ATOM     11  C   UNL d   1     -39.546  14.684  20.820  0.00  0.00     0.003 A 
BRANCH   9  12
ATOM     12  N   UNL d   1     -38.496  14.109  22.656  0.00  0.00    -0.162 NA
BRANCH  12  13
ATOM     13  S   UNL d   1     -38.592  13.395  23.047  0.00  0.00     0.266 S 
ATOM     14  O   UNL d   1     -39.251  13.794  23.359  0.00  0.00    -0.203 OA
ATOM     15  O   UNL d   1     -38.953  12.850  23.559  0.00  0.00    -0.203 OA
ATOM     16  C   UNL d   1     -37.945  12.976  22.753  0.00  0.00     0.165 C 
ENDBRANCH  12  13
ENDBRANCH   9  12
ENDBRANCH   4   6
BRANCH   1  17
ATOM     17  S   UNL d   1     -40.548  14.816  17.793  0.00  0.00     0.287 S 
ATOM     18  O   UNL d   1     -41.181  14.575  17.320  0.00  0.00    -0.198 OA
ATOM     19  O   UNL d   1     -40.415  14.031  18.022  0.00  0.00    -0.198 OA
BRANCH  17  20
ATOM     20  C   UNL d   1     -40.625  15.610  17.608  0.00  0.00     0.118 C 
ATOM     21  C   UNL d   1     -41.364  15.908  17.374  0.00  0.00     0.014 C 
ENDBRANCH  17  20
ENDBRANCH   1  17
BRANCH   3  22
ATOM     22  C   UNL d   1     -38.854  14.384  17.353  0.00  0.00     0.019 A 
ATOM     23  C   UNL d   1     -38.870  13.657  16.963  0.00  0.00     0.004 A 
ATOM     24  C   UNL d   1     -38.573  13.597  16.194  0.00  0.00     0.030 A 
ATOM     25  C   UNL d   1     -38.267  14.261  15.828  0.00  0.00     0.140 A 
ATOM     26  C   UNL d   1     -38.251  14.977  16.214  0.00  0.00     0.030 A 
ATOM     27  F   UNL d   1     -37.967  14.199  15.052  0.00  0.00    -0.204 F 
ATOM     28  C   UNL d   1     -38.543  15.046  16.976  0.00  0.00     0.004 A 
ENDBRANCH   3  22
TORSDOF 6
ENDMDL
MODEL 3
REMARK VINA RESULT:      -6.4      1.106      1.494
REMARK  6 active torsions:
REMARK  status: ('A' for Active; 'I' for Inactive)
REMARK    1  A    between atoms: S_3  and  N_1 
REMARK    2  A    between atoms: C_19  and  S_3 
REMARK    3  A    between atoms: S_4  and  N_8 
REMARK    4  A    between atoms: C_11  and  C_5 
REMARK    5  A    between atoms: C_12  and  C_6 
REMARK    6  A    between atoms: N_8  and  C_20 
ROOT
ATOM      1  N   UNL d   1     -48.942  12.750  22.444  0.00  0.00    -0.152 N 
ATOM      2  N   UNL d   1     -48.249  12.293  22.428  0.00  0.00    -0.155 NA
ATOM      3  C   UNL d   1     -48.767  13.458  22.846  0.00  0.00     0.096 A 
ATOM      4  C   UNL d   1     -47.651  12.713  22.814  0.00  0.00     0.104 A 
ATOM      5  C   UNL d   1     -47.975  13.431  23.070  0.00  0.00     0.041 A 
ENDROOT
BRANCH   4   6
ATOM      6  C   UNL d   1     -46.874  12.463  22.925  0.00  0.00     0.019 A 
ATOM      7  C   UNL d   1     -46.249  12.876  22.560  0.00  0.00     0.003 A 
ATOM      8  C   UNL d   1     -45.476  12.625  22.671  0.00  0.00     0.020 A 
ATOM      9  C   UNL d   1     -45.311  11.966  23.144  0.00  0.00     0.093 A 
ATOM     10  C   UNL d   1     -45.936  11.556  23.506  0.00  0.00     0.020 A 
ATOM     11  C   UNL d   1     -46.719  11.808  23.395  0.00  0.00     0.003 A 
BRANCH   9  12
ATOM     12  N   UNL d   1     -44.534  11.708  23.260  0.00  0.00    -0.162 NA
BRANCH  12  13
ATOM     13  S   UNL d   1     -44.339  10.914  23.199  0.00  0.00     0.266 S 
ATOM     14  O   UNL d   1     -43.697  11.229  22.777  0.00  0.00    -0.203 OA
ATOM     15  O   UNL d   1     -43.889  10.256  22.970  0.00  0.00    -0.203 OA
ATOM     16  C   UNL d   1     -44.967  10.576  23.615  0.00  0.00     0.165 C 
ENDBRANCH  12  13
ENDBRANCH   9  12
ENDBRANCH   4   6
BRANCH   1  17
ATOM     17  S   UNL d   1     -49.670  12.532  22.118  0.00  0.00     0.287 S 
ATOM     18  O   UNL d   1     -50.422  12.200  22.201  0.00  0.00    -0.198 OA
ATOM     19  O   UNL d   1     -49.516  12.390  22.919  0.00  0.00    -0.198 OA
BRANCH  17  20
ATOM     20  C   UNL d   1     -49.759  12.701  21.322  0.00  0.00     0.118 C 
ATOM     21  C   UNL d   1     -50.302  12.267  20.868  0.00  0.00     0.014 C 
ENDBRANCH  17  20
ENDBRANCH   1  17
BRANCH   3  22
ATOM     22  C   UNL d   1     -49.296  14.067  22.986  0.00  0.00     0.019 A 
ATOM     23  C   UNL d   1     -49.248  14.757  22.537  0.00  0.00     0.004 A 
ATOM     24  C   UNL d   1     -49.778  15.375  22.673  0.00  0.00     0.030 A 
ATOM     25  C   UNL d   1     -50.347  15.296  23.254  0.00  0.00     0.140 A 
ATOM     26  C   UNL d   1     -50.395  14.615  23.698  0.00  0.00     0.030 A 
ATOM     27  F   UNL d   1     -50.883  15.921  23.391  0.00  0.00    -0.204 F 
ATOM     28  C   UNL d   1     -49.874  13.997  23.570  0.00  0.00     0.004 A 
ENDBRANCH   3  22
TORSDOF 6
ENDMDL
MODEL 4
REMARK VINA RESULT:      -6.0      1.433      2.057
REMARK  6 active torsions:
REMARK  status: ('A' for Active; 'I' for Inactive)
REMARK    1  A    between atoms: S_3  and  N_1 
REMARK    2  A    between atoms: C_19  and  S_3 
REMARK    3  A    between atoms: S_4  and  N_8 
REMARK    4  A    between atoms: C_11  and  C_5 
REMARK    5  A    between atoms: C_12  and  C_6 
REMARK    6  A    between atoms: N_8  and  C_20 
ROOT
ATOM      1  N   UNL d   1     -47.981  13.795  22.763  0.00  0.00    -0.152 N 
ATOM      2  N   UNL d   1     -47.169  13.909  22.636  0.00  0.00    -0.155 NA
ATOM      3  C   UNL d   1     -48.125  12.974  22.753  0.00  0.00     0.096 A 
ATOM      4  C   UNL d   1     -46.813  13.168  22.549  0.00  0.00     0.104 A 
ATOM      5  C   UNL d   1     -47.406  12.595  22.621  0.00  0.00     0.041 A 
ENDROOT
BRANCH   4   6
ATOM      6  C   UNL d   1     -46.013  13.026  22.413  0.00  0.00     0.019 A 
ATOM      7  C   UNL d   1     -45.655  12.340  22.723  0.00  0.00     0.003 A 
ATOM      8  C   UNL d   1     -44.858  12.200  22.587  0.00  0.00     0.020 A 
ATOM      9  C   UNL d   1     -44.406  12.735  22.145  0.00  0.00     0.093 A 
ATOM     10  C   UNL d   1     -44.766  13.418  21.837  0.00  0.00     0.020 A 
ATOM     11  C   UNL d   1     -45.572  13.561  21.974  0.00  0.00     0.003 A 
BRANCH   9  12
ATOM     12  N   UNL d   1     -43.602  12.600  22.004  0.00  0.00    -0.162 NA
BRANCH  12  13
ATOM     13  S   UNL d   1     -43.261  12.798  21.286  0.00  0.00     0.266 S 
ATOM     14  O   UNL d   1     -43.538  12.041  21.084  0.00  0.00    -0.203 OA
ATOM     15  O   UNL d   1     -43.035  12.689  20.495  0.00  0.00    -0.203 OA
ATOM     16  C   UNL d   1     -42.975  13.552  21.461  0.00  0.00     0.165 C 
ENDBRANCH  12  13
ENDBRANCH   9  12
ENDBRANCH   4   6
BRANCH   1  17
ATOM     17  S   UNL d   1     -48.540  14.394  22.878  0.00  0.00     0.287 S 
ATOM     18  O   UNL d   1     -48.979  14.878  23.384  0.00  0.00    -0.198 OA
ATOM     19  O   UNL d   1     -48.181  14.032  23.530  0.00  0.00    -0.198 OA
BRANCH  17  20
ATOM     20  C   UNL d   1     -48.857  14.710  22.192  0.00  0.00     0.118 C 
ATOM     21  C   UNL d   1     -49.142  15.490  22.191  0.00  0.00     0.014 C 
ENDBRANCH  17  20
ENDBRANCH   1  17
BRANCH   3  22
ATOM     22  C   UNL d   1     -48.856  12.619  22.857  0.00  0.00     0.019 A 
ATOM     23  C   UNL d   1     -49.288  12.383  22.195  0.00  0.00     0.004 A 
ATOM     24  C   UNL d   1     -50.026  12.024  22.292  0.00  0.00     0.030 A 
ATOM     25  C   UNL d   1     -50.319  11.907  23.045  0.00  0.00     0.140 A 
ATOM     26  C   UNL d   1     -49.893  12.140  23.698  0.00  0.00     0.030 A 
ATOM     27  F   UNL d   1     -51.064  11.544  23.142  0.00  0.00    -0.204 F 
ATOM     28  C   UNL d   1     -49.161  12.496  23.612  0.00  0.00     0.004 A 
ENDBRANCH   3  22
TORSDOF 6
ENDMDL
