MODEL 1
REMARK VINA RESULT:      46.8      0.000      0.000
REMARK  1 active torsions:
REMARK  status: ('A' for Active; 'I' for Inactive)
REMARK    1  A    between atoms: C_10  and  C_4 
ROOT
ATOM      1  C   UNL d   1     -57.247 -98.889 -44.227  0.00  0.00     0.111 A 
ATOM      2  C   UNL d   1     -58.592 -98.829 -43.711  0.00  0.00     0.062 A 
ATOM      3  C   UNL d   1     -56.950 -98.877 -43.477  0.00  0.00     0.213 A 
ATOM      4  C   UNL d   1     -58.090 -98.865 -44.360  0.00  0.00     0.018 A 
ATOM      5  C   UNL d   1     -58.271 -98.817 -42.922  0.00  0.00     0.105 A 
ATOM      6  O   UNL d   1     -57.490 -98.840 -42.805  0.00  0.00    -0.287 OA
ATOM      7  C   UNL d   1     -56.748 -98.924 -44.873  0.00  0.00     0.105 C 
ATOM      8  C   UNL d   1     -59.410 -98.805 -43.804  0.00  0.00     0.198 A 
ATOM      9  N   UNL d   1     -56.238 -98.960 -45.531  0.00  0.00    -0.191 NA
ATOM     10  N   UNL d   1     -56.114 -98.901 -43.329  0.00  0.00    -0.120 N 
ATOM     11  O   UNL d   1     -59.680 -98.818 -44.581  0.00  0.00    -0.286 OA
ATOM     12  C   UNL d   1     -58.780 -98.782 -42.264  0.00  0.00     0.025 A 
ATOM     13  C   UNL d   1     -59.909 -98.770 -43.159  0.00  0.00     0.042 A 
ATOM     14  C   UNL d   1     -59.617 -98.757 -42.386  0.00  0.00     0.005 A 
ENDROOT
BRANCH   4  15
ATOM     15  C   UNL d   1     -58.410 -98.876 -45.107  0.00  0.00     0.001 A 
ATOM     16  C   UNL d   1     -59.221 -99.006 -45.226  0.00  0.00     0.000 A 
ATOM     17  C   UNL d   1     -59.535 -99.015 -45.988  0.00  0.00     0.000 A 
ATOM     18  C   UNL d   1     -59.055 -98.896 -46.645  0.00  0.00     0.000 A 
ATOM     19  C   UNL d   1     -58.244 -98.765 -46.527  0.00  0.00     0.000 A 
ATOM     20  C   UNL d   1     -57.930 -98.757 -45.764  0.00  0.00     0.000 A 
ENDBRANCH   4  15
TORSDOF 1
ENDMDL
MODEL 2
REMARK VINA RESULT:      47.4      1.289      2.787
REMARK  1 active torsions:
REMARK  status: ('A' for Active; 'I' for Inactive)
REMARK    1  A    between atoms: C_10  and  C_4 
ROOT
ATOM      1  C   UNL d   1     -58.449 -98.887 -42.965  0.00  0.00     0.111 A 
ATOM      2  C   UNL d   1     -58.607 -98.824 -44.397  0.00  0.00     0.062 A 
ATOM      3  C   UNL d   1     -59.250 -98.906 -42.869  0.00  0.00     0.213 A 
ATOM      4  C   UNL d   1     -58.106 -98.845 -43.746  0.00  0.00     0.018 A 
ATOM      5  C   UNL d   1     -59.452 -98.844 -44.288  0.00  0.00     0.105 A 
ATOM      6  O   UNL d   1     -59.763 -98.883 -43.564  0.00  0.00    -0.287 OA
ATOM      7  C   UNL d   1     -57.951 -98.908 -42.318  0.00  0.00     0.105 C 
ATOM      8  C   UNL d   1     -58.309 -98.783 -45.164  0.00  0.00     0.198 A 
ATOM      9  N   UNL d   1     -57.444 -98.929 -41.657  0.00  0.00    -0.191 NA
ATOM     10  N   UNL d   1     -59.605 -98.948 -42.099  0.00  0.00    -0.120 N 
ATOM     11  O   UNL d   1     -57.489 -98.766 -45.227  0.00  0.00    -0.286 OA
ATOM     12  C   UNL d   1     -59.959 -98.823 -44.948  0.00  0.00     0.025 A 
ATOM     13  C   UNL d   1     -58.807 -98.763 -45.811  0.00  0.00     0.042 A 
ATOM     14  C   UNL d   1     -59.628 -98.781 -45.726  0.00  0.00     0.005 A 
ENDROOT
BRANCH   4  15
ATOM     15  C   UNL d   1     -57.303 -98.825 -43.864  0.00  0.00     0.001 A 
ATOM     16  C   UNL d   1     -56.980 -98.847 -44.629  0.00  0.00     0.000 A 
ATOM     17  C   UNL d   1     -56.163 -98.826 -44.737  0.00  0.00     0.000 A 
ATOM     18  C   UNL d   1     -55.651 -98.783 -44.096  0.00  0.00     0.000 A 
ATOM     19  C   UNL d   1     -55.973 -98.761 -43.330  0.00  0.00     0.000 A 
ATOM     20  C   UNL d   1     -56.791 -98.782 -43.222  0.00  0.00     0.000 A 
ENDBRANCH   4  15
TORSDOF 1
ENDMDL
