MODEL 1
REMARK VINA RESULT:      -3.4      0.000      0.000
REMARK  6 active torsions:
REMARK  status: ('A' for Active; 'I' for Inactive)
REMARK    1  A    between atoms: C_5  and  S_1 
REMARK    2  A    between atoms: N_6  and  S_1 
REMARK       I    between atoms: N_2  and  C_3 
REMARK    3  A    between atoms: C_3  and  C_14 
REMARK    4  A    between atoms: C_4  and  C_7 
REMARK    5  A    between atoms: C_23  and  N_6 
REMARK    6  A    between atoms: C_24  and  C_23 
ROOT
ATOM      1  C   UNL d   1      32.217  17.795 -23.942  0.00  0.00     0.057 A 
ATOM      2  C   UNL d   1      32.536  18.285 -24.525  0.00  0.00     0.005 A 
ATOM      3  C   UNL d   1      32.214  18.043 -23.154  0.00  0.00     0.005 A 
ATOM      4  C   UNL d   1      32.844  19.263 -23.535  0.00  0.00     0.020 A 
ATOM      5  C   UNL d   1      32.848  19.016 -24.323  0.00  0.00     0.002 A 
ATOM      6  C   UNL d   1      32.528  18.777 -22.951  0.00  0.00     0.002 A 
ENDROOT
BRANCH   4   7
ATOM      7  C   UNL d   1      33.158  19.997 -23.331  0.00  0.00     0.112 C 
BRANCH   7   8
ATOM      8  N   UNL d   1      33.238  20.203 -22.541  0.00  0.00    -0.157 NA
BRANCH   8   9
ATOM      9  S   UNL d   1      33.119  20.997 -22.309  0.00  0.00     0.285 S 
ATOM     10  O   UNL d   1      33.000  20.740 -21.521  0.00  0.00    -0.198 OA
ATOM     11  O   UNL d   1      33.238  21.244 -23.085  0.00  0.00    -0.198 OA
BRANCH   9  12
ATOM     12  C   UNL d   1      33.001  21.776 -22.070  0.00  0.00     0.105 A 
ATOM     13  C   UNL d   1      32.740  21.940 -21.310  0.00  0.00     0.017 A 
ATOM     14  C   UNL d   1      32.621  22.721 -21.070  0.00  0.00     0.072 A 
ATOM     15  C   UNL d   1      32.767  23.339 -21.603  0.00  0.00     0.004 A 
ATOM     16  C   UNL d   1      33.028  23.175 -22.364  0.00  0.00     0.001 A 
ATOM     17  C   UNL d   1      33.144  22.394 -22.594  0.00  0.00     0.013 A 
BRANCH  14  18
ATOM     18  C   UNL d   1      32.359  22.888 -20.310  0.00  0.00     0.419 C 
ATOM     19  F   UNL d   1      33.102  22.688 -20.008  0.00  0.00    -0.166 F 
ATOM     20  F   UNL d   1      31.612  23.090 -20.609  0.00  0.00    -0.166 F 
ATOM     21  F   UNL d   1      32.094  23.058 -19.542  0.00  0.00    -0.166 F 
ENDBRANCH  14  18
ENDBRANCH   9  12
ENDBRANCH   8   9
ENDBRANCH   7   8
ENDBRANCH   4   7
BRANCH   1  22
ATOM     22  C   UNL d   1      31.899  17.049 -24.147  0.00  0.00     0.265 C 
ATOM     23  N   UNL d   1      31.108  16.992 -24.390  0.00  0.00    -0.268 N 
ATOM     24  C   UNL d   1      30.638  17.669 -24.429  0.00  0.00     0.108 A 
ATOM     25  C   UNL d   1      30.796  16.256 -24.592  0.00  0.00     0.108 A 
ATOM     26  C   UNL d   1      29.846  17.609 -24.673  0.00  0.00     0.118 A 
ATOM     27  C   UNL d   1      29.372  18.289 -24.713  0.00  0.00     0.028 C 
ATOM     28  O   UNL d   1      29.534  16.872 -24.875  0.00  0.00    -0.304 OA
ATOM     29  C   UNL d   1      30.001  16.191 -24.838  0.00  0.00     0.118 A 
ATOM     30  C   UNL d   1      29.684  15.454 -25.041  0.00  0.00     0.028 C 
ATOM     31  O   UNL d   1      32.374  16.372 -24.107  0.00  0.00    -0.267 OA
ENDBRANCH   1  22
TORSDOF 6
ENDMDL
MODEL 2
REMARK VINA RESULT:      -1.2      2.941      6.150
REMARK  6 active torsions:
REMARK  status: ('A' for Active; 'I' for Inactive)
REMARK    1  A    between atoms: C_5  and  S_1 
REMARK    2  A    between atoms: N_6  and  S_1 
REMARK       I    between atoms: N_2  and  C_3 
REMARK    3  A    between atoms: C_3  and  C_14 
REMARK    4  A    between atoms: C_4  and  C_7 
REMARK    5  A    between atoms: C_23  and  N_6 
REMARK    6  A    between atoms: C_24  and  C_23 
ROOT
ATOM      1  C   UNL d   1      33.056  20.617 -21.384  0.00  0.00     0.057 A 
ATOM      2  C   UNL d   1      33.185  20.937 -22.135  0.00  0.00     0.005 A 
ATOM      3  C   UNL d   1      32.984  19.800 -21.293  0.00  0.00     0.005 A 
ATOM      4  C   UNL d   1      33.169  19.627 -22.696  0.00  0.00     0.020 A 
ATOM      5  C   UNL d   1      33.241  20.444 -22.788  0.00  0.00     0.002 A 
ATOM      6  C   UNL d   1      33.041  19.304 -21.950  0.00  0.00     0.002 A 
ENDROOT
BRANCH   4   7
ATOM      7  C   UNL d   1      33.225  19.132 -23.352  0.00  0.00     0.112 C 
BRANCH   7   8
ATOM      8  N   UNL d   1      32.558  18.969 -23.801  0.00  0.00    -0.157 NA
BRANCH   8   9
ATOM      9  S   UNL d   1      32.429  18.193 -24.080  0.00  0.00     0.285 S 
ATOM     10  O   UNL d   1      31.610  18.356 -24.133  0.00  0.00    -0.198 OA
ATOM     11  O   UNL d   1      33.236  18.037 -24.027  0.00  0.00    -0.198 OA
BRANCH   9  12
ATOM     12  C   UNL d   1      32.291  17.429 -24.356  0.00  0.00     0.105 A 
ATOM     13  C   UNL d   1      31.590  17.045 -24.176  0.00  0.00     0.017 A 
ATOM     14  C   UNL d   1      31.452  16.280 -24.452  0.00  0.00     0.072 A 
ATOM     15  C   UNL d   1      32.027  15.901 -24.914  0.00  0.00     0.004 A 
ATOM     16  C   UNL d   1      32.729  16.285 -25.095  0.00  0.00     0.001 A 
ATOM     17  C   UNL d   1      32.859  17.049 -24.815  0.00  0.00     0.013 A 
BRANCH  14  18
ATOM     18  C   UNL d   1      30.750  15.892 -24.273  0.00  0.00     0.419 C 
ATOM     19  F   UNL d   1      30.455  16.075 -25.023  0.00  0.00    -0.166 F 
ATOM     20  F   UNL d   1      31.043  15.705 -23.519  0.00  0.00    -0.166 F 
ATOM     21  F   UNL d   1      30.041  15.499 -24.091  0.00  0.00    -0.166 F 
ENDBRANCH  14  18
ENDBRANCH   9  12
ENDBRANCH   8   9
ENDBRANCH   7   8
ENDBRANCH   4   7
BRANCH   1  22
ATOM     22  C   UNL d   1      32.999  21.119 -20.717  0.00  0.00     0.265 C 
ATOM     23  N   UNL d   1      32.778  21.912 -20.817  0.00  0.00    -0.268 N 
ATOM     24  C   UNL d   1      32.616  22.205 -21.572  0.00  0.00     0.108 A 
ATOM     25  C   UNL d   1      32.722  22.405 -20.158  0.00  0.00     0.108 A 
ATOM     26  C   UNL d   1      32.396  23.000 -21.668  0.00  0.00     0.118 A 
ATOM     27  C   UNL d   1      32.233  23.295 -22.426  0.00  0.00     0.028 C 
ATOM     28  O   UNL d   1      32.340  23.493 -21.009  0.00  0.00    -0.304 OA
ATOM     29  C   UNL d   1      32.501  23.204 -20.251  0.00  0.00     0.118 A 
ATOM     30  C   UNL d   1      32.444  23.702 -19.592  0.00  0.00     0.028 C 
ATOM     31  O   UNL d   1      33.162  20.821 -19.962  0.00  0.00    -0.267 OA
ENDBRANCH   1  22
TORSDOF 6
ENDMDL
