MODEL 1
REMARK VINA RESULT:      -8.2      0.000      0.000
REMARK  5 active torsions:
REMARK  status: ('A' for Active; 'I' for Inactive)
REMARK    1  A    between atoms: C_16  and  N_2 
REMARK    2  A    between atoms: S_9  and  C_4 
REMARK    3  A    between atoms: C_17  and  S_9 
REMARK    4  A    between atoms: C_10  and  C_17 
REMARK       I    between atoms: N_12  and  C_10 
REMARK    5  A    between atoms: C_14  and  N_12 
ROOT
ATOM      1  C   UNL d   1      51.559  34.427  53.376  0.00  0.00     0.104 A 
ATOM      2  N   UNL d   1      52.823  34.239  54.009  0.00  0.00    -0.252 N 
ATOM      3  C   UNL d   1      52.178  34.728  53.812  0.00  0.00     0.274 A 
ATOM      4  C   UNL d   1      52.830  33.453  53.760  0.00  0.00     0.182 A 
ATOM      5  C   UNL d   1      51.566  33.641  53.128  0.00  0.00     0.095 A 
ATOM      6  N   UNL d   1      52.192  33.154  53.315  0.00  0.00    -0.222 NA
ATOM      7  S   UNL d   1      50.862  34.771  53.105  0.00  0.00    -0.081 SA
ATOM      8  C   UNL d   1      50.874  33.499  52.704  0.00  0.00     0.026 A 
ATOM      9  O   UNL d   1      52.170  35.514  54.060  0.00  0.00    -0.266 OA
ATOM     10  C   UNL d   1      50.441  34.192  52.689  0.00  0.00     0.031 A 
ATOM     11  C   UNL d   1      49.710  34.287  52.319  0.00  0.00     0.007 C 
ENDROOT
BRANCH   4  12
ATOM     12  S   UNL d   1      53.471  32.955  53.952  0.00  0.00    -0.044 SA
BRANCH  12  13
ATOM     13  C   UNL d   1      53.547  32.224  53.576  0.00  0.00     0.101 C 
BRANCH  13  14
ATOM     14  C   UNL d   1      54.293  31.950  53.352  0.00  0.00     0.286 C 
ATOM     15  N   UNL d   1      54.417  31.144  53.232  0.00  0.00    -0.208 NA
ATOM     16  O   UNL d   1      54.914  32.484  53.248  0.00  0.00    -0.265 OA
BRANCH  15  17
ATOM     17  C   UNL d   1      53.796  30.611  53.336  0.00  0.00     0.085 A 
ATOM     18  C   UNL d   1      53.761  30.155  54.013  0.00  0.00     0.019 A 
ATOM     19  C   UNL d   1      53.140  29.623  54.116  0.00  0.00     0.002 A 
ATOM     20  C   UNL d   1      53.103  29.154  54.811  0.00  0.00     0.000 C 
ATOM     21  C   UNL d   1      52.560  29.552  53.540  0.00  0.00     0.000 A 
ATOM     22  C   UNL d   1      52.598  30.014  52.858  0.00  0.00     0.002 A 
ATOM     23  C   UNL d   1      53.216  30.541  52.759  0.00  0.00     0.019 A 
ENDBRANCH  15  17
ENDBRANCH  13  14
ENDBRANCH  12  13
ENDBRANCH   4  12
BRANCH   2  24
ATOM     24  C   UNL d   1      53.457  34.542  54.453  0.00  0.00     0.085 C 
ATOM     25  C   UNL d   1      53.328  34.810  55.223  0.00  0.00     0.021 C 
ENDBRANCH   2  24
TORSDOF 5
ENDMDL
MODEL 2
REMARK VINA RESULT:      -7.6      1.340      4.066
REMARK  5 active torsions:
REMARK  status: ('A' for Active; 'I' for Inactive)
REMARK    1  A    between atoms: C_16  and  N_2 
REMARK    2  A    between atoms: S_9  and  C_4 
REMARK    3  A    between atoms: C_17  and  S_9 
REMARK    4  A    between atoms: C_10  and  C_17 
REMARK       I    between atoms: N_12  and  C_10 
REMARK    5  A    between atoms: C_14  and  N_12 
ROOT
ATOM      1  C   UNL d   1      53.416  31.199  53.994  0.00  0.00     0.104 A 
ATOM      2  N   UNL d   1      53.678  32.510  54.492  0.00  0.00    -0.252 N 
ATOM      3  C   UNL d   1      53.662  31.684  54.600  0.00  0.00     0.274 A 
ATOM      4  C   UNL d   1      53.444  32.831  53.769  0.00  0.00     0.182 A 
ATOM      5  C   UNL d   1      53.181  31.521  53.271  0.00  0.00     0.095 A 
ATOM      6  N   UNL d   1      53.193  32.327  53.155  0.00  0.00    -0.222 NA
ATOM      7  S   UNL d   1      53.343  30.382  53.941  0.00  0.00    -0.081 SA
ATOM      8  C   UNL d   1      52.963  30.902  52.773  0.00  0.00     0.026 A 
ATOM      9  O   UNL d   1      53.897  31.362  55.322  0.00  0.00    -0.266 OA
ATOM     10  C   UNL d   1      53.062  30.202  53.183  0.00  0.00     0.031 A 
ATOM     11  C   UNL d   1      52.906  29.449  52.882  0.00  0.00     0.007 C 
ENDROOT
BRANCH   4  12
ATOM     12  S   UNL d   1      53.456  33.656  53.651  0.00  0.00    -0.044 SA
BRANCH  12  13
ATOM     13  C   UNL d   1      52.783  34.037  53.360  0.00  0.00     0.101 C 
BRANCH  13  14
ATOM     14  C   UNL d   1      52.791  34.853  53.238  0.00  0.00     0.286 C 
ATOM     15  N   UNL d   1      52.100  35.244  53.014  0.00  0.00    -0.208 NA
ATOM     16  O   UNL d   1      53.491  35.279  53.340  0.00  0.00    -0.265 OA
BRANCH  15  17
ATOM     17  C   UNL d   1      51.400  34.818  52.913  0.00  0.00     0.085 A 
ATOM     18  C   UNL d   1      51.155  34.613  52.161  0.00  0.00     0.019 A 
ATOM     19  C   UNL d   1      50.456  34.188  52.060  0.00  0.00     0.002 A 
ATOM     20  C   UNL d   1      50.203  33.977  51.289  0.00  0.00     0.000 C 
ATOM     21  C   UNL d   1      50.010  33.971  52.714  0.00  0.00     0.000 A 
ATOM     22  C   UNL d   1      50.261  34.179  53.471  0.00  0.00     0.002 A 
ATOM     23  C   UNL d   1      50.954  34.601  53.567  0.00  0.00     0.019 A 
ENDBRANCH  15  17
ENDBRANCH  13  14
ENDBRANCH  12  13
ENDBRANCH   4  12
BRANCH   2  24
ATOM     24  C   UNL d   1      53.930  33.008  55.108  0.00  0.00     0.085 C 
ATOM     25  C   UNL d   1      54.735  33.080  55.276  0.00  0.00     0.021 C 
ENDBRANCH   2  24
TORSDOF 5
ENDMDL
MODEL 3
REMARK VINA RESULT:      -7.4      1.375      2.669
REMARK  5 active torsions:
REMARK  status: ('A' for Active; 'I' for Inactive)
REMARK    1  A    between atoms: C_16  and  N_2 
REMARK    2  A    between atoms: S_9  and  C_4 
REMARK    3  A    between atoms: C_17  and  S_9 
REMARK    4  A    between atoms: C_10  and  C_17 
REMARK       I    between atoms: N_12  and  C_10 
REMARK    5  A    between atoms: C_14  and  N_12 
ROOT
ATOM      1  C   UNL d   1      53.578  33.651  54.410  0.00  0.00     0.104 A 
ATOM      2  N   UNL d   1      52.569  33.111  53.558  0.00  0.00    -0.252 N 
ATOM      3  C   UNL d   1      52.846  33.716  54.060  0.00  0.00     0.274 A 
ATOM      4  C   UNL d   1      53.041  32.449  53.419  0.00  0.00     0.182 A 
ATOM      5  C   UNL d   1      54.049  32.988  54.271  0.00  0.00     0.095 A 
ATOM      6  N   UNL d   1      53.789  32.391  53.782  0.00  0.00    -0.222 NA
ATOM      7  S   UNL d   1      53.987  34.149  54.920  0.00  0.00    -0.081 SA
ATOM      8  C   UNL d   1      54.750  33.078  54.695  0.00  0.00     0.026 A 
ATOM      9  O   UNL d   1      52.374  34.379  54.198  0.00  0.00    -0.266 OA
ATOM     10  C   UNL d   1      54.714  33.790  55.094  0.00  0.00     0.031 A 
ATOM     11  C   UNL d   1      55.305  34.091  55.584  0.00  0.00     0.007 C 
ENDROOT
BRANCH   4  12
ATOM     12  S   UNL d   1      52.773  31.838  52.919  0.00  0.00    -0.044 SA
BRANCH  12  13
ATOM     13  C   UNL d   1      52.906  31.051  53.130  0.00  0.00     0.101 C 
BRANCH  13  14
ATOM     14  C   UNL d   1      52.908  30.463  52.550  0.00  0.00     0.286 C 
ATOM     15  N   UNL d   1      52.864  29.668  52.768  0.00  0.00    -0.208 NA
ATOM     16  O   UNL d   1      52.955  30.670  51.752  0.00  0.00    -0.265 OA
BRANCH  15  17
ATOM     17  C   UNL d   1      52.817  29.462  53.566  0.00  0.00     0.085 A 
ATOM     18  C   UNL d   1      53.472  29.149  53.943  0.00  0.00     0.019 A 
ATOM     19  C   UNL d   1      53.425  28.943  54.740  0.00  0.00     0.002 A 
ATOM     20  C   UNL d   1      54.095  28.623  55.128  0.00  0.00     0.000 C 
ATOM     21  C   UNL d   1      52.723  29.052  55.151  0.00  0.00     0.000 A 
ATOM     22  C   UNL d   1      52.065  29.367  54.767  0.00  0.00     0.002 A 
ATOM     23  C   UNL d   1      52.115  29.570  53.977  0.00  0.00     0.019 A 
ENDBRANCH  15  17
ENDBRANCH  13  14
ENDBRANCH  12  13
ENDBRANCH   4  12
BRANCH   2  24
ATOM     24  C   UNL d   1      51.822  33.174  53.199  0.00  0.00     0.085 C 
ATOM     25  C   UNL d   1      51.662  33.806  52.692  0.00  0.00     0.021 C 
ENDBRANCH   2  24
TORSDOF 5
ENDMDL
MODEL 4
REMARK VINA RESULT:      -5.8      1.788      4.402
REMARK  5 active torsions:
REMARK  status: ('A' for Active; 'I' for Inactive)
REMARK    1  A    between atoms: C_16  and  N_2 
REMARK    2  A    between atoms: S_9  and  C_4 
REMARK    3  A    between atoms: C_17  and  S_9 
REMARK    4  A    between atoms: C_10  and  C_17 
REMARK       I    between atoms: N_12  and  C_10 
REMARK    5  A    between atoms: C_14  and  N_12 
ROOT
ATOM      1  C   UNL d   1      52.868  29.958  53.754  0.00  0.00     0.104 A 
ATOM      2  N   UNL d   1      52.806  31.207  53.068  0.00  0.00    -0.252 N 
ATOM      3  C   UNL d   1      52.452  30.489  53.298  0.00  0.00     0.274 A 
ATOM      4  C   UNL d   1      53.578  31.375  53.305  0.00  0.00     0.182 A 
ATOM      5  C   UNL d   1      53.640  30.127  53.991  0.00  0.00     0.095 A 
ATOM      6  N   UNL d   1      53.996  30.826  53.772  0.00  0.00    -0.222 NA
ATOM      7  S   UNL d   1      52.666  29.221  54.058  0.00  0.00    -0.081 SA
ATOM      8  C   UNL d   1      53.914  29.493  54.441  0.00  0.00     0.026 A 
ATOM      9  O   UNL d   1      51.680  30.321  53.060  0.00  0.00    -0.266 OA
ATOM     10  C   UNL d   1      53.318  28.936  54.483  0.00  0.00     0.031 A 
ATOM     11  C   UNL d   1      53.366  28.217  54.884  0.00  0.00     0.007 C 
ENDROOT
BRANCH   4  12
ATOM     12  S   UNL d   1      53.942  32.091  53.081  0.00  0.00    -0.044 SA
BRANCH  12  13
ATOM     13  C   UNL d   1      54.211  32.611  53.663  0.00  0.00     0.101 C 
BRANCH  13  14
ATOM     14  C   UNL d   1      54.888  33.065  53.529  0.00  0.00     0.286 C 
ATOM     15  N   UNL d   1      54.975  33.796  53.903  0.00  0.00    -0.208 NA
ATOM     16  O   UNL d   1      55.477  32.788  53.022  0.00  0.00    -0.265 OA
BRANCH  15  17
ATOM     17  C   UNL d   1      54.385  34.073  54.410  0.00  0.00     0.085 A 
ATOM     18  C   UNL d   1      53.851  34.631  54.144  0.00  0.00     0.019 A 
ATOM     19  C   UNL d   1      53.262  34.907  54.651  0.00  0.00     0.002 A 
ATOM     20  C   UNL d   1      52.714  35.481  54.380  0.00  0.00     0.000 C 
ATOM     21  C   UNL d   1      53.214  34.621  55.419  0.00  0.00     0.000 A 
ATOM     22  C   UNL d   1      53.755  34.057  55.683  0.00  0.00     0.002 A 
ATOM     23  C   UNL d   1      54.337  33.786  55.177  0.00  0.00     0.019 A 
ENDBRANCH  15  17
ENDBRANCH  13  14
ENDBRANCH  12  13
ENDBRANCH   4  12
BRANCH   2  24
ATOM     24  C   UNL d   1      52.385  31.752  52.602  0.00  0.00     0.085 C 
ATOM     25  C   UNL d   1      51.669  32.059  52.876  0.00  0.00     0.021 C 
ENDBRANCH   2  24
TORSDOF 5
ENDMDL
MODEL 5
REMARK VINA RESULT:      -5.2      1.586      3.909
REMARK  5 active torsions:
REMARK  status: ('A' for Active; 'I' for Inactive)
REMARK    1  A    between atoms: C_16  and  N_2 
REMARK    2  A    between atoms: S_9  and  C_4 
REMARK    3  A    between atoms: C_17  and  S_9 
REMARK    4  A    between atoms: C_10  and  C_17 
REMARK       I    between atoms: N_12  and  C_10 
REMARK    5  A    between atoms: C_14  and  N_12 
ROOT
ATOM      1  C   UNL d   1      52.040  31.391  53.118  0.00  0.00     0.104 A 
ATOM      2  N   UNL d   1      51.516  32.713  53.229  0.00  0.00    -0.252 N 
ATOM      3  C   UNL d   1      51.402  31.888  53.213  0.00  0.00     0.274 A 
ATOM      4  C   UNL d   1      52.277  33.021  53.149  0.00  0.00     0.182 A 
ATOM      5  C   UNL d   1      52.801  31.699  53.038  0.00  0.00     0.095 A 
ATOM      6  N   UNL d   1      52.924  32.504  53.053  0.00  0.00    -0.222 NA
ATOM      7  S   UNL d   1      52.094  30.571  53.082  0.00  0.00    -0.081 SA
ATOM      8  C   UNL d   1      53.325  31.069  52.953  0.00  0.00     0.026 A 
ATOM      9  O   UNL d   1      50.641  31.580  53.293  0.00  0.00    -0.266 OA
ATOM     10  C   UNL d   1      52.893  30.376  52.980  0.00  0.00     0.031 A 
ATOM     11  C   UNL d   1      53.209  29.616  52.915  0.00  0.00     0.007 C 
ENDROOT
BRANCH   4  12
ATOM     12  S   UNL d   1      52.403  33.845  53.163  0.00  0.00    -0.044 SA
BRANCH  12  13
ATOM     13  C   UNL d   1      53.027  34.154  53.606  0.00  0.00     0.101 C 
BRANCH  13  14
ATOM     14  C   UNL d   1      53.059  34.964  53.764  0.00  0.00     0.286 C 
ATOM     15  N   UNL d   1      53.547  35.249  54.365  0.00  0.00    -0.208 NA
ATOM     16  O   UNL d   1      52.603  35.490  53.319  0.00  0.00    -0.265 OA
BRANCH  15  17
ATOM     17  C   UNL d   1      54.003  34.723  54.809  0.00  0.00     0.085 A 
ATOM     18  C   UNL d   1      54.731  34.480  54.529  0.00  0.00     0.019 A 
ATOM     19  C   UNL d   1      55.186  33.955  54.973  0.00  0.00     0.002 A 
ATOM     20  C   UNL d   1      55.934  33.706  54.688  0.00  0.00     0.000 C 
ATOM     21  C   UNL d   1      54.906  33.678  55.694  0.00  0.00     0.000 A 
ATOM     22  C   UNL d   1      54.171  33.925  55.973  0.00  0.00     0.002 A 
ATOM     23  C   UNL d   1      53.723  34.446  55.530  0.00  0.00     0.019 A 
ENDBRANCH  15  17
ENDBRANCH  13  14
ENDBRANCH  12  13
ENDBRANCH   4  12
BRANCH   2  24
ATOM     24  C   UNL d   1      50.867  33.224  53.325  0.00  0.00     0.085 C 
ATOM     25  C   UNL d   1      50.344  33.346  52.698  0.00  0.00     0.021 C 
ENDBRANCH   2  24
TORSDOF 5
ENDMDL
