MODEL 1
REMARK VINA RESULT:      -9.4      0.000      0.000
REMARK  5 active torsions:
REMARK  status: ('A' for Active; 'I' for Inactive)
REMARK    1  A    between atoms: C_5  and  C_1 
REMARK    2  A    between atoms: C_2  and  C_5 
REMARK    3  A    between atoms: C_7  and  C_2 
REMARK    4  A    between atoms: N_4  and  C_11 
REMARK       I    between atoms: N_12  and  C_7 
REMARK    5  A    between atoms: C_17  and  N_12 
ROOT
ATOM      1  C   UNL d   1      54.008  32.723  53.896  0.00  0.00     0.126 C 
ATOM      2  C   UNL d   1      54.671  32.987  54.297  0.00  0.00     0.106 C 
ATOM      3  N   UNL d   1      55.341  33.253  54.704  0.00  0.00    -0.191 NA
ENDROOT
BRANCH   1   4
ATOM      4  C   UNL d   1      53.667  33.196  53.307  0.00  0.00     0.017 C 
BRANCH   4   5
ATOM      5  C   UNL d   1      53.181  33.829  53.512  0.00  0.00     0.020 A 
ATOM      6  C   UNL d   1      53.329  34.371  54.121  0.00  0.00     0.080 A 
ATOM      7  N   UNL d   1      52.699  34.916  54.135  0.00  0.00    -0.303 N 
ATOM      8  C   UNL d   1      52.618  35.549  54.650  0.00  0.00     0.100 C 
ATOM      9  C   UNL d   1      52.164  34.705  53.533  0.00  0.00     0.064 A 
ATOM     10  C   UNL d   1      52.466  34.029  53.148  0.00  0.00     0.018 A 
ATOM     11  C   UNL d   1      51.449  35.033  53.284  0.00  0.00     0.018 A 
ATOM     12  C   UNL d   1      52.048  33.695  52.522  0.00  0.00     0.002 A 
ATOM     13  C   UNL d   1      51.337  34.027  52.280  0.00  0.00     0.000 A 
ATOM     14  C   UNL d   1      51.037  34.692  52.657  0.00  0.00     0.002 A 
ENDBRANCH   4   5
ENDBRANCH   1   4
BRANCH   1  15
ATOM     15  C   UNL d   1      53.677  31.985  54.075  0.00  0.00     0.289 C 
ATOM     16  N   UNL d   1      53.632  31.407  53.487  0.00  0.00    -0.207 NA
ATOM     17  O   UNL d   1      53.399  31.834  54.831  0.00  0.00    -0.264 OA
BRANCH  16  18
ATOM     18  C   UNL d   1      53.333  30.637  53.517  0.00  0.00     0.086 A 
ATOM     19  C   UNL d   1      53.587  30.121  54.099  0.00  0.00     0.043 A 
ATOM     20  C   UNL d   1      53.289  29.353  54.130  0.00  0.00     0.128 A 
ATOM     21  C   UNL d   1      52.728  29.108  53.565  0.00  0.00     0.024 A 
ATOM     22  C   UNL d   1      52.477  29.637  52.980  0.00  0.00     0.003 A 
ATOM     23  C   UNL d   1      52.781  30.398  52.961  0.00  0.00     0.019 A 
BRANCH  20  24
ATOM     24  N   UNL d   1      53.543  28.828  54.716  0.00  0.00    -0.114 N 
ATOM     25  O   UNL d   1      54.223  28.377  54.590  0.00  0.00    -0.532 OA
ATOM     26  O   UNL d   1      53.116  28.759  55.423  0.00  0.00    -0.532 OA
ENDBRANCH  20  24
ENDBRANCH  16  18
ENDBRANCH   1  15
TORSDOF 5
ENDMDL
MODEL 2
REMARK VINA RESULT:      -9.3      1.776      2.737
REMARK  5 active torsions:
REMARK  status: ('A' for Active; 'I' for Inactive)
REMARK    1  A    between atoms: C_5  and  C_1 
REMARK    2  A    between atoms: C_2  and  C_5 
REMARK    3  A    between atoms: C_7  and  C_2 
REMARK    4  A    between atoms: N_4  and  C_11 
REMARK       I    between atoms: N_12  and  C_7 
REMARK    5  A    between atoms: C_17  and  N_12 
ROOT
ATOM      1  C   UNL d   1      51.843  34.070  52.968  0.00  0.00     0.126 C 
ATOM      2  C   UNL d   1      52.162  34.781  53.220  0.00  0.00     0.106 C 
ATOM      3  N   UNL d   1      52.486  35.499  53.476  0.00  0.00    -0.191 NA
ENDROOT
BRANCH   1   4
ATOM      4  C   UNL d   1      51.288  34.062  52.354  0.00  0.00     0.017 C 
BRANCH   4   5
ATOM      5  C   UNL d   1      50.542  34.396  52.463  0.00  0.00     0.020 A 
ATOM      6  C   UNL d   1      50.266  34.737  53.166  0.00  0.00     0.080 A 
ATOM      7  N   UNL d   1      49.489  35.003  53.031  0.00  0.00    -0.303 N 
ATOM      8  C   UNL d   1      49.004  35.377  53.577  0.00  0.00     0.100 C 
ATOM      9  C   UNL d   1      49.289  34.823  52.243  0.00  0.00     0.064 A 
ATOM     10  C   UNL d   1      49.945  34.446  51.893  0.00  0.00     0.018 A 
ATOM     11  C   UNL d   1      48.605  34.951  51.800  0.00  0.00     0.018 A 
ATOM     12  C   UNL d   1      49.905  34.203  51.107  0.00  0.00     0.002 A 
ATOM     13  C   UNL d   1      49.221  34.333  50.672  0.00  0.00     0.000 A 
ATOM     14  C   UNL d   1      48.573  34.705  51.014  0.00  0.00     0.002 A 
ENDBRANCH   4   5
ENDBRANCH   1   4
BRANCH   1  15
ATOM     15  C   UNL d   1      52.074  33.359  53.325  0.00  0.00     0.289 C 
ATOM     16  N   UNL d   1      52.659  32.897  52.969  0.00  0.00    -0.207 NA
ATOM     17  O   UNL d   1      51.722  33.119  54.025  0.00  0.00    -0.264 OA
BRANCH  16  18
ATOM     18  C   UNL d   1      52.987  32.177  53.204  0.00  0.00     0.086 A 
ATOM     19  C   UNL d   1      52.675  31.473  52.925  0.00  0.00     0.043 A 
ATOM     20  C   UNL d   1      53.002  30.753  53.160  0.00  0.00     0.128 A 
ATOM     21  C   UNL d   1      53.651  30.749  53.682  0.00  0.00     0.024 A 
ATOM     22  C   UNL d   1      53.960  31.465  53.958  0.00  0.00     0.003 A 
ATOM     23  C   UNL d   1      53.626  32.173  53.718  0.00  0.00     0.019 A 
BRANCH  20  24
ATOM     24  N   UNL d   1      52.689  30.041  52.880  0.00  0.00    -0.114 N 
ATOM     25  O   UNL d   1      52.862  29.794  52.112  0.00  0.00    -0.532 OA
ATOM     26  O   UNL d   1      52.206  29.580  53.372  0.00  0.00    -0.532 OA
ENDBRANCH  20  24
ENDBRANCH  16  18
ENDBRANCH   1  15
TORSDOF 5
ENDMDL
MODEL 3
REMARK VINA RESULT:      -9.2      2.725      5.158
REMARK  5 active torsions:
REMARK  status: ('A' for Active; 'I' for Inactive)
REMARK    1  A    between atoms: C_5  and  C_1 
REMARK    2  A    between atoms: C_2  and  C_5 
REMARK    3  A    between atoms: C_7  and  C_2 
REMARK    4  A    between atoms: N_4  and  C_11 
REMARK       I    between atoms: N_12  and  C_7 
REMARK    5  A    between atoms: C_17  and  N_12 
ROOT
ATOM      1  C   UNL d   1      51.893  34.109  53.377  0.00  0.00     0.126 C 
ATOM      2  C   UNL d   1      52.321  34.682  53.774  0.00  0.00     0.106 C 
ATOM      3  N   UNL d   1      52.753  35.264  54.175  0.00  0.00    -0.191 NA
ENDROOT
BRANCH   1   4
ATOM      4  C   UNL d   1      51.967  33.313  53.595  0.00  0.00     0.017 C 
BRANCH   4   5
ATOM      5  C   UNL d   1      52.685  32.921  53.496  0.00  0.00     0.020 A 
ATOM      6  C   UNL d   1      53.434  33.273  53.525  0.00  0.00     0.080 A 
ATOM      7  N   UNL d   1      54.001  32.677  53.398  0.00  0.00    -0.303 N 
ATOM      8  C   UNL d   1      54.815  32.779  53.380  0.00  0.00     0.100 C 
ATOM      9  C   UNL d   1      53.597  31.957  53.291  0.00  0.00     0.064 A 
ATOM     10  C   UNL d   1      52.779  32.112  53.353  0.00  0.00     0.018 A 
ATOM     11  C   UNL d   1      53.859  31.188  53.147  0.00  0.00     0.018 A 
ATOM     12  C   UNL d   1      52.240  31.495  53.270  0.00  0.00     0.002 A 
ATOM     13  C   UNL d   1      52.508  30.732  53.127  0.00  0.00     0.000 A 
ATOM     14  C   UNL d   1      53.312  30.577  53.065  0.00  0.00     0.002 A 
ENDBRANCH   4   5
ENDBRANCH   1   4
BRANCH   1  15
ATOM     15  C   UNL d   1      51.385  34.321  52.758  0.00  0.00     0.289 C 
ATOM     16  N   UNL d   1      50.567  34.286  52.873  0.00  0.00    -0.207 NA
ATOM     17  O   UNL d   1      51.694  34.562  52.038  0.00  0.00    -0.264 OA
BRANCH  16  18
ATOM     18  C   UNL d   1      49.948  34.464  52.356  0.00  0.00     0.086 A 
ATOM     19  C   UNL d   1      49.347  34.967  52.593  0.00  0.00     0.043 A 
ATOM     20  C   UNL d   1      48.728  35.144  52.078  0.00  0.00     0.128 A 
ATOM     21  C   UNL d   1      48.720  34.808  51.316  0.00  0.00     0.024 A 
ATOM     22  C   UNL d   1      49.332  34.300  51.085  0.00  0.00     0.003 A 
ATOM     23  C   UNL d   1      49.941  34.132  51.606  0.00  0.00     0.019 A 
BRANCH  20  24
ATOM     24  N   UNL d   1      48.120  35.652  52.314  0.00  0.00    -0.114 N 
ATOM     25  O   UNL d   1      47.552  35.888  51.764  0.00  0.00    -0.532 OA
ATOM     26  O   UNL d   1      48.084  35.918  53.098  0.00  0.00    -0.532 OA
ENDBRANCH  20  24
ENDBRANCH  16  18
ENDBRANCH   1  15
TORSDOF 5
ENDMDL
MODEL 4
REMARK VINA RESULT:      -8.7      3.195      5.742
REMARK  5 active torsions:
REMARK  status: ('A' for Active; 'I' for Inactive)
REMARK    1  A    between atoms: C_5  and  C_1 
REMARK    2  A    between atoms: C_2  and  C_5 
REMARK    3  A    between atoms: C_7  and  C_2 
REMARK    4  A    between atoms: N_4  and  C_11 
REMARK       I    between atoms: N_12  and  C_7 
REMARK    5  A    between atoms: C_17  and  N_12 
ROOT
ATOM      1  C   UNL d   1      51.143  34.318  52.757  0.00  0.00     0.126 C 
ATOM      2  C   UNL d   1      51.447  34.295  51.997  0.00  0.00     0.106 C 
ATOM      3  N   UNL d   1      51.753  34.273  51.228  0.00  0.00    -0.191 NA
ENDROOT
BRANCH   1   4
ATOM      4  C   UNL d   1      51.652  34.261  53.407  0.00  0.00     0.017 C 
BRANCH   4   5
ATOM      5  C   UNL d   1      52.145  33.606  53.492  0.00  0.00     0.020 A 
ATOM      6  C   UNL d   1      52.053  32.881  53.103  0.00  0.00     0.080 A 
ATOM      7  N   UNL d   1      52.671  32.379  53.350  0.00  0.00    -0.303 N 
ATOM      8  C   UNL d   1      52.794  31.606  53.103  0.00  0.00     0.100 C 
ATOM      9  C   UNL d   1      53.141  32.800  53.892  0.00  0.00     0.064 A 
ATOM     10  C   UNL d   1      52.813  33.561  53.978  0.00  0.00     0.018 A 
ATOM     11  C   UNL d   1      53.820  32.595  54.315  0.00  0.00     0.018 A 
ATOM     12  C   UNL d   1      53.168  34.104  54.487  0.00  0.00     0.002 A 
ATOM     13  C   UNL d   1      53.842  33.893  54.905  0.00  0.00     0.000 A 
ATOM     14  C   UNL d   1      54.168  33.144  54.822  0.00  0.00     0.002 A 
ENDBRANCH   4   5
ENDBRANCH   1   4
BRANCH   1  15
ATOM     15  C   UNL d   1      50.327  34.399  52.878  0.00  0.00     0.289 C 
ATOM     16  N   UNL d   1      49.982  35.148  52.829  0.00  0.00    -0.207 NA
ATOM     17  O   UNL d   1      49.870  33.740  53.045  0.00  0.00    -0.264 OA
BRANCH  16  18
ATOM     18  C   UNL d   1      49.195  35.380  52.925  0.00  0.00     0.086 A 
ATOM     19  C   UNL d   1      48.691  35.399  52.279  0.00  0.00     0.043 A 
ATOM     20  C   UNL d   1      47.905  35.630  52.374  0.00  0.00     0.128 A 
ATOM     21  C   UNL d   1      47.629  35.844  53.131  0.00  0.00     0.024 A 
ATOM     22  C   UNL d   1      48.146  35.821  53.778  0.00  0.00     0.003 A 
ATOM     23  C   UNL d   1      48.924  35.589  53.670  0.00  0.00     0.019 A 
BRANCH  20  24
ATOM     24  N   UNL d   1      47.394  35.651  51.725  0.00  0.00    -0.114 N 
ATOM     25  O   UNL d   1      47.021  36.359  51.524  0.00  0.00    -0.532 OA
ATOM     26  O   UNL d   1      47.259  34.963  51.283  0.00  0.00    -0.532 OA
ENDBRANCH  20  24
ENDBRANCH  16  18
ENDBRANCH   1  15
TORSDOF 5
ENDMDL
MODEL 5
REMARK VINA RESULT:      -8.6      1.056      2.239
REMARK  5 active torsions:
REMARK  status: ('A' for Active; 'I' for Inactive)
REMARK    1  A    between atoms: C_5  and  C_1 
REMARK    2  A    between atoms: C_2  and  C_5 
REMARK    3  A    between atoms: C_7  and  C_2 
REMARK    4  A    between atoms: N_4  and  C_11 
REMARK       I    between atoms: N_12  and  C_7 
REMARK    5  A    between atoms: C_17  and  N_12 
ROOT
ATOM      1  C   UNL d   1      52.687  32.826  52.895  0.00  0.00     0.126 C 
ATOM      2  C   UNL d   1      52.180  33.298  52.459  0.00  0.00     0.106 C 
ATOM      3  N   UNL d   1      51.665  33.774  52.018  0.00  0.00    -0.191 NA
ENDROOT
BRANCH   1   4
ATOM      4  C   UNL d   1      53.418  33.125  53.143  0.00  0.00     0.017 C 
BRANCH   4   5
ATOM      5  C   UNL d   1      53.458  33.663  53.766  0.00  0.00     0.020 A 
ATOM      6  C   UNL d   1      52.888  34.237  53.944  0.00  0.00     0.080 A 
ATOM      7  N   UNL d   1      53.150  34.656  54.614  0.00  0.00    -0.303 N 
ATOM      8  C   UNL d   1      52.756  35.275  54.981  0.00  0.00     0.100 C 
ATOM      9  C   UNL d   1      53.882  34.337  54.846  0.00  0.00     0.064 A 
ATOM     10  C   UNL d   1      54.071  33.720  54.318  0.00  0.00     0.018 A 
ATOM     11  C   UNL d   1      54.399  34.523  55.462  0.00  0.00     0.018 A 
ATOM     12  C   UNL d   1      54.773  33.301  54.415  0.00  0.00     0.002 A 
ATOM     13  C   UNL d   1      55.283  33.491  55.030  0.00  0.00     0.000 A 
ATOM     14  C   UNL d   1      55.100  34.098  55.552  0.00  0.00     0.002 A 
ENDBRANCH   4   5
ENDBRANCH   1   4
BRANCH   1  15
ATOM     15  C   UNL d   1      52.471  32.050  53.090  0.00  0.00     0.289 C 
ATOM     16  N   UNL d   1      53.013  31.437  52.974  0.00  0.00    -0.207 NA
ATOM     17  O   UNL d   1      51.727  31.896  53.396  0.00  0.00    -0.264 OA
BRANCH  16  18
ATOM     18  C   UNL d   1      52.941  30.627  53.119  0.00  0.00     0.086 A 
ATOM     19  C   UNL d   1      53.157  30.320  53.847  0.00  0.00     0.043 A 
ATOM     20  C   UNL d   1      53.085  29.511  53.992  0.00  0.00     0.128 A 
ATOM     21  C   UNL d   1      52.792  29.012  53.394  0.00  0.00     0.024 A 
ATOM     22  C   UNL d   1      52.577  29.331  52.661  0.00  0.00     0.003 A 
ATOM     23  C   UNL d   1      52.653  30.136  52.529  0.00  0.00     0.019 A 
BRANCH  20  24
ATOM     24  N   UNL d   1      53.302  29.197  54.725  0.00  0.00    -0.114 N 
ATOM     25  O   UNL d   1      53.296  29.681  55.393  0.00  0.00    -0.532 OA
ATOM     26  O   UNL d   1      53.523  28.400  54.785  0.00  0.00    -0.532 OA
ENDBRANCH  20  24
ENDBRANCH  16  18
ENDBRANCH   1  15
TORSDOF 5
ENDMDL
MODEL 6
REMARK VINA RESULT:      -7.6      2.215      3.757
REMARK  5 active torsions:
REMARK  status: ('A' for Active; 'I' for Inactive)
REMARK    1  A    between atoms: C_5  and  C_1 
REMARK    2  A    between atoms: C_2  and  C_5 
REMARK    3  A    between atoms: C_7  and  C_2 
REMARK    4  A    between atoms: N_4  and  C_11 
REMARK       I    between atoms: N_12  and  C_7 
REMARK    5  A    between atoms: C_17  and  N_12 
ROOT
ATOM      1  C   UNL d   1      51.006  34.103  52.579  0.00  0.00     0.126 C 
ATOM      2  C   UNL d   1      51.280  34.329  51.841  0.00  0.00     0.106 C 
ATOM      3  N   UNL d   1      51.558  34.556  51.095  0.00  0.00    -0.191 NA
ENDROOT
BRANCH   1   4
ATOM      4  C   UNL d   1      50.356  34.491  52.914  0.00  0.00     0.017 C 
BRANCH   4   5
ATOM      5  C   UNL d   1      49.687  34.650  52.460  0.00  0.00     0.020 A 
ATOM      6  C   UNL d   1      49.531  34.337  51.709  0.00  0.00     0.080 A 
ATOM      7  N   UNL d   1      48.799  34.642  51.454  0.00  0.00    -0.303 N 
ATOM      8  C   UNL d   1      48.429  34.480  50.739  0.00  0.00     0.100 C 
ATOM      9  C   UNL d   1      48.507  35.142  52.052  0.00  0.00     0.064 A 
ATOM     10  C   UNL d   1      49.061  35.145  52.675  0.00  0.00     0.018 A 
ATOM     11  C   UNL d   1      47.818  35.593  52.113  0.00  0.00     0.018 A 
ATOM     12  C   UNL d   1      48.915  35.597  53.348  0.00  0.00     0.002 A 
ATOM     13  C   UNL d   1      48.228  36.042  53.402  0.00  0.00     0.000 A 
ATOM     14  C   UNL d   1      47.681  36.042  52.790  0.00  0.00     0.002 A 
ENDBRANCH   4   5
ENDBRANCH   1   4
BRANCH   1  15
ATOM     15  C   UNL d   1      51.378  33.488  52.992  0.00  0.00     0.289 C 
ATOM     16  N   UNL d   1      52.194  33.387  52.921  0.00  0.00    -0.207 NA
ATOM     17  O   UNL d   1      50.935  32.987  53.465  0.00  0.00    -0.264 OA
BRANCH  16  18
ATOM     18  C   UNL d   1      52.695  32.828  53.267  0.00  0.00     0.086 A 
ATOM     19  C   UNL d   1      53.207  33.050  53.866  0.00  0.00     0.043 A 
ATOM     20  C   UNL d   1      53.707  32.492  54.211  0.00  0.00     0.128 A 
ATOM     21  C   UNL d   1      53.685  31.703  53.946  0.00  0.00     0.024 A 
ATOM     22  C   UNL d   1      53.164  31.488  53.339  0.00  0.00     0.003 A 
ATOM     23  C   UNL d   1      52.673  32.052  53.005  0.00  0.00     0.019 A 
BRANCH  20  24
ATOM     24  N   UNL d   1      54.225  32.712  54.816  0.00  0.00    -0.114 N 
ATOM     25  O   UNL d   1      54.913  33.129  54.631  0.00  0.00    -0.532 OA
ATOM     26  O   UNL d   1      54.052  32.514  55.602  0.00  0.00    -0.532 OA
ENDBRANCH  20  24
ENDBRANCH  16  18
ENDBRANCH   1  15
TORSDOF 5
ENDMDL
