MODEL 1
REMARK VINA RESULT:      -2.4      0.000      0.000
REMARK  5 active torsions:
REMARK  status: ('A' for Active; 'I' for Inactive)
REMARK    1  A    between atoms: C_7  and  C_1 
REMARK    2  A    between atoms: C_13  and  N_3 
REMARK       I    between atoms: C_6  and  N_10 
REMARK    3  A    between atoms: C_8  and  C_6 
REMARK    4  A    between atoms: C_14  and  C_7 
REMARK    5  A    between atoms: N_10  and  C_14 
ROOT
ATOM      1  C   UNL d   1      33.037  18.244 -24.273  0.00  0.00     0.058 C 
ENDROOT
BRANCH   1   2
ATOM      2  C   UNL d   1      33.070  18.831 -23.689  0.00  0.00     0.149 A 
ATOM      3  N   UNL d   1      33.015  18.711 -22.881  0.00  0.00    -0.227 NA
ATOM      4  C   UNL d   1      33.074  19.440 -22.507  0.00  0.00     0.099 A 
ATOM      5  C   UNL d   1      33.055  19.651 -21.701  0.00  0.00     0.021 A 
ATOM      6  C   UNL d   1      33.166  20.020 -23.086  0.00  0.00     0.083 A 
ATOM      7  C   UNL d   1      33.130  20.447 -21.488  0.00  0.00     0.002 A 
ATOM      8  C   UNL d   1      33.221  21.023 -22.070  0.00  0.00     0.002 A 
ATOM      9  C   UNL d   1      33.240  20.816 -22.873  0.00  0.00     0.019 A 
ATOM     10  N   UNL d   1      33.163  19.641 -23.824  0.00  0.00    -0.289 N 
BRANCH  10  11
ATOM     11  C   UNL d   1      33.240  20.004 -24.564  0.00  0.00     0.082 C 
ATOM     12  C   UNL d   1      32.574  20.096 -25.046  0.00  0.00     0.021 C 
ENDBRANCH  10  11
ENDBRANCH   1   2
BRANCH   1  13
ATOM     13  C   UNL d   1      32.547  17.585 -24.163  0.00  0.00     0.105 C 
BRANCH  13  14
ATOM     14  N   UNL d   1      32.791  16.842 -24.406  0.00  0.00    -0.206 NA
ATOM     15  C   UNL d   1      32.240  16.234 -24.502  0.00  0.00     0.279 C 
ATOM     16  O   UNL d   1      32.495  15.492 -24.746  0.00  0.00    -0.265 OA
BRANCH  15  17
ATOM     17  C   UNL d   1      31.445  16.375 -24.354  0.00  0.00     0.058 A 
ATOM     18  C   UNL d   1      31.111  16.118 -23.649  0.00  0.00     0.007 A 
ATOM     19  C   UNL d   1      30.316  16.258 -23.501  0.00  0.00     0.030 A 
ATOM     20  C   UNL d   1      29.848  16.654 -24.051  0.00  0.00     0.140 A 
ATOM     21  C   UNL d   1      30.189  16.910 -24.755  0.00  0.00     0.030 A 
ATOM     22  F   UNL d   1      29.043  16.798 -23.903  0.00  0.00    -0.204 F 
ATOM     23  C   UNL d   1      30.978  16.771 -24.905  0.00  0.00     0.007 A 
ENDBRANCH  15  17
ENDBRANCH  13  14
ENDBRANCH   1  13
TORSDOF 5
ENDMDL
MODEL 2
REMARK VINA RESULT:      -2.2      1.493      2.515
REMARK  5 active torsions:
REMARK  status: ('A' for Active; 'I' for Inactive)
REMARK    1  A    between atoms: C_7  and  C_1 
REMARK    2  A    between atoms: C_13  and  N_3 
REMARK       I    between atoms: C_6  and  N_10 
REMARK    3  A    between atoms: C_8  and  C_6 
REMARK    4  A    between atoms: C_14  and  C_7 
REMARK    5  A    between atoms: N_10  and  C_14 
ROOT
ATOM      1  C   UNL d   1      33.040  19.703 -22.084  0.00  0.00     0.058 C 
ENDROOT
BRANCH   1   2
ATOM      2  C   UNL d   1      33.079  20.498 -22.313  0.00  0.00     0.149 A 
ATOM      3  N   UNL d   1      33.156  20.777 -23.079  0.00  0.00    -0.227 NA
ATOM      4  C   UNL d   1      33.172  21.599 -23.054  0.00  0.00     0.099 A 
ATOM      5  C   UNL d   1      33.241  22.168 -23.659  0.00  0.00     0.021 A 
ATOM      6  C   UNL d   1      33.103  21.834 -22.267  0.00  0.00     0.083 A 
ATOM      7  C   UNL d   1      33.239  22.972 -23.461  0.00  0.00     0.002 A 
ATOM      8  C   UNL d   1      33.170  23.202 -22.674  0.00  0.00     0.002 A 
ATOM      9  C   UNL d   1      33.101  22.638 -22.070  0.00  0.00     0.019 A 
ATOM     10  N   UNL d   1      33.045  21.149 -21.803  0.00  0.00    -0.289 N 
BRANCH  10  11
ATOM     11  C   UNL d   1      32.967  21.117 -20.980  0.00  0.00     0.082 C 
ATOM     12  C   UNL d   1      32.228  21.253 -20.633  0.00  0.00     0.021 C 
ENDBRANCH  10  11
ENDBRANCH   1   2
BRANCH   1  13
ATOM     13  C   UNL d   1      32.941  19.117 -22.661  0.00  0.00     0.105 C 
BRANCH  13  14
ATOM     14  N   UNL d   1      33.241  18.364 -22.542  0.00  0.00    -0.206 NA
ATOM     15  C   UNL d   1      32.928  17.722 -22.956  0.00  0.00     0.279 C 
ATOM     16  O   UNL d   1      33.234  16.969 -22.830  0.00  0.00    -0.265 OA
BRANCH  15  17
ATOM     17  C   UNL d   1      32.314  17.838 -23.489  0.00  0.00     0.058 A 
ATOM     18  C   UNL d   1      31.539  17.698 -23.254  0.00  0.00     0.007 A 
ATOM     19  C   UNL d   1      30.926  17.814 -23.787  0.00  0.00     0.030 A 
ATOM     20  C   UNL d   1      31.077  18.069 -24.555  0.00  0.00     0.140 A 
ATOM     21  C   UNL d   1      31.855  18.207 -24.784  0.00  0.00     0.030 A 
ATOM     22  F   UNL d   1      30.457  18.187 -25.097  0.00  0.00    -0.204 F 
ATOM     23  C   UNL d   1      32.466  18.093 -24.257  0.00  0.00     0.007 A 
ENDBRANCH  15  17
ENDBRANCH  13  14
ENDBRANCH   1  13
TORSDOF 5
ENDMDL
MODEL 3
REMARK VINA RESULT:      -1.7      0.959      1.352
REMARK  5 active torsions:
REMARK  status: ('A' for Active; 'I' for Inactive)
REMARK    1  A    between atoms: C_7  and  C_1 
REMARK    2  A    between atoms: C_13  and  N_3 
REMARK       I    between atoms: C_6  and  N_10 
REMARK    3  A    between atoms: C_8  and  C_6 
REMARK    4  A    between atoms: C_14  and  C_7 
REMARK    5  A    between atoms: N_10  and  C_14 
ROOT
ATOM      1  C   UNL d   1      33.238  19.108 -23.370  0.00  0.00     0.058 C 
ENDROOT
BRANCH   1   2
ATOM      2  C   UNL d   1      33.124  19.725 -22.830  0.00  0.00     0.149 A 
ATOM      3  N   UNL d   1      32.990  19.643 -22.026  0.00  0.00    -0.227 NA
ATOM      4  C   UNL d   1      32.908  20.393 -21.700  0.00  0.00     0.099 A 
ATOM      5  C   UNL d   1      32.766  20.643 -20.918  0.00  0.00     0.021 A 
ATOM      6  C   UNL d   1      32.991  20.948 -22.305  0.00  0.00     0.083 A 
ATOM      7  C   UNL d   1      32.709  21.453 -20.755  0.00  0.00     0.002 A 
ATOM      8  C   UNL d   1      32.792  22.003 -21.362  0.00  0.00     0.002 A 
ATOM      9  C   UNL d   1      32.934  21.757 -22.142  0.00  0.00     0.019 A 
ATOM     10  N   UNL d   1      33.125  20.532 -23.010  0.00  0.00    -0.289 N 
BRANCH  10  11
ATOM     11  C   UNL d   1      33.241  20.861 -23.760  0.00  0.00     0.082 C 
ATOM     12  C   UNL d   1      32.587  21.095 -24.210  0.00  0.00     0.021 C 
ENDBRANCH  10  11
ENDBRANCH   1   2
BRANCH   1  13
ATOM     13  C   UNL d   1      32.790  18.415 -23.300  0.00  0.00     0.105 C 
BRANCH  13  14
ATOM     14  N   UNL d   1      33.158  17.684 -23.272  0.00  0.00    -0.206 NA
ATOM     15  C   UNL d   1      32.787  17.019 -23.590  0.00  0.00     0.279 C 
ATOM     16  O   UNL d   1      33.164  16.289 -23.557  0.00  0.00    -0.265 OA
BRANCH  15  17
ATOM     17  C   UNL d   1      32.045  17.089 -23.935  0.00  0.00     0.058 A 
ATOM     18  C   UNL d   1      31.984  17.244 -24.739  0.00  0.00     0.007 A 
ATOM     19  C   UNL d   1      31.242  17.314 -25.085  0.00  0.00     0.030 A 
ATOM     20  C   UNL d   1      30.558  17.232 -24.634  0.00  0.00     0.140 A 
ATOM     21  C   UNL d   1      30.626  17.077 -23.829  0.00  0.00     0.030 A 
ATOM     22  F   UNL d   1      29.806  17.303 -24.982  0.00  0.00    -0.204 F 
ATOM     23  C   UNL d   1      31.361  17.007 -23.484  0.00  0.00     0.007 A 
ENDBRANCH  15  17
ENDBRANCH  13  14
ENDBRANCH   1  13
TORSDOF 5
ENDMDL
