MODEL 1
REMARK VINA RESULT:      -2.9      0.000      0.000
REMARK  5 active torsions:
REMARK  status: ('A' for Active; 'I' for Inactive)
REMARK    1  A    between atoms: C_11  and  N_1 
REMARK    2  A    between atoms: S_10  and  C_2 
REMARK    3  A    between atoms: S_3  and  C_12 
REMARK    4  A    between atoms: C_13  and  C_11 
REMARK    5  A    between atoms: C_12  and  C_13 
ROOT
ATOM      1  N   UNL d   1      59.273  -0.881  29.222  0.00  0.00    -0.295 N 
ATOM      2  C   UNL d   1      60.018  -0.568  29.086  0.00  0.00     0.121 A 
ATOM      3  S   UNL d   1      60.528  -1.177  28.872  0.00  0.00    -0.062 SA
ATOM      4  C   UNL d   1      59.315  -1.694  29.093  0.00  0.00     0.071 A 
ATOM      5  C   UNL d   1      60.099  -1.879  28.874  0.00  0.00     0.047 A 
ATOM      6  C   UNL d   1      58.748  -2.292  29.144  0.00  0.00     0.018 A 
ATOM      7  C   UNL d   1      60.301  -2.658  28.710  0.00  0.00     0.008 A 
ATOM      8  C   UNL d   1      58.960  -3.076  28.977  0.00  0.00     0.002 A 
ATOM      9  C   UNL d   1      59.726  -3.256  28.763  0.00  0.00     0.001 A 
ENDROOT
BRANCH   1  10
ATOM     10  C   UNL d   1      58.612  -0.465  29.445  0.00  0.00     0.082 C 
BRANCH  10  11
ATOM     11  C   UNL d   1      58.405  -0.401  30.250  0.00  0.00     0.034 C 
BRANCH  11  12
ATOM     12  C   UNL d   1      57.747   0.035  30.478  0.00  0.00     0.119 C 
BRANCH  12  13
ATOM     13  S   UNL d   1      57.512   0.038  31.270  0.00  0.00     0.140 S 
ATOM     14  O   UNL d   1      57.277   0.038  32.045  0.00  0.00    -0.591 OA
ATOM     15  O   UNL d   1      58.005   0.682  31.414  0.00  0.00    -0.591 OA
ATOM     16  O   UNL d   1      57.016  -0.608  31.125  0.00  0.00    -0.591 OA
ENDBRANCH  12  13
ENDBRANCH  11  12
ENDBRANCH  10  11
ENDBRANCH   1  10
BRANCH   2  17
ATOM     17  S   UNL d   1      60.224   0.225  29.152  0.00  0.00    -0.089 SA
ATOM     18  C   UNL d   1      60.947   0.488  28.890  0.00  0.00     0.076 C 
ENDBRANCH   2  17
TORSDOF 5
ENDMDL
MODEL 2
REMARK VINA RESULT:      -2.4      0.816      1.056
REMARK  5 active torsions:
REMARK  status: ('A' for Active; 'I' for Inactive)
REMARK    1  A    between atoms: C_11  and  N_1 
REMARK    2  A    between atoms: S_10  and  C_2 
REMARK    3  A    between atoms: S_3  and  C_12 
REMARK    4  A    between atoms: C_13  and  C_11 
REMARK    5  A    between atoms: C_12  and  C_13 
ROOT
ATOM      1  N   UNL d   1      58.662  -0.870  29.725  0.00  0.00    -0.295 N 
ATOM      2  C   UNL d   1      59.348  -0.425  29.670  0.00  0.00     0.121 A 
ATOM      3  S   UNL d   1      59.939  -0.885  29.331  0.00  0.00    -0.062 SA
ATOM      4  C   UNL d   1      58.823  -1.618  29.417  0.00  0.00     0.071 A 
ATOM      5  C   UNL d   1      59.621  -1.628  29.171  0.00  0.00     0.047 A 
ATOM      6  C   UNL d   1      58.355  -2.291  29.327  0.00  0.00     0.018 A 
ATOM      7  C   UNL d   1      59.935  -2.310  28.840  0.00  0.00     0.008 A 
ATOM      8  C   UNL d   1      58.679  -2.977  28.992  0.00  0.00     0.002 A 
ATOM      9  C   UNL d   1      59.458  -2.986  28.751  0.00  0.00     0.001 A 
ENDROOT
BRANCH   1  10
ATOM     10  C   UNL d   1      57.951  -0.620  30.028  0.00  0.00     0.082 C 
BRANCH  10  11
ATOM     11  C   UNL d   1      57.775  -0.728  30.836  0.00  0.00     0.034 C 
BRANCH  11  12
ATOM     12  C   UNL d   1      57.102  -0.391  31.164  0.00  0.00     0.119 C 
BRANCH  12  13
ATOM     13  S   UNL d   1      56.859  -0.614  31.922  0.00  0.00     0.140 S 
ATOM     14  O   UNL d   1      56.624  -0.828  32.666  0.00  0.00    -0.591 OA
ATOM     15  O   UNL d   1      56.504  -1.288  31.610  0.00  0.00    -0.591 OA
ATOM     16  O   UNL d   1      57.217   0.064  32.236  0.00  0.00    -0.591 OA
ENDBRANCH  12  13
ENDBRANCH  11  12
ENDBRANCH  10  11
ENDBRANCH   1  10
BRANCH   2  17
ATOM     17  S   UNL d   1      59.432   0.356  29.914  0.00  0.00    -0.089 SA
ATOM     18  C   UNL d   1      60.171   0.679  30.013  0.00  0.00     0.076 C 
ENDBRANCH   2  17
TORSDOF 5
ENDMDL
MODEL 3
REMARK VINA RESULT:      -1.9      8.928      9.238
REMARK  5 active torsions:
REMARK  status: ('A' for Active; 'I' for Inactive)
REMARK    1  A    between atoms: C_11  and  N_1 
REMARK    2  A    between atoms: S_10  and  C_2 
REMARK    3  A    between atoms: S_3  and  C_12 
REMARK    4  A    between atoms: C_13  and  C_11 
REMARK    5  A    between atoms: C_12  and  C_13 
ROOT
ATOM      1  N   UNL d   1      59.157  -9.815  32.477  0.00  0.00    -0.295 N 
ATOM      2  C   UNL d   1      58.469  -9.817  32.031  0.00  0.00     0.121 A 
ATOM      3  S   UNL d   1      58.668  -9.818  31.233  0.00  0.00    -0.062 SA
ATOM      4  C   UNL d   1      59.795  -9.815  31.953  0.00  0.00     0.071 A 
ATOM      5  C   UNL d   1      59.489  -9.816  31.176  0.00  0.00     0.047 A 
ATOM      6  C   UNL d   1      60.611  -9.813  32.077  0.00  0.00     0.018 A 
ATOM      7  C   UNL d   1      60.005  -9.816  30.538  0.00  0.00     0.008 A 
ATOM      8  C   UNL d   1      61.125  -9.813  31.426  0.00  0.00     0.002 A 
ATOM      9  C   UNL d   1      60.827  -9.815  30.668  0.00  0.00     0.001 A 
ENDROOT
BRANCH   1  10
ATOM     10  C   UNL d   1      59.203  -9.814  33.288  0.00  0.00     0.082 C 
BRANCH  10  11
ATOM     11  C   UNL d   1      59.408  -9.117  33.698  0.00  0.00     0.034 C 
BRANCH  11  12
ATOM     12  C   UNL d   1      59.578  -9.142  34.501  0.00  0.00     0.119 C 
BRANCH  12  13
ATOM     13  S   UNL d   1      59.749  -8.441  34.905  0.00  0.00     0.140 S 
ATOM     14  O   UNL d   1      59.920  -7.755  35.299  0.00  0.00    -0.591 OA
ATOM     15  O   UNL d   1      58.978  -8.421  35.195  0.00  0.00    -0.591 OA
ATOM     16  O   UNL d   1      60.523  -8.462  34.614  0.00  0.00    -0.591 OA
ENDBRANCH  12  13
ENDBRANCH  11  12
ENDBRANCH  10  11
ENDBRANCH   1  10
BRANCH   2  17
ATOM     17  S   UNL d   1      57.704  -9.818  32.332  0.00  0.00    -0.089 SA
ATOM     18  C   UNL d   1      57.063  -9.813  31.832  0.00  0.00     0.076 C 
ENDBRANCH   2  17
TORSDOF 5
ENDMDL
MODEL 4
REMARK VINA RESULT:      -1.2      2.491      4.239
REMARK  5 active torsions:
REMARK  status: ('A' for Active; 'I' for Inactive)
REMARK    1  A    between atoms: C_11  and  N_1 
REMARK    2  A    between atoms: S_10  and  C_2 
REMARK    3  A    between atoms: S_3  and  C_12 
REMARK    4  A    between atoms: C_13  and  C_11 
REMARK    5  A    between atoms: C_12  and  C_13 
ROOT
ATOM      1  N   UNL d   1      57.527  -0.098  31.970  0.00  0.00    -0.295 N 
ATOM      2  C   UNL d   1      57.987   0.433  32.393  0.00  0.00     0.121 A 
ATOM      3  S   UNL d   1      57.570   0.678  33.058  0.00  0.00    -0.062 SA
ATOM      4  C   UNL d   1      56.813  -0.188  32.374  0.00  0.00     0.071 A 
ATOM      5  C   UNL d   1      56.840   0.297  33.054  0.00  0.00     0.047 A 
ATOM      6  C   UNL d   1      56.144  -0.644  32.217  0.00  0.00     0.018 A 
ATOM      7  C   UNL d   1      56.196   0.316  33.563  0.00  0.00     0.008 A 
ATOM      8  C   UNL d   1      55.498  -0.619  32.737  0.00  0.00     0.002 A 
ATOM      9  C   UNL d   1      55.524  -0.146  33.400  0.00  0.00     0.001 A 
ENDROOT
BRANCH   1  10
ATOM     10  C   UNL d   1      57.736  -0.468  31.279  0.00  0.00     0.082 C 
BRANCH  10  11
ATOM     11  C   UNL d   1      57.833  -0.029  30.577  0.00  0.00     0.034 C 
BRANCH  11  12
ATOM     12  C   UNL d   1      57.897  -0.410  29.852  0.00  0.00     0.119 C 
BRANCH  12  13
ATOM     13  S   UNL d   1      58.240  -0.017  29.211  0.00  0.00     0.140 S 
ATOM     14  O   UNL d   1      58.580   0.364  28.583  0.00  0.00    -0.591 OA
ATOM     15  O   UNL d   1      57.599   0.501  29.185  0.00  0.00    -0.591 OA
ATOM     16  O   UNL d   1      58.883  -0.537  29.237  0.00  0.00    -0.591 OA
ENDBRANCH  12  13
ENDBRANCH  11  12
ENDBRANCH  10  11
ENDBRANCH   1  10
BRANCH   2  17
ATOM     17  S   UNL d   1      58.743   0.682  32.186  0.00  0.00    -0.089 SA
ATOM     18  C   UNL d   1      59.346   0.667  32.731  0.00  0.00     0.076 C 
ENDBRANCH   2  17
TORSDOF 5
ENDMDL
MODEL 5
REMARK VINA RESULT:      -1.0      2.345      2.906
REMARK  5 active torsions:
REMARK  status: ('A' for Active; 'I' for Inactive)
REMARK    1  A    between atoms: C_11  and  N_1 
REMARK    2  A    between atoms: S_10  and  C_2 
REMARK    3  A    between atoms: S_3  and  C_12 
REMARK    4  A    between atoms: C_13  and  C_11 
REMARK    5  A    between atoms: C_12  and  C_13 
ROOT
ATOM      1  N   UNL d   1      58.422   0.658  30.674  0.00  0.00    -0.295 N 
ATOM      2  C   UNL d   1      58.538   0.645  29.863  0.00  0.00     0.121 A 
ATOM      3  S   UNL d   1      59.346   0.644  29.708  0.00  0.00    -0.062 SA
ATOM      4  C   UNL d   1      59.165   0.664  31.033  0.00  0.00     0.071 A 
ATOM      5  C   UNL d   1      59.742   0.656  30.430  0.00  0.00     0.047 A 
ATOM      6  C   UNL d   1      59.395   0.677  31.826  0.00  0.00     0.018 A 
ATOM      7  C   UNL d   1      60.538   0.660  30.630  0.00  0.00     0.008 A 
ATOM      8  C   UNL d   1      60.201   0.681  32.020  0.00  0.00     0.002 A 
ATOM      9  C   UNL d   1      60.764   0.673  31.431  0.00  0.00     0.001 A 
ENDROOT
BRANCH   1  10
ATOM     10  C   UNL d   1      57.706   0.662  31.056  0.00  0.00     0.082 C 
BRANCH  10  11
ATOM     11  C   UNL d   1      57.452  -0.005  31.487  0.00  0.00     0.034 C 
BRANCH  11  12
ATOM     12  C   UNL d   1      56.653  -0.138  31.617  0.00  0.00     0.119 C 
BRANCH  12  13
ATOM     13  S   UNL d   1      56.391  -0.365  32.368  0.00  0.00     0.140 S 
ATOM     14  O   UNL d   1      56.136  -0.581  33.105  0.00  0.00    -0.591 OA
ATOM     15  O   UNL d   1      56.285  -1.136  32.099  0.00  0.00    -0.591 OA
ATOM     16  O   UNL d   1      56.498   0.411  32.638  0.00  0.00    -0.591 OA
ENDBRANCH  12  13
ENDBRANCH  11  12
ENDBRANCH  10  11
ENDBRANCH   1  10
BRANCH   2  17
ATOM     17  S   UNL d   1      57.944   0.636  29.295  0.00  0.00    -0.089 SA
ATOM     18  C   UNL d   1      58.115   0.455  28.521  0.00  0.00     0.076 C 
ENDBRANCH   2  17
TORSDOF 5
ENDMDL
MODEL 6
REMARK VINA RESULT:      -0.6      0.747      2.106
REMARK  5 active torsions:
REMARK  status: ('A' for Active; 'I' for Inactive)
REMARK    1  A    between atoms: C_11  and  N_1 
REMARK    2  A    between atoms: S_10  and  C_2 
REMARK    3  A    between atoms: S_3  and  C_12 
REMARK    4  A    between atoms: C_13  and  C_11 
REMARK    5  A    between atoms: C_12  and  C_13 
ROOT
ATOM      1  N   UNL d   1      59.017  -0.863  29.208  0.00  0.00    -0.295 N 
ATOM      2  C   UNL d   1      59.193  -1.652  29.073  0.00  0.00     0.121 A 
ATOM      3  S   UNL d   1      59.958  -1.709  28.775  0.00  0.00    -0.062 SA
ATOM      4  C   UNL d   1      59.678  -0.419  28.993  0.00  0.00     0.071 A 
ATOM      5  C   UNL d   1      60.266  -0.947  28.723  0.00  0.00     0.047 A 
ATOM      6  C   UNL d   1      59.826   0.393  29.006  0.00  0.00     0.018 A 
ATOM      7  C   UNL d   1      60.990  -0.653  28.470  0.00  0.00     0.008 A 
ATOM      8  C   UNL d   1      60.560   0.682  28.749  0.00  0.00     0.002 A 
ATOM      9  C   UNL d   1      61.134   0.166  28.485  0.00  0.00     0.001 A 
ENDROOT
BRANCH   1  10
ATOM     10  C   UNL d   1      58.319  -0.571  29.501  0.00  0.00     0.082 C 
BRANCH  10  11
ATOM     11  C   UNL d   1      58.224  -0.446  30.320  0.00  0.00     0.034 C 
BRANCH  11  12
ATOM     12  C   UNL d   1      57.526  -0.130  30.615  0.00  0.00     0.119 C 
BRANCH  12  13
ATOM     13  S   UNL d   1      57.407  -0.088  31.432  0.00  0.00     0.140 S 
ATOM     14  O   UNL d   1      57.294  -0.042  32.232  0.00  0.00    -0.591 OA
ATOM     15  O   UNL d   1      56.971  -0.786  31.405  0.00  0.00    -0.591 OA
ATOM     16  O   UNL d   1      57.846   0.614  31.459  0.00  0.00    -0.591 OA
ENDBRANCH  12  13
ENDBRANCH  11  12
ENDBRANCH  10  11
ENDBRANCH   1  10
BRANCH   2  17
ATOM     17  S   UNL d   1      58.688  -2.286  29.213  0.00  0.00    -0.089 SA
ATOM     18  C   UNL d   1      58.869  -3.027  28.935  0.00  0.00     0.076 C 
ENDBRANCH   2  17
TORSDOF 5
ENDMDL
MODEL 7
REMARK VINA RESULT:      -0.4      8.769      9.445
REMARK  5 active torsions:
REMARK  status: ('A' for Active; 'I' for Inactive)
REMARK    1  A    between atoms: C_11  and  N_1 
REMARK    2  A    between atoms: S_10  and  C_2 
REMARK    3  A    between atoms: S_3  and  C_12 
REMARK    4  A    between atoms: C_13  and  C_11 
REMARK    5  A    between atoms: C_12  and  C_13 
ROOT
ATOM      1  N   UNL d   1      59.556  -9.530  32.662  0.00  0.00    -0.295 N 
ATOM      2  C   UNL d   1      58.740  -9.485  32.735  0.00  0.00     0.121 A 
ATOM      3  S   UNL d   1      58.555  -9.160  33.468  0.00  0.00    -0.062 SA
ATOM      4  C   UNL d   1      59.886  -9.230  33.356  0.00  0.00     0.071 A 
ATOM      5  C   UNL d   1      59.261  -8.999  33.859  0.00  0.00     0.047 A 
ATOM      6  C   UNL d   1      60.669  -9.136  33.598  0.00  0.00     0.018 A 
ATOM      7  C   UNL d   1      59.431  -8.677  34.595  0.00  0.00     0.008 A 
ATOM      8  C   UNL d   1      60.833  -8.810  34.344  0.00  0.00     0.002 A 
ATOM      9  C   UNL d   1      60.223  -8.584  34.835  0.00  0.00     0.001 A 
ENDROOT
BRANCH   1  10
ATOM     10  C   UNL d   1      59.964  -9.818  32.022  0.00  0.00     0.082 C 
BRANCH  10  11
ATOM     11  C   UNL d   1      60.072  -9.346  31.343  0.00  0.00     0.034 C 
BRANCH  11  12
ATOM     12  C   UNL d   1      60.574  -9.591  30.742  0.00  0.00     0.119 C 
BRANCH  12  13
ATOM     13  S   UNL d   1      60.525  -9.236  29.996  0.00  0.00     0.140 S 
ATOM     14  O   UNL d   1      60.473  -8.892  29.265  0.00  0.00    -0.591 OA
ATOM     15  O   UNL d   1      61.130  -8.716  30.204  0.00  0.00    -0.591 OA
ATOM     16  O   UNL d   1      59.918  -9.758  29.788  0.00  0.00    -0.591 OA
ENDBRANCH  12  13
ENDBRANCH  11  12
ENDBRANCH  10  11
ENDBRANCH   1  10
BRANCH   2  17
ATOM     17  S   UNL d   1      58.195  -9.726  32.169  0.00  0.00    -0.089 SA
ATOM     18  C   UNL d   1      57.410  -9.813  32.362  0.00  0.00     0.076 C 
ENDBRANCH   2  17
TORSDOF 5
ENDMDL
