MODEL 1
REMARK VINA RESULT:      -8.2      0.000      0.000
REMARK  5 active torsions:
REMARK  status: ('A' for Active; 'I' for Inactive)
REMARK    1  A    between atoms: N_9  and  C_1 
REMARK    2  A    between atoms: C_12  and  C_2 
REMARK       I    between atoms: C_13  and  N_9 
REMARK    3  A    between atoms: C_11  and  C_14 
REMARK    4  A    between atoms: O_19  and  C_12 
REMARK    5  A    between atoms: C_14  and  C_13 
ROOT
ATOM      1  C   UNL d   1      53.332  33.363  53.743  0.00  0.00     0.119 A 
ATOM      2  C   UNL d   1      52.758  33.977  53.717  0.00  0.00     0.087 A 
ATOM      3  S   UNL d   1      53.889  33.528  54.329  0.00  0.00    -0.068 SA
ATOM      4  C   UNL d   1      52.971  34.513  54.291  0.00  0.00     0.013 A 
ATOM      5  C   UNL d   1      53.668  34.247  54.676  0.00  0.00     0.031 A 
ATOM      6  C   UNL d   1      52.554  35.199  54.450  0.00  0.00     0.001 C 
ATOM      7  C   UNL d   1      54.065  34.630  55.289  0.00  0.00     0.007 C 
ENDROOT
BRANCH   1   8
ATOM      8  N   UNL d   1      53.404  32.669  53.290  0.00  0.00    -0.201 NA
ATOM      9  C   UNL d   1      53.721  31.987  53.626  0.00  0.00     0.280 C 
ATOM     10  O   UNL d   1      53.975  31.980  54.426  0.00  0.00    -0.265 OA
BRANCH   9  11
ATOM     11  C   UNL d   1      53.794  31.281  53.165  0.00  0.00     0.074 C 
BRANCH  11  12
ATOM     12  C   UNL d   1      53.452  30.563  53.417  0.00  0.00     0.095 A 
ATOM     13  C   UNL d   1      52.897  30.140  53.017  0.00  0.00     0.287 A 
ATOM     14  N   UNL d   1      52.715  29.469  53.465  0.00  0.00    -0.181 NA
ATOM     15  O   UNL d   1      52.555  30.332  52.279  0.00  0.00    -0.265 OA
ATOM     16  C   UNL d   1      53.183  29.506  54.150  0.00  0.00     0.217 A 
ATOM     17  S   UNL d   1      53.642  30.194  54.112  0.00  0.00    -0.042 SA
ATOM     18  N   UNL d   1      53.179  28.935  54.766  0.00  0.00    -0.119 N 
ENDBRANCH  11  12
ENDBRANCH   9  11
ENDBRANCH   1   8
BRANCH   2  19
ATOM     19  C   UNL d   1      52.115  34.044  53.232  0.00  0.00     0.298 C 
ATOM     20  O   UNL d   1      52.195  34.428  52.524  0.00  0.00    -0.259 OA
BRANCH  19  21
ATOM     21  O   UNL d   1      51.401  33.729  53.459  0.00  0.00    -0.296 OA
ATOM     22  C   UNL d   1      50.746  33.802  52.979  0.00  0.00     0.185 C 
ENDBRANCH  19  21
ENDBRANCH   2  19
TORSDOF 5
ENDMDL
MODEL 2
REMARK VINA RESULT:      -8.0      1.021      1.906
REMARK  5 active torsions:
REMARK  status: ('A' for Active; 'I' for Inactive)
REMARK    1  A    between atoms: N_9  and  C_1 
REMARK    2  A    between atoms: C_12  and  C_2 
REMARK       I    between atoms: C_13  and  N_9 
REMARK    3  A    between atoms: C_11  and  C_14 
REMARK    4  A    between atoms: O_19  and  C_12 
REMARK    5  A    between atoms: C_14  and  C_13 
ROOT
ATOM      1  C   UNL d   1      53.300  33.235  53.579  0.00  0.00     0.119 A 
ATOM      2  C   UNL d   1      53.467  33.773  54.204  0.00  0.00     0.087 A 
ATOM      3  S   UNL d   1      52.670  33.520  53.128  0.00  0.00    -0.068 SA
ATOM      4  C   UNL d   1      52.934  34.383  54.128  0.00  0.00     0.013 A 
ATOM      5  C   UNL d   1      52.437  34.239  53.468  0.00  0.00     0.031 A 
ATOM      6  C   UNL d   1      52.907  35.028  54.631  0.00  0.00     0.001 C 
ATOM      7  C   UNL d   1      51.825  34.722  53.201  0.00  0.00     0.007 C 
ENDROOT
BRANCH   1   8
ATOM      8  N   UNL d   1      53.659  32.514  53.375  0.00  0.00    -0.201 NA
ATOM      9  C   UNL d   1      53.196  31.866  53.163  0.00  0.00     0.280 C 
ATOM     10  O   UNL d   1      52.358  31.922  53.151  0.00  0.00    -0.265 OA
BRANCH   9  11
ATOM     11  C   UNL d   1      53.561  31.131  52.955  0.00  0.00     0.074 C 
BRANCH  11  12
ATOM     12  C   UNL d   1      53.328  30.416  53.314  0.00  0.00     0.095 A 
ATOM     13  C   UNL d   1      52.937  29.813  52.953  0.00  0.00     0.287 A 
ATOM     14  N   UNL d   1      52.818  29.214  53.511  0.00  0.00    -0.181 NA
ATOM     15  O   UNL d   1      52.688  29.783  52.156  0.00  0.00    -0.265 OA
ATOM     16  C   UNL d   1      53.154  29.481  54.222  0.00  0.00     0.217 A 
ATOM     17  S   UNL d   1      53.471  30.235  54.090  0.00  0.00    -0.042 SA
ATOM     18  N   UNL d   1      53.161  29.049  54.943  0.00  0.00    -0.119 N 
ENDBRANCH  11  12
ENDBRANCH   9  11
ENDBRANCH   1   8
BRANCH   2  19
ATOM     19  C   UNL d   1      54.035  33.718  54.777  0.00  0.00     0.298 C 
ATOM     20  O   UNL d   1      53.827  33.455  55.513  0.00  0.00    -0.259 OA
BRANCH  19  21
ATOM     21  O   UNL d   1      54.802  33.926  54.607  0.00  0.00    -0.296 OA
ATOM     22  C   UNL d   1      55.384  33.851  55.172  0.00  0.00     0.185 C 
ENDBRANCH  19  21
ENDBRANCH   2  19
TORSDOF 5
ENDMDL
MODEL 3
REMARK VINA RESULT:      -7.4      1.842      4.249
REMARK  5 active torsions:
REMARK  status: ('A' for Active; 'I' for Inactive)
REMARK    1  A    between atoms: N_9  and  C_1 
REMARK    2  A    between atoms: C_12  and  C_2 
REMARK       I    between atoms: C_13  and  N_9 
REMARK    3  A    between atoms: C_11  and  C_14 
REMARK    4  A    between atoms: O_19  and  C_12 
REMARK    5  A    between atoms: C_14  and  C_13 
ROOT
ATOM      1  C   UNL d   1      53.007  32.004  53.050  0.00  0.00     0.119 A 
ATOM      2  C   UNL d   1      53.562  31.765  53.635  0.00  0.00     0.087 A 
ATOM      3  S   UNL d   1      52.599  31.345  52.769  0.00  0.00    -0.068 SA
ATOM      4  C   UNL d   1      53.486  30.958  53.706  0.00  0.00     0.013 A 
ATOM      5  C   UNL d   1      52.895  30.687  53.176  0.00  0.00     0.031 A 
ATOM      6  C   UNL d   1      53.929  30.502  54.221  0.00  0.00     0.001 C 
ATOM      7  C   UNL d   1      52.648  29.906  53.075  0.00  0.00     0.007 C 
ENDROOT
BRANCH   1   8
ATOM      8  N   UNL d   1      52.833  32.757  52.744  0.00  0.00    -0.201 NA
ATOM      9  C   UNL d   1      52.052  33.012  52.691  0.00  0.00     0.280 C 
ATOM     10  O   UNL d   1      51.420  32.519  52.943  0.00  0.00    -0.265 OA
BRANCH   9  11
ATOM     11  C   UNL d   1      51.874  33.779  52.380  0.00  0.00     0.074 C 
BRANCH  11  12
ATOM     12  C   UNL d   1      51.256  34.241  52.696  0.00  0.00     0.095 A 
ATOM     13  C   UNL d   1      51.340  34.846  53.219  0.00  0.00     0.287 A 
ATOM     14  N   UNL d   1      50.588  35.149  53.383  0.00  0.00    -0.181 NA
ATOM     15  O   UNL d   1      52.053  35.130  53.547  0.00  0.00    -0.265 OA
ATOM     16  C   UNL d   1      50.048  34.701  52.937  0.00  0.00     0.217 A 
ATOM     17  S   UNL d   1      50.475  34.134  52.510  0.00  0.00    -0.042 SA
ATOM     18  N   UNL d   1      49.216  34.816  52.933  0.00  0.00    -0.119 N 
ENDBRANCH  11  12
ENDBRANCH   9  11
ENDBRANCH   1   8
BRANCH   2  19
ATOM     19  C   UNL d   1      54.078  32.223  54.057  0.00  0.00     0.298 C 
ATOM     20  O   UNL d   1      54.766  32.465  53.708  0.00  0.00    -0.259 OA
BRANCH  19  21
ATOM     21  O   UNL d   1      53.899  32.434  54.822  0.00  0.00    -0.296 OA
ATOM     22  C   UNL d   1      54.365  32.971  55.221  0.00  0.00     0.185 C 
ENDBRANCH  19  21
ENDBRANCH   2  19
TORSDOF 5
ENDMDL
MODEL 4
REMARK VINA RESULT:      -6.7      1.934      3.890
REMARK  5 active torsions:
REMARK  status: ('A' for Active; 'I' for Inactive)
REMARK    1  A    between atoms: N_9  and  C_1 
REMARK    2  A    between atoms: C_12  and  C_2 
REMARK       I    between atoms: C_13  and  N_9 
REMARK    3  A    between atoms: C_11  and  C_14 
REMARK    4  A    between atoms: O_19  and  C_12 
REMARK    5  A    between atoms: C_14  and  C_13 
ROOT
ATOM      1  C   UNL d   1      52.955  33.489  53.930  0.00  0.00     0.119 A 
ATOM      2  C   UNL d   1      53.651  33.061  54.131  0.00  0.00     0.087 A 
ATOM      3  S   UNL d   1      52.927  34.191  54.363  0.00  0.00    -0.068 SA
ATOM      4  C   UNL d   1      54.043  33.508  54.686  0.00  0.00     0.013 A 
ATOM      5  C   UNL d   1      53.606  34.209  54.837  0.00  0.00     0.031 A 
ATOM      6  C   UNL d   1      54.752  33.288  55.029  0.00  0.00     0.001 C 
ATOM      7  C   UNL d   1      53.812  34.810  55.363  0.00  0.00     0.007 C 
ENDROOT
BRANCH   1   8
ATOM      8  N   UNL d   1      52.343  33.309  53.397  0.00  0.00    -0.201 NA
ATOM      9  C   UNL d   1      51.999  33.906  52.946  0.00  0.00     0.280 C 
ATOM     10  O   UNL d   1      52.259  34.702  53.015  0.00  0.00    -0.265 OA
BRANCH   9  11
ATOM     11  C   UNL d   1      51.376  33.723  52.403  0.00  0.00     0.074 C 
BRANCH  11  12
ATOM     12  C   UNL d   1      50.663  34.156  52.401  0.00  0.00     0.095 A 
ATOM     13  C   UNL d   1      50.235  34.356  51.750  0.00  0.00     0.287 A 
ATOM     14  N   UNL d   1      49.573  34.782  52.000  0.00  0.00    -0.181 NA
ATOM     15  O   UNL d   1      50.415  34.172  50.955  0.00  0.00    -0.265 OA
ATOM     16  C   UNL d   1      49.619  34.831  52.828  0.00  0.00     0.217 A 
ATOM     17  S   UNL d   1      50.306  34.436  53.071  0.00  0.00    -0.042 SA
ATOM     18  N   UNL d   1      49.059  35.218  53.320  0.00  0.00    -0.119 N 
ENDBRANCH  11  12
ENDBRANCH   9  11
ENDBRANCH   1   8
BRANCH   2  19
ATOM     19  C   UNL d   1      53.903  32.347  53.845  0.00  0.00     0.298 C 
ATOM     20  O   UNL d   1      54.488  32.332  53.287  0.00  0.00    -0.259 OA
BRANCH  19  21
ATOM     21  O   UNL d   1      53.567  31.660  54.120  0.00  0.00    -0.296 OA
ATOM     22  C   UNL d   1      53.733  30.948  53.760  0.00  0.00     0.185 C 
ENDBRANCH  19  21
ENDBRANCH   2  19
TORSDOF 5
ENDMDL
MODEL 5
REMARK VINA RESULT:      -6.2      2.125      3.928
REMARK  5 active torsions:
REMARK  status: ('A' for Active; 'I' for Inactive)
REMARK    1  A    between atoms: N_9  and  C_1 
REMARK    2  A    between atoms: C_12  and  C_2 
REMARK       I    between atoms: C_13  and  N_9 
REMARK    3  A    between atoms: C_11  and  C_14 
REMARK    4  A    between atoms: O_19  and  C_12 
REMARK    5  A    between atoms: C_14  and  C_13 
ROOT
ATOM      1  C   UNL d   1      53.087  33.322  53.469  0.00  0.00     0.119 A 
ATOM      2  C   UNL d   1      53.518  33.489  54.172  0.00  0.00     0.087 A 
ATOM      3  S   UNL d   1      53.093  32.509  53.327  0.00  0.00    -0.068 SA
ATOM      4  C   UNL d   1      53.785  32.773  54.452  0.00  0.00     0.013 A 
ATOM      5  C   UNL d   1      53.528  32.161  53.940  0.00  0.00     0.031 A 
ATOM      6  C   UNL d   1      54.232  32.689  55.133  0.00  0.00     0.001 C 
ATOM      7  C   UNL d   1      53.680  31.355  54.026  0.00  0.00     0.007 C 
ENDROOT
BRANCH   1   8
ATOM      8  N   UNL d   1      52.689  33.829  52.945  0.00  0.00    -0.201 NA
ATOM      9  C   UNL d   1      51.931  33.641  52.682  0.00  0.00     0.280 C 
ATOM     10  O   UNL d   1      51.549  32.938  52.938  0.00  0.00    -0.265 OA
BRANCH   9  11
ATOM     11  C   UNL d   1      51.526  34.157  52.147  0.00  0.00     0.074 C 
BRANCH  11  12
ATOM     12  C   UNL d   1      50.732  34.377  52.278  0.00  0.00     0.095 A 
ATOM     13  C   UNL d   1      50.143  34.362  51.730  0.00  0.00     0.287 A 
ATOM     14  N   UNL d   1      49.448  34.624  52.094  0.00  0.00    -0.181 NA
ATOM     15  O   UNL d   1      50.206  34.124  50.932  0.00  0.00    -0.265 OA
ATOM     16  C   UNL d   1      49.643  34.799  52.883  0.00  0.00     0.217 A 
ATOM     17  S   UNL d   1      50.450  34.641  52.989  0.00  0.00    -0.042 SA
ATOM     18  N   UNL d   1      49.104  35.085  53.460  0.00  0.00    -0.119 N 
ENDBRANCH  11  12
ENDBRANCH   9  11
ENDBRANCH   1   8
BRANCH   2  19
ATOM     19  C   UNL d   1      53.656  34.206  54.519  0.00  0.00     0.298 C 
ATOM     20  O   UNL d   1      54.284  34.651  54.269  0.00  0.00    -0.259 OA
BRANCH  19  21
ATOM     21  O   UNL d   1      53.165  34.470  55.111  0.00  0.00    -0.296 OA
ATOM     22  C   UNL d   1      53.243  35.226  55.404  0.00  0.00     0.185 C 
ENDBRANCH  19  21
ENDBRANCH   2  19
TORSDOF 5
ENDMDL
MODEL 6
REMARK VINA RESULT:      -6.2      1.504      3.909
REMARK  5 active torsions:
REMARK  status: ('A' for Active; 'I' for Inactive)
REMARK    1  A    between atoms: N_9  and  C_1 
REMARK    2  A    between atoms: C_12  and  C_2 
REMARK       I    between atoms: C_13  and  N_9 
REMARK    3  A    between atoms: C_11  and  C_14 
REMARK    4  A    between atoms: O_19  and  C_12 
REMARK    5  A    between atoms: C_14  and  C_13 
ROOT
ATOM      1  C   UNL d   1      53.556  31.260  53.576  0.00  0.00     0.119 A 
ATOM      2  C   UNL d   1      52.811  31.049  53.247  0.00  0.00     0.087 A 
ATOM      3  S   UNL d   1      53.885  30.608  53.960  0.00  0.00    -0.068 SA
ATOM      4  C   UNL d   1      52.692  30.267  53.436  0.00  0.00     0.013 A 
ATOM      5  C   UNL d   1      53.348  29.983  53.875  0.00  0.00     0.031 A 
ATOM      6  C   UNL d   1      52.027  29.843  53.218  0.00  0.00     0.001 C 
ATOM      7  C   UNL d   1      53.445  29.220  54.173  0.00  0.00     0.007 C 
ENDROOT
BRANCH   1   8
ATOM      8  N   UNL d   1      53.969  31.981  53.563  0.00  0.00    -0.201 NA
ATOM      9  C   UNL d   1      54.183  32.349  54.268  0.00  0.00     0.280 C 
ATOM     10  O   UNL d   1      53.989  32.003  55.009  0.00  0.00    -0.265 OA
BRANCH   9  11
ATOM     11  C   UNL d   1      54.603  33.083  54.256  0.00  0.00     0.074 C 
BRANCH  11  12
ATOM     12  C   UNL d   1      54.294  33.764  54.625  0.00  0.00     0.095 A 
ATOM     13  C   UNL d   1      54.657  34.193  55.201  0.00  0.00     0.287 A 
ATOM     14  N   UNL d   1      54.157  34.819  55.407  0.00  0.00    -0.181 NA
ATOM     15  O   UNL d   1      55.404  34.044  55.542  0.00  0.00    -0.265 OA
ATOM     16  C   UNL d   1      53.480  34.750  54.930  0.00  0.00     0.217 A 
ATOM     17  S   UNL d   1      53.575  34.087  54.443  0.00  0.00    -0.042 SA
ATOM     18  N   UNL d   1      52.822  35.272  54.951  0.00  0.00    -0.119 N 
ENDBRANCH  11  12
ENDBRANCH   9  11
ENDBRANCH   1   8
BRANCH   2  19
ATOM     19  C   UNL d   1      52.298  31.511  52.826  0.00  0.00     0.298 C 
ATOM     20  O   UNL d   1      52.471  31.689  52.056  0.00  0.00    -0.259 OA
BRANCH  19  21
ATOM     21  O   UNL d   1      51.620  31.788  53.179  0.00  0.00    -0.296 OA
ATOM     22  C   UNL d   1      51.175  32.367  52.817  0.00  0.00     0.185 C 
ENDBRANCH  19  21
ENDBRANCH   2  19
TORSDOF 5
ENDMDL
