MODEL 1
REMARK VINA RESULT:      -7.8      0.000      0.000
REMARK  0 active torsions:
REMARK  status: ('A' for Active; 'I' for Inactive)
ROOT
ATOM      1  N   UNL d   1     -47.067  13.314  22.197  0.00  0.00    -0.202 NA
ATOM      2  N   UNL d   1     -47.193  12.163  23.362  0.00  0.00    -0.202 NA
ATOM      3  C   UNL d   1     -46.473  12.540  23.239  0.00  0.00     0.337 A 
ATOM      4  C   UNL d   1     -46.407  13.121  22.653  0.00  0.00     0.337 A 
ATOM      5  C   UNL d   1     -47.843  12.359  22.907  0.00  0.00     0.102 A 
ATOM      6  C   UNL d   1     -47.779  12.931  22.329  0.00  0.00     0.102 A 
ATOM      7  C   UNL d   1     -48.433  13.134  21.866  0.00  0.00     0.021 A 
ATOM      8  C   UNL d   1     -48.564  11.973  23.039  0.00  0.00     0.021 A 
ATOM      9  C   UNL d   1     -49.221  12.177  22.573  0.00  0.00     0.002 A 
ATOM     10  C   UNL d   1     -49.156  12.754  21.990  0.00  0.00     0.002 A 
ATOM     11  O   UNL d   1     -45.818  12.344  23.696  0.00  0.00    -0.260 OA
ATOM     12  O   UNL d   1     -45.687  13.501  22.527  0.00  0.00    -0.260 OA
ATOM     13  C   UNL d   1     -49.811  12.952  21.531  0.00  0.00     0.000 C 
ATOM     14  C   UNL d   1     -49.935  11.798  22.700  0.00  0.00     0.000 C 
ENDROOT
TORSDOF 0
ENDMDL
MODEL 2
REMARK VINA RESULT:      -7.6      1.334      1.906
REMARK  0 active torsions:
REMARK  status: ('A' for Active; 'I' for Inactive)
ROOT
ATOM      1  N   UNL d   1     -46.188  12.814  23.319  0.00  0.00    -0.202 NA
ATOM      2  N   UNL d   1     -47.613  11.996  23.316  0.00  0.00    -0.202 NA
ATOM      3  C   UNL d   1     -46.918  11.601  23.505  0.00  0.00     0.337 A 
ATOM      4  C   UNL d   1     -46.198  12.011  23.508  0.00  0.00     0.337 A 
ATOM      5  C   UNL d   1     -47.596  12.793  23.129  0.00  0.00     0.102 A 
ATOM      6  C   UNL d   1     -46.887  13.197  23.132  0.00  0.00     0.102 A 
ATOM      7  C   UNL d   1     -46.863  14.002  22.944  0.00  0.00     0.021 A 
ATOM      8  C   UNL d   1     -48.302  13.182  22.939  0.00  0.00     0.021 A 
ATOM      9  C   UNL d   1     -48.277  13.991  22.751  0.00  0.00     0.002 A 
ATOM     10  C   UNL d   1     -47.562  14.398  22.753  0.00  0.00     0.002 A 
ATOM     11  O   UNL d   1     -46.933  10.801  23.693  0.00  0.00    -0.260 OA
ATOM     12  O   UNL d   1     -45.500  11.618  23.698  0.00  0.00    -0.260 OA
ATOM     13  C   UNL d   1     -47.545  15.201  22.566  0.00  0.00     0.000 C 
ATOM     14  C   UNL d   1     -48.973  14.379  22.562  0.00  0.00     0.000 C 
ENDROOT
TORSDOF 0
ENDMDL
MODEL 3
REMARK VINA RESULT:      -7.4      1.688      2.767
REMARK  0 active torsions:
REMARK  status: ('A' for Active; 'I' for Inactive)
ROOT
ATOM      1  N   UNL d   1     -47.496  11.939  23.414  0.00  0.00    -0.202 NA
ATOM      2  N   UNL d   1     -48.948  12.605  23.027  0.00  0.00    -0.202 NA
ATOM      3  C   UNL d   1     -48.911  11.819  23.264  0.00  0.00     0.337 A 
ATOM      4  C   UNL d   1     -48.181  11.481  23.459  0.00  0.00     0.337 A 
ATOM      5  C   UNL d   1     -48.265  13.054  22.984  0.00  0.00     0.102 A 
ATOM      6  C   UNL d   1     -47.546  12.721  23.176  0.00  0.00     0.102 A 
ATOM      7  C   UNL d   1     -46.852  13.170  23.135  0.00  0.00     0.021 A 
ATOM      8  C   UNL d   1     -48.313  13.845  22.744  0.00  0.00     0.021 A 
ATOM      9  C   UNL d   1     -47.615  14.295  22.702  0.00  0.00     0.002 A 
ATOM     10  C   UNL d   1     -46.890  13.960  22.897  0.00  0.00     0.002 A 
ATOM     11  O   UNL d   1     -49.596  11.366  23.307  0.00  0.00    -0.260 OA
ATOM     12  O   UNL d   1     -48.141  10.693  23.697  0.00  0.00    -0.260 OA
ATOM     13  C   UNL d   1     -46.202  14.412  22.853  0.00  0.00     0.000 C 
ATOM     14  C   UNL d   1     -47.658  15.078  22.465  0.00  0.00     0.000 C 
ENDROOT
TORSDOF 0
ENDMDL
MODEL 4
REMARK VINA RESULT:      -7.4      2.416      3.137
REMARK  0 active torsions:
REMARK  status: ('A' for Active; 'I' for Inactive)
ROOT
ATOM      1  N   UNL d   1     -48.556  15.092  22.606  0.00  0.00    -0.202 NA
ATOM      2  N   UNL d   1     -49.292  13.724  23.141  0.00  0.00    -0.202 NA
ATOM      3  C   UNL d   1     -49.743  14.392  22.979  0.00  0.00     0.337 A 
ATOM      4  C   UNL d   1     -49.375  15.082  22.710  0.00  0.00     0.337 A 
ATOM      5  C   UNL d   1     -48.481  13.740  23.037  0.00  0.00     0.102 A 
ATOM      6  C   UNL d   1     -48.118  14.420  22.771  0.00  0.00     0.102 A 
ATOM      7  C   UNL d   1     -47.298  14.442  22.663  0.00  0.00     0.021 A 
ATOM      8  C   UNL d   1     -48.036  13.061  23.203  0.00  0.00     0.021 A 
ATOM      9  C   UNL d   1     -47.212  13.085  23.094  0.00  0.00     0.002 A 
ATOM     10  C   UNL d   1     -46.846  13.771  22.826  0.00  0.00     0.002 A 
ATOM     11  O   UNL d   1     -50.559  14.377  23.084  0.00  0.00    -0.260 OA
ATOM     12  O   UNL d   1     -49.824  15.754  22.547  0.00  0.00    -0.260 OA
ATOM     13  C   UNL d   1     -46.029  13.787  22.721  0.00  0.00     0.000 C 
ATOM     14  C   UNL d   1     -46.768  12.416  23.257  0.00  0.00     0.000 C 
ENDROOT
TORSDOF 0
ENDMDL
MODEL 5
REMARK VINA RESULT:      -7.3      2.147      3.285
REMARK  0 active torsions:
REMARK  status: ('A' for Active; 'I' for Inactive)
ROOT
ATOM      1  N   UNL d   1     -49.053  11.431  23.685  0.00  0.00    -0.202 NA
ATOM      2  N   UNL d   1     -49.054  12.923  22.999  0.00  0.00    -0.202 NA
ATOM      3  C   UNL d   1     -49.768  12.552  23.167  0.00  0.00     0.337 A 
ATOM      4  C   UNL d   1     -49.770  11.800  23.513  0.00  0.00     0.337 A 
ATOM      5  C   UNL d   1     -48.346  12.551  23.173  0.00  0.00     0.102 A 
ATOM      6  C   UNL d   1     -48.348  11.811  23.513  0.00  0.00     0.102 A 
ATOM      7  C   UNL d   1     -47.636  11.430  23.691  0.00  0.00     0.021 A 
ATOM      8  C   UNL d   1     -47.632  12.935  22.999  0.00  0.00     0.021 A 
ATOM      9  C   UNL d   1     -46.917  12.551  23.179  0.00  0.00     0.002 A 
ATOM     10  C   UNL d   1     -46.919  11.804  23.522  0.00  0.00     0.002 A 
ATOM     11  O   UNL d   1     -50.480  12.924  22.993  0.00  0.00    -0.260 OA
ATOM     12  O   UNL d   1     -50.484  11.425  23.682  0.00  0.00    -0.260 OA
ATOM     13  C   UNL d   1     -46.206  11.430  23.697  0.00  0.00     0.000 C 
ATOM     14  C   UNL d   1     -46.209  12.926  23.009  0.00  0.00     0.000 C 
ENDROOT
TORSDOF 0
ENDMDL
MODEL 6
REMARK VINA RESULT:      -7.3      1.665      2.409
REMARK  0 active torsions:
REMARK  status: ('A' for Active; 'I' for Inactive)
ROOT
ATOM      1  N   UNL d   1     -48.533  14.048  22.709  0.00  0.00    -0.202 NA
ATOM      2  N   UNL d   1     -46.903  14.183  22.862  0.00  0.00    -0.202 NA
ATOM      3  C   UNL d   1     -47.343  14.831  22.614  0.00  0.00     0.337 A 
ATOM      4  C   UNL d   1     -48.165  14.766  22.537  0.00  0.00     0.337 A 
ATOM      5  C   UNL d   1     -47.275  13.474  23.032  0.00  0.00     0.102 A 
ATOM      6  C   UNL d   1     -48.084  13.409  22.955  0.00  0.00     0.102 A 
ATOM      7  C   UNL d   1     -48.465  12.696  23.125  0.00  0.00     0.021 A 
ATOM      8  C   UNL d   1     -46.822  12.826  23.281  0.00  0.00     0.021 A 
ATOM      9  C   UNL d   1     -47.206  12.109  23.452  0.00  0.00     0.002 A 
ATOM     10  C   UNL d   1     -48.022  12.045  23.374  0.00  0.00     0.002 A 
ATOM     11  O   UNL d   1     -46.972  15.544  22.444  0.00  0.00    -0.260 OA
ATOM     12  O   UNL d   1     -48.609  15.414  22.288  0.00  0.00    -0.260 OA
ATOM     13  C   UNL d   1     -48.396  11.330  23.545  0.00  0.00     0.000 C 
ATOM     14  C   UNL d   1     -46.762  11.467  23.698  0.00  0.00     0.000 C 
ENDROOT
TORSDOF 0
ENDMDL
MODEL 7
REMARK VINA RESULT:      -6.9      2.160      3.289
REMARK  0 active torsions:
REMARK  status: ('A' for Active; 'I' for Inactive)
ROOT
ATOM      1  N   UNL d   1     -49.024  12.623  22.074  0.00  0.00    -0.202 NA
ATOM      2  N   UNL d   1     -49.138  14.262  22.076  0.00  0.00    -0.202 NA
ATOM      3  C   UNL d   1     -49.785  13.810  21.848  0.00  0.00     0.337 A 
ATOM      4  C   UNL d   1     -49.730  12.984  21.847  0.00  0.00     0.337 A 
ATOM      5  C   UNL d   1     -48.440  13.898  22.300  0.00  0.00     0.102 A 
ATOM      6  C   UNL d   1     -48.386  13.085  22.299  0.00  0.00     0.102 A 
ATOM      7  C   UNL d   1     -47.684  12.711  22.525  0.00  0.00     0.021 A 
ATOM      8  C   UNL d   1     -47.793  14.364  22.528  0.00  0.00     0.021 A 
ATOM      9  C   UNL d   1     -47.088  13.987  22.755  0.00  0.00     0.002 A 
ATOM     10  C   UNL d   1     -47.033  13.167  22.753  0.00  0.00     0.002 A 
ATOM     11  O   UNL d   1     -50.487  14.174  21.623  0.00  0.00    -0.260 OA
ATOM     12  O   UNL d   1     -50.378  12.528  21.619  0.00  0.00    -0.260 OA
ATOM     13  C   UNL d   1     -46.331  12.800  22.979  0.00  0.00     0.000 C 
ATOM     14  C   UNL d   1     -46.446  14.443  22.980  0.00  0.00     0.000 C 
ENDROOT
TORSDOF 0
ENDMDL
MODEL 8
REMARK VINA RESULT:      -5.8      8.260      8.752
REMARK  0 active torsions:
REMARK  status: ('A' for Active; 'I' for Inactive)
ROOT
ATOM      1  N   UNL d   1     -40.565  14.136  18.628  0.00  0.00    -0.202 NA
ATOM      2  N   UNL d   1     -40.605  15.776  18.552  0.00  0.00    -0.202 NA
ATOM      3  C   UNL d   1     -40.656  15.336  17.860  0.00  0.00     0.337 A 
ATOM      4  C   UNL d   1     -40.636  14.509  17.896  0.00  0.00     0.337 A 
ATOM      5  C   UNL d   1     -40.534  15.400  19.275  0.00  0.00     0.102 A 
ATOM      6  C   UNL d   1     -40.514  14.586  19.311  0.00  0.00     0.102 A 
ATOM      7  C   UNL d   1     -40.443  14.200  20.038  0.00  0.00     0.021 A 
ATOM      8  C   UNL d   1     -40.483  15.854  19.966  0.00  0.00     0.021 A 
ATOM      9  C   UNL d   1     -40.411  15.465  20.697  0.00  0.00     0.002 A 
ATOM     10  C   UNL d   1     -40.391  14.644  20.733  0.00  0.00     0.002 A 
ATOM     11  O   UNL d   1     -40.728  15.712  17.132  0.00  0.00    -0.260 OA
ATOM     12  O   UNL d   1     -40.688  14.064  17.204  0.00  0.00    -0.260 OA
ATOM     13  C   UNL d   1     -40.320  14.265  21.462  0.00  0.00     0.000 C 
ATOM     14  C   UNL d   1     -40.360  15.909  21.383  0.00  0.00     0.000 C 
ENDROOT
TORSDOF 0
ENDMDL
MODEL 9
REMARK VINA RESULT:      -5.5      8.765     10.263
REMARK  0 active torsions:
REMARK  status: ('A' for Active; 'I' for Inactive)
ROOT
ATOM      1  N   UNL d   1     -40.023  13.930  18.441  0.00  0.00    -0.202 NA
ATOM      2  N   UNL d   1     -40.019  14.950  17.152  0.00  0.00    -0.202 NA
ATOM      3  C   UNL d   1     -40.542  15.080  17.773  0.00  0.00     0.337 A 
ATOM      4  C   UNL d   1     -40.546  14.568  18.423  0.00  0.00     0.337 A 
ATOM      5  C   UNL d   1     -39.503  14.315  17.176  0.00  0.00     0.102 A 
ATOM      6  C   UNL d   1     -39.506  13.811  17.816  0.00  0.00     0.102 A 
ATOM      7  C   UNL d   1     -38.987  13.168  17.846  0.00  0.00     0.021 A 
ATOM      8  C   UNL d   1     -38.980  14.193  16.545  0.00  0.00     0.021 A 
ATOM      9  C   UNL d   1     -38.458  13.546  16.576  0.00  0.00     0.002 A 
ATOM     10  C   UNL d   1     -38.462  13.038  17.222  0.00  0.00     0.002 A 
ATOM     11  O   UNL d   1     -41.062  15.717  17.751  0.00  0.00    -0.260 OA
ATOM     12  O   UNL d   1     -41.069  14.696  19.047  0.00  0.00    -0.260 OA
ATOM     13  C   UNL d   1     -37.942  12.399  17.246  0.00  0.00     0.000 C 
ATOM     14  C   UNL d   1     -37.940  13.421  15.955  0.00  0.00     0.000 C 
ENDROOT
TORSDOF 0
ENDMDL
