MODEL 1
REMARK VINA RESULT:      -7.1      0.000      0.000
REMARK  3 active torsions:
REMARK  status: ('A' for Active; 'I' for Inactive)
REMARK       I    between atoms: C_2  and  N_1 
REMARK    1  A    between atoms: C_5  and  C_2 
REMARK    2  A    between atoms: S_8  and  C_3 
REMARK    3  A    between atoms: O_13  and  C_11 
ROOT
ATOM      1  N   UNL d   1     -48.778  13.580  22.228  0.00  0.00    -0.251 N 
ATOM      2  C   UNL d   1     -48.266  13.813  22.825  0.00  0.00     0.266 C 
ATOM      3  C   UNL d   1     -49.505  13.924  22.046  0.00  0.00     0.178 A 
ATOM      4  N   UNL d   1     -49.821  13.515  21.415  0.00  0.00    -0.219 NA
ATOM      5  O   UNL d   1     -48.459  14.447  23.313  0.00  0.00    -0.267 OA
ATOM      6  C   UNL d   1     -48.650  12.954  21.701  0.00  0.00     0.106 A 
ATOM      7  C   UNL d   1     -49.303  12.918  21.198  0.00  0.00     0.120 A 
ENDROOT
BRANCH   2   8
ATOM      8  C   UNL d   1     -47.554  13.410  22.940  0.00  0.00     0.059 A 
ATOM      9  C   UNL d   1     -46.859  13.718  22.620  0.00  0.00     0.029 A 
ATOM     10  C   UNL d   1     -46.163  13.317  22.737  0.00  0.00     0.094 A 
ATOM     11  C   UNL d   1     -46.150  12.607  23.172  0.00  0.00     0.024 A 
ATOM     12  C   UNL d   1     -46.829  12.308  23.483  0.00  0.00     0.002 A 
ATOM     13  C   UNL d   1     -47.545  12.711  23.369  0.00  0.00     0.005 A 
BRANCH  10  14
ATOM     14  O   UNL d   1     -45.464  13.618  22.421  0.00  0.00    -0.328 OA
ATOM     15  C   UNL d   1     -44.957  13.134  21.991  0.00  0.00     0.181 C 
ENDBRANCH  10  14
ENDBRANCH   2   8
BRANCH   3  16
ATOM     16  S   UNL d   1     -49.837  14.561  22.436  0.00  0.00    -0.076 SA
ATOM     17  C   UNL d   1     -50.609  14.801  22.264  0.00  0.00     0.077 C 
ENDBRANCH   3  16
TORSDOF 3
ENDMDL
MODEL 2
REMARK VINA RESULT:      -7.1      2.059      3.873
REMARK  3 active torsions:
REMARK  status: ('A' for Active; 'I' for Inactive)
REMARK       I    between atoms: C_2  and  N_1 
REMARK    1  A    between atoms: C_5  and  C_2 
REMARK    2  A    between atoms: S_8  and  C_3 
REMARK    3  A    between atoms: O_13  and  C_11 
ROOT
ATOM      1  N   UNL d   1     -47.422  12.295  23.185  0.00  0.00    -0.251 N 
ATOM      2  C   UNL d   1     -48.107  11.847  23.133  0.00  0.00     0.266 C 
ATOM      3  C   UNL d   1     -46.683  12.030  23.437  0.00  0.00     0.178 A 
ATOM      4  N   UNL d   1     -46.167  12.661  23.399  0.00  0.00    -0.219 NA
ATOM      5  O   UNL d   1     -48.099  11.051  23.343  0.00  0.00    -0.267 OA
ATOM      6  C   UNL d   1     -47.356  13.097  22.992  0.00  0.00     0.106 A 
ATOM      7  C   UNL d   1     -46.572  13.320  23.127  0.00  0.00     0.120 A 
ENDROOT
BRANCH   2   8
ATOM      8  C   UNL d   1     -48.809  12.193  22.869  0.00  0.00     0.059 A 
ATOM      9  C   UNL d   1     -49.309  12.559  23.412  0.00  0.00     0.029 A 
ATOM     10  C   UNL d   1     -49.997  12.897  23.145  0.00  0.00     0.094 A 
ATOM     11  C   UNL d   1     -50.195  12.875  22.336  0.00  0.00     0.024 A 
ATOM     12  C   UNL d   1     -49.705  12.518  21.808  0.00  0.00     0.002 A 
ATOM     13  C   UNL d   1     -49.000  12.170  22.071  0.00  0.00     0.005 A 
BRANCH  10  14
ATOM     14  O   UNL d   1     -50.504  13.264  23.681  0.00  0.00    -0.328 OA
ATOM     15  C   UNL d   1     -51.031  13.842  23.430  0.00  0.00     0.181 C 
ENDBRANCH  10  14
ENDBRANCH   2   8
BRANCH   3  16
ATOM     16  S   UNL d   1     -46.511  11.268  23.678  0.00  0.00    -0.076 SA
ATOM     17  C   UNL d   1     -45.730  11.000  23.693  0.00  0.00     0.077 C 
ENDBRANCH   3  16
TORSDOF 3
ENDMDL
MODEL 3
REMARK VINA RESULT:      -6.8      1.710      3.466
REMARK  3 active torsions:
REMARK  status: ('A' for Active; 'I' for Inactive)
REMARK       I    between atoms: C_2  and  N_1 
REMARK    1  A    between atoms: C_5  and  C_2 
REMARK    2  A    between atoms: S_8  and  C_3 
REMARK    3  A    between atoms: O_13  and  C_11 
ROOT
ATOM      1  N   UNL d   1     -48.206  12.675  23.214  0.00  0.00    -0.251 N 
ATOM      2  C   UNL d   1     -47.996  13.410  22.919  0.00  0.00     0.266 C 
ATOM      3  C   UNL d   1     -47.689  12.072  23.437  0.00  0.00     0.178 A 
ATOM      4  N   UNL d   1     -48.140  11.442  23.697  0.00  0.00    -0.219 NA
ATOM      5  O   UNL d   1     -47.202  13.606  22.819  0.00  0.00    -0.267 OA
ATOM      6  C   UNL d   1     -48.980  12.410  23.341  0.00  0.00     0.106 A 
ATOM      7  C   UNL d   1     -48.933  11.643  23.641  0.00  0.00     0.120 A 
ENDROOT
BRANCH   2   8
ATOM      8  C   UNL d   1     -48.580  13.958  22.720  0.00  0.00     0.059 A 
ATOM      9  C   UNL d   1     -48.778  14.553  23.256  0.00  0.00     0.029 A 
ATOM     10  C   UNL d   1     -49.353  15.088  23.053  0.00  0.00     0.094 A 
ATOM     11  C   UNL d   1     -49.738  15.038  22.316  0.00  0.00     0.024 A 
ATOM     12  C   UNL d   1     -49.544  14.458  21.794  0.00  0.00     0.002 A 
ATOM     13  C   UNL d   1     -48.957  13.906  21.993  0.00  0.00     0.005 A 
BRANCH  10  14
ATOM     14  O   UNL d   1     -49.557  15.685  23.583  0.00  0.00    -0.328 OA
ATOM     15  C   UNL d   1     -50.344  15.892  23.697  0.00  0.00     0.181 C 
ENDBRANCH  10  14
ENDBRANCH   2   8
BRANCH   3  16
ATOM     16  S   UNL d   1     -46.873  12.109  23.399  0.00  0.00    -0.076 SA
ATOM     17  C   UNL d   1     -46.412  11.480  23.668  0.00  0.00     0.077 C 
ENDBRANCH   3  16
TORSDOF 3
ENDMDL
MODEL 4
REMARK VINA RESULT:      -6.4      1.683      2.178
REMARK  3 active torsions:
REMARK  status: ('A' for Active; 'I' for Inactive)
REMARK       I    between atoms: C_2  and  N_1 
REMARK    1  A    between atoms: C_5  and  C_2 
REMARK    2  A    between atoms: S_8  and  C_3 
REMARK    3  A    between atoms: O_13  and  C_11 
ROOT
ATOM      1  N   UNL d   1     -49.432  14.173  22.961  0.00  0.00    -0.251 N 
ATOM      2  C   UNL d   1     -49.629  13.415  23.203  0.00  0.00     0.266 C 
ATOM      3  C   UNL d   1     -49.830  14.868  23.159  0.00  0.00     0.178 A 
ATOM      4  N   UNL d   1     -49.443  15.488  22.796  0.00  0.00    -0.219 NA
ATOM      5  O   UNL d   1     -50.280  13.291  23.692  0.00  0.00    -0.267 OA
ATOM      6  C   UNL d   1     -48.795  14.372  22.472  0.00  0.00     0.106 A 
ATOM      7  C   UNL d   1     -48.806  15.191  22.372  0.00  0.00     0.120 A 
ENDROOT
BRANCH   2   8
ATOM      8  C   UNL d   1     -49.174  12.771  22.957  0.00  0.00     0.059 A 
ATOM      9  C   UNL d   1     -48.587  12.476  23.455  0.00  0.00     0.029 A 
ATOM     10  C   UNL d   1     -48.144  11.844  23.206  0.00  0.00     0.094 A 
ATOM     11  C   UNL d   1     -48.279  11.497  22.461  0.00  0.00     0.024 A 
ATOM     12  C   UNL d   1     -48.853  11.786  21.977  0.00  0.00     0.002 A 
ATOM     13  C   UNL d   1     -49.311  12.432  22.222  0.00  0.00     0.005 A 
BRANCH  10  14
ATOM     14  O   UNL d   1     -47.555  11.542  23.698  0.00  0.00    -0.328 OA
ATOM     15  C   UNL d   1     -46.765  11.572  23.471  0.00  0.00     0.181 C 
ENDBRANCH  10  14
ENDBRANCH   2   8
BRANCH   3  16
ATOM     16  S   UNL d   1     -50.494  14.914  23.634  0.00  0.00    -0.076 SA
ATOM     17  C   UNL d   1     -50.971  15.587  23.623  0.00  0.00     0.077 C 
ENDBRANCH   3  16
TORSDOF 3
ENDMDL
