MODEL 1
REMARK VINA RESULT:      59.5      0.000      0.000
REMARK  6 active torsions:
REMARK  status: ('A' for Active; 'I' for Inactive)
REMARK    1  A    between atoms: C_8  and  C_6 
REMARK    2  A    between atoms: C_10  and  C_8 
REMARK       I    between atoms: N_13  and  C_10 
REMARK    3  A    between atoms: C_11  and  C_14 
REMARK    4  A    between atoms: O_20  and  C_11 
REMARK    5  A    between atoms: C_19  and  N_13 
REMARK    6  A    between atoms: C_23  and  O_20 
ROOT
ATOM      1  C   UNL d   1     -47.497  30.523  35.558  0.00  0.00     0.280 C 
ATOM      2  N   UNL d   1     -47.470  29.759  35.873  0.00  0.00    -0.208 NA
ATOM      3  O   UNL d   1     -47.091  31.134  35.936  0.00  0.00    -0.265 OA
ENDROOT
BRANCH   1   4
ATOM      4  C   UNL d   1     -47.926  30.674  34.871  0.00  0.00     0.074 C 
BRANCH   4   5
ATOM      5  C   UNL d   1     -47.863  31.410  34.497  0.00  0.00     0.095 A 
ATOM      6  C   UNL d   1     -48.478  31.825  34.140  0.00  0.00     0.288 A 
ATOM      7  N   UNL d   1     -48.171  32.524  33.840  0.00  0.00    -0.169 N 
ATOM      8  O   UNL d   1     -49.264  31.580  34.094  0.00  0.00    -0.265 OA
ATOM      9  C   UNL d   1     -47.361  32.545  34.010  0.00  0.00     0.200 A 
ATOM     10  N   UNL d   1     -48.362  33.216  33.432  0.00  0.00    -0.138 NA
ATOM     11  N   UNL d   1     -47.051  33.248  33.708  0.00  0.00    -0.197 NA
ATOM     12  S   UNL d   1     -47.169  31.853  34.417  0.00  0.00    -0.043 SA
ATOM     13  C   UNL d   1     -47.671  33.666  33.349  0.00  0.00     0.222 A 
ENDBRANCH   4   5
ENDBRANCH   1   4
BRANCH   2  14
ATOM     14  C   UNL d   1     -47.877  29.152  35.492  0.00  0.00     0.085 A 
ATOM     15  C   UNL d   1     -47.497  28.720  34.898  0.00  0.00     0.019 A 
ATOM     16  C   UNL d   1     -47.890  28.113  34.512  0.00  0.00     0.007 A 
ATOM     17  C   UNL d   1     -48.674  27.932  34.719  0.00  0.00     0.064 A 
ATOM     18  C   UNL d   1     -49.053  28.367  35.315  0.00  0.00     0.007 A 
ATOM     19  C   UNL d   1     -48.655  28.974  35.699  0.00  0.00     0.019 A 
BRANCH  17  20
ATOM     20  C   UNL d   1     -49.076  27.326  34.337  0.00  0.00     0.300 C 
ATOM     21  O   UNL d   1     -48.712  26.588  34.240  0.00  0.00    -0.259 OA
BRANCH  20  22
ATOM     22  O   UNL d   1     -49.838  27.449  34.052  0.00  0.00    -0.271 OA
BRANCH  22  23
ATOM     23  C   UNL d   1     -50.114  27.002  33.412  0.00  0.00     0.126 C 
ATOM     24  C   UNL d   1     -50.925  26.871  33.321  0.00  0.00     0.029 C 
ENDBRANCH  22  23
ENDBRANCH  20  22
ENDBRANCH  17  20
ENDBRANCH   2  14
TORSDOF 6
ENDMDL
MODEL 2
REMARK VINA RESULT:      60.3      4.602      7.319
REMARK  6 active torsions:
REMARK  status: ('A' for Active; 'I' for Inactive)
REMARK    1  A    between atoms: C_8  and  C_6 
REMARK    2  A    between atoms: C_10  and  C_8 
REMARK       I    between atoms: N_13  and  C_10 
REMARK    3  A    between atoms: C_11  and  C_14 
REMARK    4  A    between atoms: O_20  and  C_11 
REMARK    5  A    between atoms: C_19  and  N_13 
REMARK    6  A    between atoms: C_23  and  O_20 
ROOT
ATOM      1  C   UNL d   1     -50.890  24.215  33.673  0.00  0.00     0.280 C 
ATOM      2  N   UNL d   1     -50.183  24.593  33.471  0.00  0.00    -0.208 NA
ATOM      3  O   UNL d   1     -50.937  23.392  33.634  0.00  0.00    -0.265 OA
ENDROOT
BRANCH   1   4
ATOM      4  C   UNL d   1     -51.543  24.657  33.911  0.00  0.00     0.074 C 
BRANCH   4   5
ATOM      5  C   UNL d   1     -52.293  24.306  33.934  0.00  0.00     0.095 A 
ATOM      6  C   UNL d   1     -52.826  24.346  34.561  0.00  0.00     0.288 A 
ATOM      7  N   UNL d   1     -53.497  23.923  34.351  0.00  0.00    -0.169 N 
ATOM      8  O   UNL d   1     -52.705  24.743  35.274  0.00  0.00    -0.265 OA
ATOM      9  C   UNL d   1     -53.381  23.617  33.590  0.00  0.00     0.200 A 
ATOM     10  N   UNL d   1     -54.243  23.685  34.610  0.00  0.00    -0.138 NA
ATOM     11  N   UNL d   1     -54.056  23.191  33.378  0.00  0.00    -0.197 NA
ATOM     12  S   UNL d   1     -52.635  23.855  33.331  0.00  0.00    -0.043 SA
ATOM     13  C   UNL d   1     -54.592  23.232  34.009  0.00  0.00     0.222 A 
ENDBRANCH   4   5
ENDBRANCH   1   4
BRANCH   2  14
ATOM     14  C   UNL d   1     -50.140  25.415  33.512  0.00  0.00     0.085 A 
ATOM     15  C   UNL d   1     -50.814  25.865  33.348  0.00  0.00     0.019 A 
ATOM     16  C   UNL d   1     -50.784  26.683  33.384  0.00  0.00     0.007 A 
ATOM     17  C   UNL d   1     -50.073  27.062  33.587  0.00  0.00     0.064 A 
ATOM     18  C   UNL d   1     -49.398  26.609  33.751  0.00  0.00     0.007 A 
ATOM     19  C   UNL d   1     -49.433  25.788  33.713  0.00  0.00     0.019 A 
BRANCH  17  20
ATOM     20  C   UNL d   1     -50.033  27.881  33.626  0.00  0.00     0.300 C 
ATOM     21  O   UNL d   1     -50.649  28.339  33.311  0.00  0.00    -0.259 OA
BRANCH  20  22
ATOM     22  O   UNL d   1     -49.386  28.249  33.976  0.00  0.00    -0.271 OA
BRANCH  22  23
ATOM     23  C   UNL d   1     -49.504  28.891  34.485  0.00  0.00     0.126 C 
ATOM     24  C   UNL d   1     -49.282  29.651  34.249  0.00  0.00     0.029 C 
ENDBRANCH  22  23
ENDBRANCH  20  22
ENDBRANCH  17  20
ENDBRANCH   2  14
TORSDOF 6
ENDMDL
