MODEL 1
REMARK VINA RESULT:      36.0      0.000      0.000
REMARK  4 active torsions:
REMARK  status: ('A' for Active; 'I' for Inactive)
REMARK    1  A    between atoms: C_2  and  S_1 
REMARK    2  A    between atoms: N_3  and  S_1 
REMARK    3  A    between atoms: C_16  and  C_7 
REMARK    4  A    between atoms: O_17  and  C_8 
ROOT
ATOM      1  C   UNL d   1     -58.433 -98.793 -45.350  0.00  0.00     0.126 A 
ATOM      2  C   UNL d   1     -58.465 -98.801 -46.172  0.00  0.00     0.015 A 
ATOM      3  C   UNL d   1     -59.192 -98.791 -46.547  0.00  0.00     0.001 A 
ATOM      4  C   UNL d   1     -59.118 -98.775 -44.902  0.00  0.00     0.106 A 
ATOM      5  C   UNL d   1     -59.889 -98.772 -46.105  0.00  0.00     0.002 A 
ATOM      6  C   UNL d   1     -59.849 -98.764 -45.280  0.00  0.00     0.025 A 
ENDROOT
BRANCH   1   7
ATOM      7  S   UNL d   1     -57.700 -98.804 -44.967  0.00  0.00     0.273 S 
ATOM      8  O   UNL d   1     -58.083 -98.812 -44.234  0.00  0.00    -0.200 OA
ATOM      9  O   UNL d   1     -57.317 -98.796 -45.699  0.00  0.00    -0.200 OA
BRANCH   7  10
ATOM     10  N   UNL d   1     -56.967 -98.814 -44.584  0.00  0.00    -0.226 N 
ATOM     11  C   UNL d   1     -56.272 -98.860 -45.024  0.00  0.00     0.111 A 
ATOM     12  C   UNL d   1     -55.544 -98.871 -44.649  0.00  0.00     0.100 A 
ATOM     13  N   UNL d   1     -55.501 -98.836 -43.822  0.00  0.00    -0.299 N 
ATOM     14  C   UNL d   1     -56.198 -98.790 -43.377  0.00  0.00     0.100 A 
ATOM     15  C   UNL d   1     -54.764 -98.847 -43.447  0.00  0.00     0.100 C 
ATOM     16  C   UNL d   1     -56.931 -98.779 -43.760  0.00  0.00     0.111 A 
ENDBRANCH   7  10
ENDBRANCH   1   7
BRANCH   4  17
ATOM     17  O   UNL d   1     -59.071 -98.767 -44.072  0.00  0.00    -0.327 OA
ATOM     18  C   UNL d   1     -59.764 -98.804 -43.629  0.00  0.00     0.181 C 
ENDBRANCH   4  17
BRANCH   3  19
ATOM     19  C   UNL d   1     -59.228 -98.799 -47.371  0.00  0.00     0.000 C 
ATOM     20  C   UNL d   1     -59.951 -98.849 -47.755  0.00  0.00     0.000 C 
ATOM     21  C   UNL d   1     -58.527 -98.756 -47.808  0.00  0.00     0.000 C 
ENDBRANCH   3  19
TORSDOF 4
ENDMDL
