MODEL 1
REMARK VINA RESULT:      92.8      0.000      0.000
REMARK  5 active torsions:
REMARK  status: ('A' for Active; 'I' for Inactive)
REMARK    1  A    between atoms: C_8  and  C_1 
REMARK    2  A    between atoms: N_4  and  C_2 
REMARK       I    between atoms: C_6  and  N_4 
REMARK    3  A    between atoms: C_11  and  C_6 
REMARK    4  A    between atoms: O_12  and  C_8 
REMARK    5  A    between atoms: C_17  and  O_12 
ROOT
ATOM      1  C   UNL d   1      57.471  40.051  54.627  0.00  0.00     0.181 A 
ATOM      2  C   UNL d   1      57.885  39.344  54.769  0.00  0.00     0.115 A 
ATOM      3  O   UNL d   1      57.917  40.664  54.962  0.00  0.00    -0.300 OA
ATOM      4  C   UNL d   1      58.567  39.527  55.182  0.00  0.00     0.043 A 
ATOM      5  C   UNL d   1      58.590  40.345  55.303  0.00  0.00     0.102 A 
ATOM      6  C   UNL d   1      59.179  39.053  55.468  0.00  0.00     0.004 A 
ATOM      7  C   UNL d   1      59.218  40.683  55.706  0.00  0.00     0.025 A 
ATOM      8  C   UNL d   1      59.814  39.397  55.875  0.00  0.00     0.000 A 
ATOM      9  C   UNL d   1      59.828  40.216  55.991  0.00  0.00     0.002 A 
ENDROOT
BRANCH   2  10
ATOM     10  N   UNL d   1      57.643  38.585  54.531  0.00  0.00    -0.206 NA
ATOM     11  C   UNL d   1      57.264  38.089  55.068  0.00  0.00     0.279 C 
ATOM     12  O   UNL d   1      57.123  38.342  55.840  0.00  0.00    -0.265 OA
BRANCH  11  13
ATOM     13  C   UNL d   1      57.025  37.339  54.832  0.00  0.00     0.058 A 
ATOM     14  C   UNL d   1      57.548  36.849  54.403  0.00  0.00     0.005 A 
ATOM     15  C   UNL d   1      57.309  36.108  54.170  0.00  0.00     0.000 A 
ATOM     16  C   UNL d   1      56.551  35.842  54.358  0.00  0.00     0.000 A 
ATOM     17  C   UNL d   1      56.040  36.323  54.778  0.00  0.00     0.000 A 
ATOM     18  C   UNL d   1      56.283  37.082  55.017  0.00  0.00     0.005 A 
ENDBRANCH  11  13
ENDBRANCH   2  10
BRANCH   1  19
ATOM     19  C   UNL d   1      56.753  40.126  54.227  0.00  0.00     0.325 C 
ATOM     20  O   UNL d   1      56.040  40.018  54.636  0.00  0.00    -0.257 OA
BRANCH  19  21
ATOM     21  O   UNL d   1      56.748  40.307  53.429  0.00  0.00    -0.269 OA
BRANCH  21  22
ATOM     22  C   UNL d   1      56.033  40.500  53.052  0.00  0.00     0.126 C 
ATOM     23  C   UNL d   1      56.047  40.791  52.274  0.00  0.00     0.029 C 
ENDBRANCH  21  22
ENDBRANCH  19  21
ENDBRANCH   1  19
TORSDOF 5
ENDMDL
MODEL 2
REMARK VINA RESULT:      93.5      0.801      3.368
REMARK  5 active torsions:
REMARK  status: ('A' for Active; 'I' for Inactive)
REMARK    1  A    between atoms: C_8  and  C_1 
REMARK    2  A    between atoms: N_4  and  C_2 
REMARK       I    between atoms: C_6  and  N_4 
REMARK    3  A    between atoms: C_11  and  C_6 
REMARK    4  A    between atoms: O_12  and  C_8 
REMARK    5  A    between atoms: C_17  and  O_12 
ROOT
ATOM      1  C   UNL d   1      56.855  38.926  54.587  0.00  0.00     0.181 A 
ATOM      2  C   UNL d   1      57.650  38.720  54.719  0.00  0.00     0.115 A 
ATOM      3  O   UNL d   1      56.436  38.217  54.488  0.00  0.00    -0.300 OA
ATOM      4  C   UNL d   1      57.709  37.905  54.701  0.00  0.00     0.043 A 
ATOM      5  C   UNL d   1      56.959  37.590  54.558  0.00  0.00     0.102 A 
ATOM      6  C   UNL d   1      58.355  37.400  54.797  0.00  0.00     0.004 A 
ATOM      7  C   UNL d   1      56.856  36.779  54.512  0.00  0.00     0.025 A 
ATOM      8  C   UNL d   1      58.249  36.579  54.749  0.00  0.00     0.000 A 
ATOM      9  C   UNL d   1      57.494  36.273  54.606  0.00  0.00     0.002 A 
ENDROOT
BRANCH   2  10
ATOM     10  N   UNL d   1      58.273  39.256  54.848  0.00  0.00    -0.206 NA
ATOM     11  C   UNL d   1      58.545  39.392  55.613  0.00  0.00     0.279 C 
ATOM     12  O   UNL d   1      58.204  38.999  56.252  0.00  0.00    -0.265 OA
BRANCH  11  13
ATOM     13  C   UNL d   1      59.161  39.921  55.739  0.00  0.00     0.058 A 
ATOM     14  C   UNL d   1      59.039  40.603  56.206  0.00  0.00     0.005 A 
ATOM     15  C   UNL d   1      59.650  41.125  56.328  0.00  0.00     0.000 A 
ATOM     16  C   UNL d   1      60.388  40.981  55.991  0.00  0.00     0.000 A 
ATOM     17  C   UNL d   1      60.507  40.313  55.533  0.00  0.00     0.000 A 
ATOM     18  C   UNL d   1      59.883  39.777  55.407  0.00  0.00     0.005 A 
ENDBRANCH  11  13
ENDBRANCH   2  10
BRANCH   1  19
ATOM     19  C   UNL d   1      56.544  39.690  54.559  0.00  0.00     0.325 C 
ATOM     20  O   UNL d   1      56.103  39.979  55.198  0.00  0.00    -0.257 OA
BRANCH  19  21
ATOM     21  O   UNL d   1      56.674  40.158  53.901  0.00  0.00    -0.269 OA
BRANCH  21  22
ATOM     22  C   UNL d   1      56.037  40.551  53.539  0.00  0.00     0.126 C 
ATOM     23  C   UNL d   1      56.056  40.694  52.721  0.00  0.00     0.029 C 
ENDBRANCH  21  22
ENDBRANCH  19  21
ENDBRANCH   1  19
TORSDOF 5
ENDMDL
MODEL 3
REMARK VINA RESULT:      95.2      8.204     10.088
REMARK  5 active torsions:
REMARK  status: ('A' for Active; 'I' for Inactive)
REMARK    1  A    between atoms: C_8  and  C_1 
REMARK    2  A    between atoms: N_4  and  C_2 
REMARK       I    between atoms: C_6  and  N_4 
REMARK    3  A    between atoms: C_11  and  C_6 
REMARK    4  A    between atoms: O_12  and  C_8 
REMARK    5  A    between atoms: C_17  and  O_12 
ROOT
ATOM      1  C   UNL d   1      60.786  45.503  50.642  0.00  0.00     0.181 A 
ATOM      2  C   UNL d   1      61.247  46.189  50.555  0.00  0.00     0.115 A 
ATOM      3  O   UNL d   1      61.090  44.939  50.115  0.00  0.00    -0.300 OA
ATOM      4  C   UNL d   1      61.818  46.043  49.987  0.00  0.00     0.043 A 
ATOM      5  C   UNL d   1      61.723  45.269  49.713  0.00  0.00     0.102 A 
ATOM      6  C   UNL d   1      62.419  46.517  49.680  0.00  0.00     0.004 A 
ATOM      7  C   UNL d   1      62.225  44.974  49.137  0.00  0.00     0.025 A 
ATOM      8  C   UNL d   1      62.926  46.216  49.097  0.00  0.00     0.000 A 
ATOM      9  C   UNL d   1      62.823  45.440  48.828  0.00  0.00     0.002 A 
ENDROOT
BRANCH   2  10
ATOM     10  N   UNL d   1      61.142  46.900  50.975  0.00  0.00    -0.206 NA
ATOM     11  C   UNL d   1      61.038  47.606  50.565  0.00  0.00     0.279 C 
ATOM     12  O   UNL d   1      61.038  47.613  49.741  0.00  0.00    -0.265 OA
BRANCH  11  13
ATOM     13  C   UNL d   1      60.934  48.307  50.981  0.00  0.00     0.058 A 
ATOM     14  C   UNL d   1      60.480  48.927  50.651  0.00  0.00     0.005 A 
ATOM     15  C   UNL d   1      60.379  49.619  51.066  0.00  0.00     0.000 A 
ATOM     16  C   UNL d   1      60.724  49.707  51.809  0.00  0.00     0.000 A 
ATOM     17  C   UNL d   1      61.168  49.100  52.131  0.00  0.00     0.000 A 
ATOM     18  C   UNL d   1      61.272  48.391  51.709  0.00  0.00     0.005 A 
ENDBRANCH  11  13
ENDBRANCH   2  10
BRANCH   1  19
ATOM     19  C   UNL d   1      60.147  45.403  51.155  0.00  0.00     0.325 C 
ATOM     20  O   UNL d   1      60.284  45.221  51.952  0.00  0.00    -0.257 OA
BRANCH  19  21
ATOM     21  O   UNL d   1      59.383  45.485  50.874  0.00  0.00    -0.269 OA
BRANCH  21  22
ATOM     22  C   UNL d   1      58.750  45.142  51.289  0.00  0.00     0.126 C 
ATOM     23  C   UNL d   1      58.055  44.939  50.881  0.00  0.00     0.029 C 
ENDBRANCH  21  22
ENDBRANCH  19  21
ENDBRANCH   1  19
TORSDOF 5
ENDMDL
