MODEL 1
REMARK VINA RESULT:      41.8      0.000      0.000
REMARK  4 active torsions:
REMARK  status: ('A' for Active; 'I' for Inactive)
REMARK    1  A    between atoms: C_2  and  N_1 
REMARK    2  A    between atoms: C_9  and  C_10 
REMARK       I    between atoms: N_11  and  C_9 
REMARK    3  A    between atoms: C_21  and  N_11 
REMARK    4  A    between atoms: C_20  and  C_21 
ROOT
ATOM      1  C   UNL d   1      13.446  12.402  -3.222  0.00  0.00     0.279 C 
ATOM      2  N   UNL d   1      13.325  13.173  -3.480  0.00  0.00    -0.206 NA
ATOM      3  O   UNL d   1      13.457  11.783  -3.763  0.00  0.00    -0.265 OA
ENDROOT
BRANCH   1   4
ATOM      4  C   UNL d   1      13.558  12.247  -2.415  0.00  0.00     0.059 A 
ATOM      5  C   UNL d   1      14.297  12.408  -2.070  0.00  0.00     0.028 A 
ATOM      6  C   UNL d   1      14.396  12.249  -1.266  0.00  0.00     0.127 A 
ATOM      7  C   UNL d   1      13.772  11.936  -0.811  0.00  0.00     0.022 A 
ATOM      8  C   UNL d   1      13.046  11.782  -1.169  0.00  0.00     0.002 A 
ATOM      9  C   UNL d   1      13.874  11.779  -0.014  0.00  0.00     0.002 C 
ATOM     10  C   UNL d   1      12.934  11.936  -1.971  0.00  0.00     0.005 A 
BRANCH   6  11
ATOM     11  N   UNL d   1      15.126  12.404  -0.906  0.00  0.00    -0.114 N 
ATOM     12  O   UNL d   1      15.819  12.084  -1.217  0.00  0.00    -0.532 OA
ATOM     13  O   UNL d   1      15.169  12.880  -0.234  0.00  0.00    -0.532 OA
ENDBRANCH   6  11
ENDBRANCH   1   4
BRANCH   2  14
ATOM     14  C   UNL d   1      13.214  13.329  -4.275  0.00  0.00     0.102 C 
BRANCH  14  15
ATOM     15  C   UNL d   1      13.406  14.069  -4.581  0.00  0.00     0.019 A 
ATOM     16  C   UNL d   1      13.945  14.550  -4.182  0.00  0.00     0.003 A 
ATOM     17  C   UNL d   1      14.143  15.295  -4.484  0.00  0.00     0.019 A 
ATOM     18  C   UNL d   1      14.646  15.882  -4.219  0.00  0.00     0.021 A 
ATOM     19  C   UNL d   1      13.796  15.550  -5.186  0.00  0.00     0.081 A 
ATOM     20  C   UNL d   1      14.616  16.506  -4.756  0.00  0.00     0.082 A 
ATOM     21  C   UNL d   1      15.037  17.212  -4.704  0.00  0.00     0.021 C 
ATOM     22  N   UNL d   1      14.089  16.302  -5.356  0.00  0.00    -0.246 NA
ATOM     23  C   UNL d   1      13.259  15.073  -5.585  0.00  0.00     0.019 A 
ATOM     24  C   UNL d   1      13.063  14.331  -5.283  0.00  0.00     0.003 A 
ENDBRANCH  14  15
ENDBRANCH   2  14
TORSDOF 4
ENDMDL
MODEL 2
REMARK VINA RESULT:      44.2      2.073      4.051
REMARK  4 active torsions:
REMARK  status: ('A' for Active; 'I' for Inactive)
REMARK    1  A    between atoms: C_2  and  N_1 
REMARK    2  A    between atoms: C_9  and  C_10 
REMARK       I    between atoms: N_11  and  C_9 
REMARK    3  A    between atoms: C_21  and  N_11 
REMARK    4  A    between atoms: C_20  and  C_21 
ROOT
ATOM      1  C   UNL d   1      13.479  12.379  -2.571  0.00  0.00     0.279 C 
ATOM      2  N   UNL d   1      14.243  12.522  -2.304  0.00  0.00    -0.206 NA
ATOM      3  O   UNL d   1      12.886  12.178  -2.037  0.00  0.00    -0.265 OA
ENDROOT
BRANCH   1   4
ATOM      4  C   UNL d   1      13.304  12.436  -3.379  0.00  0.00     0.059 A 
ATOM      5  C   UNL d   1      13.446  13.151  -3.776  0.00  0.00     0.028 A 
ATOM      6  C   UNL d   1      13.267  13.196  -4.581  0.00  0.00     0.127 A 
ATOM      7  C   UNL d   1      12.951  12.539  -4.985  0.00  0.00     0.022 A 
ATOM      8  C   UNL d   1      12.816  11.837  -4.578  0.00  0.00     0.002 A 
ATOM      9  C   UNL d   1      12.775  12.586  -5.783  0.00  0.00     0.002 C 
ATOM     10  C   UNL d   1      12.990  11.779  -3.774  0.00  0.00     0.005 A 
BRANCH   6  11
ATOM     11  N   UNL d   1      13.404  13.902  -4.991  0.00  0.00    -0.114 N 
ATOM     12  O   UNL d   1      13.048  14.603  -4.743  0.00  0.00    -0.532 OA
ATOM     13  O   UNL d   1      13.897  13.914  -5.652  0.00  0.00    -0.532 OA
ENDBRANCH   6  11
ENDBRANCH   1   4
BRANCH   2  14
ATOM     14  C   UNL d   1      14.419  12.467  -1.507  0.00  0.00     0.102 C 
BRANCH  14  15
ATOM     15  C   UNL d   1      14.735  13.114  -1.109  0.00  0.00     0.019 A 
ATOM     16  C   UNL d   1      14.625  13.874  -1.411  0.00  0.00     0.003 A 
ATOM     17  C   UNL d   1      14.941  14.530  -1.015  0.00  0.00     0.019 A 
ATOM     18  C   UNL d   1      14.924  15.331  -1.175  0.00  0.00     0.021 A 
ATOM     19  C   UNL d   1      15.363  14.415  -0.318  0.00  0.00     0.081 A 
ATOM     20  C   UNL d   1      15.338  15.720  -0.577  0.00  0.00     0.082 A 
ATOM     21  C   UNL d   1      15.458  16.533  -0.519  0.00  0.00     0.021 C 
ATOM     22  N   UNL d   1      15.611  15.153  -0.045  0.00  0.00    -0.246 NA
ATOM     23  C   UNL d   1      15.474  13.659  -0.016  0.00  0.00     0.019 A 
ATOM     24  C   UNL d   1      15.159  13.007  -0.411  0.00  0.00     0.003 A 
ENDBRANCH  14  15
ENDBRANCH   2  14
TORSDOF 4
ENDMDL
