MODEL 1
REMARK VINA RESULT:      -2.5      0.000      0.000
REMARK  7 active torsions:
REMARK  status: ('A' for Active; 'I' for Inactive)
REMARK    1  A    between atoms: C_6  and  C_1 
REMARK    2  A    between atoms: C_14  and  C_5 
REMARK    3  A    between atoms: O_19  and  C_7 
REMARK    4  A    between atoms: O_20  and  C_8 
REMARK    5  A    between atoms: O_21  and  C_9 
REMARK    6  A    between atoms: O_17  and  C_14 
REMARK    7  A    between atoms: C_18  and  O_17 
ROOT
ATOM      1  C   UNL d   1     -41.739-122.765 -50.128  0.00  0.00     0.205 A 
ATOM      2  N   UNL d   1     -41.665-121.971 -50.353  0.00  0.00    -0.121 NA
ATOM      3  O   UNL d   1     -41.546-123.241 -50.778  0.00  0.00    -0.267 OA
ATOM      4  N   UNL d   1     -41.424-121.951 -51.146  0.00  0.00    -0.119 NA
ATOM      5  C   UNL d   1     -41.351-122.737 -51.407  0.00  0.00     0.230 A 
ENDROOT
BRANCH   1   6
ATOM      6  C   UNL d   1     -41.970-123.029 -49.376  0.00  0.00     0.047 A 
ATOM      7  C   UNL d   1     -41.433-123.030 -48.749  0.00  0.00     0.030 A 
ATOM      8  C   UNL d   1     -41.667-123.290 -48.013  0.00  0.00     0.118 A 
ATOM      9  C   UNL d   1     -42.442-123.555 -47.884  0.00  0.00     0.138 A 
ATOM     10  C   UNL d   1     -42.975-123.553 -48.511  0.00  0.00     0.118 A 
ATOM     11  C   UNL d   1     -42.744-123.289 -49.265  0.00  0.00     0.030 A 
BRANCH   8  12
ATOM     12  O   UNL d   1     -41.123-123.288 -47.388  0.00  0.00    -0.326 OA
ATOM     13  C   UNL d   1     -41.225-122.781 -46.742  0.00  0.00     0.181 C 
ENDBRANCH   8  12
BRANCH   9  14
ATOM     14  O   UNL d   1     -42.667-123.816 -47.134  0.00  0.00    -0.324 OA
ATOM     15  C   UNL d   1     -43.245-123.407 -46.703  0.00  0.00     0.182 C 
ENDBRANCH   9  14
BRANCH  10  16
ATOM     16  O   UNL d   1     -43.750-123.817 -48.385  0.00  0.00    -0.326 OA
ATOM     17  C   UNL d   1     -44.363-123.534 -48.851  0.00  0.00     0.181 C 
ENDBRANCH  10  16
ENDBRANCH   1   6
BRANCH   5  18
ATOM     18  C   UNL d   1     -41.123-122.983 -52.165  0.00  0.00     0.169 C 
BRANCH  18  19
ATOM     19  O   UNL d   1     -41.660-123.373 -52.654  0.00  0.00    -0.301 OA
BRANCH  19  20
ATOM     20  C   UNL d   1     -41.683-123.195 -53.461  0.00  0.00     0.100 A 
ATOM     21  C   UNL d   1     -41.965-122.461 -53.712  0.00  0.00     0.025 A 
ATOM     22  C   UNL d   1     -41.988-122.283 -54.512  0.00  0.00     0.002 A 
ATOM     23  C   UNL d   1     -42.270-121.548 -54.773  0.00  0.00     0.000 A 
ATOM     24  C   UNL d   1     -41.732-122.834 -55.067  0.00  0.00     0.000 A 
ATOM     25  C   UNL d   1     -42.291-121.375 -55.579  0.00  0.00     0.000 A 
ATOM     26  C   UNL d   1     -42.032-121.932 -56.129  0.00  0.00     0.000 A 
ATOM     27  C   UNL d   1     -41.751-122.667 -55.872  0.00  0.00     0.000 A 
ATOM     28  C   UNL d   1     -41.450-123.569 -54.818  0.00  0.00     0.002 A 
ATOM     29  C   UNL d   1     -41.425-123.751 -54.003  0.00  0.00     0.025 A 
ENDBRANCH  19  20
ENDBRANCH  18  19
ENDBRANCH   5  18
TORSDOF 7
ENDMDL
MODEL 2
REMARK VINA RESULT:       0.2      1.425      6.382
REMARK  7 active torsions:
REMARK  status: ('A' for Active; 'I' for Inactive)
REMARK    1  A    between atoms: C_6  and  C_1 
REMARK    2  A    between atoms: C_14  and  C_5 
REMARK    3  A    between atoms: O_19  and  C_7 
REMARK    4  A    between atoms: O_20  and  C_8 
REMARK    5  A    between atoms: O_21  and  C_9 
REMARK    6  A    between atoms: O_17  and  C_14 
REMARK    7  A    between atoms: C_18  and  O_17 
ROOT
ATOM      1  C   UNL d   1     -41.621-122.712 -52.927  0.00  0.00     0.205 A 
ATOM      2  N   UNL d   1     -41.237-123.436 -52.807  0.00  0.00    -0.121 NA
ATOM      3  O   UNL d   1     -41.754-122.360 -52.190  0.00  0.00    -0.267 OA
ATOM      4  N   UNL d   1     -41.129-123.537 -51.991  0.00  0.00    -0.119 NA
ATOM      5  C   UNL d   1     -41.450-122.871 -51.611  0.00  0.00     0.230 A 
ENDROOT
BRANCH   1   6
ATOM      6  C   UNL d   1     -41.833-122.401 -53.667  0.00  0.00     0.047 A 
ATOM      7  C   UNL d   1     -41.864-122.887 -54.333  0.00  0.00     0.030 A 
ATOM      8  C   UNL d   1     -42.073-122.574 -55.056  0.00  0.00     0.118 A 
ATOM      9  C   UNL d   1     -42.255-121.768 -55.132  0.00  0.00     0.138 A 
ATOM     10  C   UNL d   1     -42.222-121.287 -54.466  0.00  0.00     0.118 A 
ATOM     11  C   UNL d   1     -42.010-121.599 -53.725  0.00  0.00     0.030 A 
BRANCH   8  12
ATOM     12  O   UNL d   1     -42.103-123.068 -55.721  0.00  0.00    -0.326 OA
ATOM     13  C   UNL d   1     -42.459-123.814 -55.674  0.00  0.00     0.181 C 
ENDBRANCH   8  12
BRANCH   9  14
ATOM     14  O   UNL d   1     -42.465-121.463 -55.870  0.00  0.00    -0.324 OA
ATOM     15  C   UNL d   1     -42.978-121.883 -56.367  0.00  0.00     0.182 C 
ENDBRANCH   9  14
BRANCH  10  16
ATOM     16  O   UNL d   1     -42.404-120.481 -54.540  0.00  0.00    -0.326 OA
ATOM     17  C   UNL d   1     -41.828-119.915 -54.395  0.00  0.00     0.181 C 
ENDBRANCH  10  16
ENDBRANCH   1   6
BRANCH   5  18
ATOM     18  C   UNL d   1     -41.467-122.733 -50.793  0.00  0.00     0.169 C 
BRANCH  18  19
ATOM     19  O   UNL d   1     -42.121-122.962 -50.347  0.00  0.00    -0.301 OA
BRANCH  19  20
ATOM     20  C   UNL d   1     -42.028-123.135 -49.545  0.00  0.00     0.100 A 
ATOM     21  C   UNL d   1     -42.690-123.297 -49.079  0.00  0.00     0.025 A 
ATOM     22  C   UNL d   1     -42.599-123.469 -48.283  0.00  0.00     0.002 A 
ATOM     23  C   UNL d   1     -43.260-123.633 -47.808  0.00  0.00     0.000 A 
ATOM     24  C   UNL d   1     -41.849-123.482 -47.944  0.00  0.00     0.000 A 
ATOM     25  C   UNL d   1     -43.161-123.806 -47.008  0.00  0.00     0.000 A 
ATOM     26  C   UNL d   1     -42.406-123.816 -46.676  0.00  0.00     0.000 A 
ATOM     27  C   UNL d   1     -41.745-123.653 -47.146  0.00  0.00     0.000 A 
ATOM     28  C   UNL d   1     -41.185-123.320 -48.407  0.00  0.00     0.002 A 
ATOM     29  C   UNL d   1     -41.277-123.144 -49.219  0.00  0.00     0.025 A 
ENDBRANCH  19  20
ENDBRANCH  18  19
ENDBRANCH   5  18
TORSDOF 7
ENDMDL
