MODEL 1
REMARK VINA RESULT:      -5.2      0.000      0.000
REMARK  4 active torsions:
REMARK  status: ('A' for Active; 'I' for Inactive)
REMARK    1  A    between atoms: C_8  and  C_1 
REMARK    2  A    between atoms: N_7  and  C_8 
REMARK    3  A    between atoms: C_18  and  N_9 
REMARK    4  A    between atoms: C_21  and  C_18 
ROOT
ATOM      1  C   UNL d   1     -41.361-122.066 -52.815  0.00  0.00     0.059 A 
ATOM      2  C   UNL d   1     -41.886-121.769 -54.106  0.00  0.00     0.121 A 
ATOM      3  C   UNL d   1     -41.720-121.532 -53.324  0.00  0.00     0.214 A 
ATOM      4  C   UNL d   1     -41.691-122.530 -54.360  0.00  0.00     0.032 A 
ATOM      5  C   UNL d   1     -41.332-123.061 -53.846  0.00  0.00     0.059 A 
ATOM      6  C   UNL d   1     -41.166-122.830 -53.071  0.00  0.00     0.016 A 
ATOM      7  N   UNL d   1     -42.247-121.234 -54.621  0.00  0.00    -0.241 NA
ATOM      8 CL   UNL d   1     -41.139-123.817 -54.099  0.00  0.00    -0.082 Cl
ATOM      9  O   UNL d   1     -41.912-120.779 -53.072  0.00  0.00    -0.285 OA
ATOM     10  C   UNL d   1     -41.863-122.751 -55.141  0.00  0.00     0.004 A 
ATOM     11  C   UNL d   1     -42.414-121.464 -55.398  0.00  0.00     0.099 A 
ATOM     12  C   UNL d   1     -42.217-122.231 -55.654  0.00  0.00     0.021 A 
ENDROOT
BRANCH   1  13
ATOM     13  C   UNL d   1     -41.191-121.841 -52.033  0.00  0.00     0.084 C 
BRANCH  13  14
ATOM     14  N   UNL d   1     -41.491-122.292 -51.405  0.00  0.00    -0.300 N 
ATOM     15  C   UNL d   1     -41.123-123.005 -51.197  0.00  0.00     0.100 A 
ATOM     16  C   UNL d   1     -41.420-123.452 -50.575  0.00  0.00     0.100 A 
ATOM     17  N   UNL d   1     -42.084-123.195 -50.159  0.00  0.00    -0.297 N 
ATOM     18  C   UNL d   1     -42.453-122.481 -50.367  0.00  0.00     0.100 A 
ATOM     19  C   UNL d   1     -42.157-122.037 -50.986  0.00  0.00     0.100 A 
BRANCH  17  20
ATOM     20  C   UNL d   1     -42.381-123.641 -49.538  0.00  0.00     0.126 C 
BRANCH  20  21
ATOM     21  C   UNL d   1     -42.923-123.315 -49.013  0.00  0.00     0.253 C 
ATOM     22  O   UNL d   1     -43.367-123.812 -48.513  0.00  0.00    -0.281 OA
ENDBRANCH  20  21
ENDBRANCH  17  20
ENDBRANCH  13  14
ENDBRANCH   1  13
TORSDOF 4
ENDMDL
MODEL 2
REMARK VINA RESULT:      -3.0      1.816      4.847
REMARK  4 active torsions:
REMARK  status: ('A' for Active; 'I' for Inactive)
REMARK    1  A    between atoms: C_8  and  C_1 
REMARK    2  A    between atoms: N_7  and  C_8 
REMARK    3  A    between atoms: C_18  and  N_9 
REMARK    4  A    between atoms: C_21  and  C_18 
ROOT
ATOM      1  C   UNL d   1     -42.140-122.463 -50.073  0.00  0.00     0.059 A 
ATOM      2  C   UNL d   1     -42.213-122.938 -48.732  0.00  0.00     0.121 A 
ATOM      3  C   UNL d   1     -41.818-122.497 -49.320  0.00  0.00     0.214 A 
ATOM      4  C   UNL d   1     -42.915-123.333 -48.911  0.00  0.00     0.032 A 
ATOM      5  C   UNL d   1     -43.233-123.296 -49.667  0.00  0.00     0.059 A 
ATOM      6  C   UNL d   1     -42.845-122.860 -50.252  0.00  0.00     0.016 A 
ATOM      7  N   UNL d   1     -41.892-122.975 -47.972  0.00  0.00    -0.241 NA
ATOM      8 CL   UNL d   1     -43.931-123.689 -49.844  0.00  0.00    -0.082 Cl
ATOM      9  O   UNL d   1     -41.123-122.106 -49.143  0.00  0.00    -0.285 OA
ATOM     10  C   UNL d   1     -43.296-123.768 -48.315  0.00  0.00     0.004 A 
ATOM     11  C   UNL d   1     -42.279-123.411 -47.386  0.00  0.00     0.099 A 
ATOM     12  C   UNL d   1     -42.988-123.810 -47.565  0.00  0.00     0.021 A 
ENDROOT
BRANCH   1  13
ATOM     13  C   UNL d   1     -41.755-122.026 -50.667  0.00  0.00     0.084 C 
BRANCH  13  14
ATOM     14  N   UNL d   1     -41.596-122.385 -51.397  0.00  0.00    -0.300 N 
ATOM     15  C   UNL d   1     -41.729-121.966 -52.101  0.00  0.00     0.100 A 
ATOM     16  C   UNL d   1     -41.571-122.321 -52.823  0.00  0.00     0.100 A 
ATOM     17  N   UNL d   1     -41.281-123.093 -52.853  0.00  0.00    -0.297 N 
ATOM     18  C   UNL d   1     -41.148-123.513 -52.149  0.00  0.00     0.100 A 
ATOM     19  C   UNL d   1     -41.305-123.159 -51.430  0.00  0.00     0.100 A 
BRANCH  17  20
ATOM     20  C   UNL d   1     -41.123-123.448 -53.575  0.00  0.00     0.126 C 
BRANCH  20  21
ATOM     21  C   UNL d   1     -41.551-123.239 -54.245  0.00  0.00     0.253 C 
ATOM     22  O   UNL d   1     -41.342-123.555 -54.987  0.00  0.00    -0.281 OA
ENDBRANCH  20  21
ENDBRANCH  17  20
ENDBRANCH  13  14
ENDBRANCH   1  13
TORSDOF 4
ENDMDL
MODEL 3
REMARK VINA RESULT:      -2.9      1.479      2.066
REMARK  4 active torsions:
REMARK  status: ('A' for Active; 'I' for Inactive)
REMARK    1  A    between atoms: C_8  and  C_1 
REMARK    2  A    between atoms: N_7  and  C_8 
REMARK    3  A    between atoms: C_18  and  N_9 
REMARK    4  A    between atoms: C_21  and  C_18 
ROOT
ATOM      1  C   UNL d   1     -41.254-122.820 -51.542  0.00  0.00     0.059 A 
ATOM      2  C   UNL d   1     -41.600-122.426 -52.866  0.00  0.00     0.121 A 
ATOM      3  C   UNL d   1     -41.475-123.028 -52.303  0.00  0.00     0.214 A 
ATOM      4  C   UNL d   1     -41.502-121.634 -52.656  0.00  0.00     0.032 A 
ATOM      5  C   UNL d   1     -41.281-121.431 -51.892  0.00  0.00     0.059 A 
ATOM      6  C   UNL d   1     -41.156-122.024 -51.331  0.00  0.00     0.016 A 
ATOM      7  N   UNL d   1     -41.823-122.632 -53.635  0.00  0.00    -0.241 NA
ATOM      8 CL   UNL d   1     -41.183-120.643 -51.683  0.00  0.00    -0.082 Cl
ATOM      9  O   UNL d   1     -41.572-123.812 -52.511  0.00  0.00    -0.285 OA
ATOM     10  C   UNL d   1     -41.630-121.046 -53.228  0.00  0.00     0.004 A 
ATOM     11  C   UNL d   1     -41.948-122.039 -54.197  0.00  0.00     0.099 A 
ATOM     12  C   UNL d   1     -41.849-121.239 -53.985  0.00  0.00     0.021 A 
ENDROOT
BRANCH   1  13
ATOM     13  C   UNL d   1     -41.127-123.411 -50.971  0.00  0.00     0.084 C 
BRANCH  13  14
ATOM     14  N   UNL d   1     -41.524-123.369 -50.245  0.00  0.00    -0.300 N 
ATOM     15  C   UNL d   1     -42.305-123.644 -50.186  0.00  0.00     0.100 A 
ATOM     16  C   UNL d   1     -42.699-123.602 -49.467  0.00  0.00     0.100 A 
ATOM     17  N   UNL d   1     -42.322-123.288 -48.804  0.00  0.00    -0.297 N 
ATOM     18  C   UNL d   1     -41.541-123.012 -48.863  0.00  0.00     0.100 A 
ATOM     19  C   UNL d   1     -41.149-123.054 -49.578  0.00  0.00     0.100 A 
BRANCH  17  20
ATOM     20  C   UNL d   1     -42.716-123.245 -48.086  0.00  0.00     0.126 C 
BRANCH  20  21
ATOM     21  C   UNL d   1     -42.295-123.186 -47.383  0.00  0.00     0.253 C 
ATOM     22  O   UNL d   1     -42.648-122.835 -46.715  0.00  0.00    -0.281 OA
ENDBRANCH  20  21
ENDBRANCH  17  20
ENDBRANCH  13  14
ENDBRANCH   1  13
TORSDOF 4
ENDMDL
