MODEL 1
REMARK VINA RESULT:      -6.6      0.000      0.000
REMARK  4 active torsions:
REMARK  status: ('A' for Active; 'I' for Inactive)
REMARK    1  A    between atoms: C_8  and  C_1 
REMARK    2  A    between atoms: N_4  and  C_2 
REMARK       I    between atoms: C_6  and  N_4 
REMARK    3  A    between atoms: C_9  and  C_6 
REMARK    4  A    between atoms: O_16  and  C_8 
ROOT
ATOM      1  C   UNL d   1     -49.724  13.782  23.213  0.00  0.00     0.110 A 
ATOM      2  C   UNL d   1     -49.099  13.247  23.347  0.00  0.00     0.096 A 
ATOM      3  S   UNL d   1     -50.389  13.363  23.245  0.00  0.00    -0.080 SA
ATOM      4  C   UNL d   1     -49.396  12.520  23.457  0.00  0.00     0.024 A 
ATOM      5  C   UNL d   1     -50.220  12.566  23.397  0.00  0.00     0.031 A 
ATOM      6  C   UNL d   1     -49.043  11.783  23.610  0.00  0.00     0.002 A 
ATOM      7  C   UNL d   1     -50.684  11.907  23.485  0.00  0.00     0.006 A 
ATOM      8  C   UNL d   1     -49.502  11.125  23.698  0.00  0.00     0.000 A 
ATOM      9  C   UNL d   1     -50.333  11.190  23.634  0.00  0.00     0.001 A 
ENDROOT
BRANCH   2  10
ATOM     10  N   UNL d   1     -48.292  13.443  23.363  0.00  0.00    -0.207 NA
ATOM     11  C   UNL d   1     -47.815  13.259  22.704  0.00  0.00     0.285 C 
ATOM     12  O   UNL d   1     -48.166  12.887  22.060  0.00  0.00    -0.265 OA
BRANCH  11  13
ATOM     13  C   UNL d   1     -47.022  13.439  22.692  0.00  0.00     0.087 A 
ATOM     14  S   UNL d   1     -46.420  12.907  22.873  0.00  0.00    -0.082 SA
ATOM     15  C   UNL d   1     -45.707  13.291  22.799  0.00  0.00     0.036 A 
ATOM     16  C   UNL d   1     -45.874  14.079  22.568  0.00  0.00     0.008 A 
ATOM     17  C   UNL d   1     -46.675  14.165  22.504  0.00  0.00     0.012 A 
ENDBRANCH  11  13
ENDBRANCH   2  10
BRANCH   1  18
ATOM     18  C   UNL d   1     -49.699  14.615  23.067  0.00  0.00     0.303 C 
ATOM     19  O   UNL d   1     -49.704  14.865  22.285  0.00  0.00    -0.259 OA
BRANCH  18  20
ATOM     20  O   UNL d   1     -49.670  15.151  23.683  0.00  0.00    -0.295 OA
ATOM     21  C   UNL d   1     -49.910  15.922  23.578  0.00  0.00     0.185 C 
ENDBRANCH  18  20
ENDBRANCH   1  18
TORSDOF 4
ENDMDL
MODEL 2
REMARK VINA RESULT:      -6.1      1.508      3.193
REMARK  4 active torsions:
REMARK  status: ('A' for Active; 'I' for Inactive)
REMARK    1  A    between atoms: C_8  and  C_1 
REMARK    2  A    between atoms: N_4  and  C_2 
REMARK       I    between atoms: C_6  and  N_4 
REMARK    3  A    between atoms: C_9  and  C_6 
REMARK    4  A    between atoms: O_16  and  C_8 
ROOT
ATOM      1  C   UNL d   1     -47.193  13.377  23.085  0.00  0.00     0.110 A 
ATOM      2  C   UNL d   1     -47.801  12.809  23.141  0.00  0.00     0.096 A 
ATOM      3  S   UNL d   1     -46.519  12.999  23.238  0.00  0.00    -0.080 SA
ATOM      4  C   UNL d   1     -47.486  12.105  23.325  0.00  0.00     0.024 A 
ATOM      5  C   UNL d   1     -46.667  12.198  23.393  0.00  0.00     0.031 A 
ATOM      6  C   UNL d   1     -47.819  11.353  23.450  0.00  0.00     0.002 A 
ATOM      7  C   UNL d   1     -46.188  11.572  23.577  0.00  0.00     0.006 A 
ATOM      8  C   UNL d   1     -47.344  10.727  23.634  0.00  0.00     0.000 A 
ATOM      9  C   UNL d   1     -46.518  10.840  23.698  0.00  0.00     0.001 A 
ENDROOT
BRANCH   2  10
ATOM     10  N   UNL d   1     -48.610  12.957  23.023  0.00  0.00    -0.207 NA
ATOM     11  C   UNL d   1     -48.958  12.758  22.292  0.00  0.00     0.285 C 
ATOM     12  O   UNL d   1     -48.482  12.421  21.712  0.00  0.00    -0.265 OA
BRANCH  11  13
ATOM     13  C   UNL d   1     -49.747  12.892  22.149  0.00  0.00     0.087 A 
ATOM     14  S   UNL d   1     -50.041  13.282  21.486  0.00  0.00    -0.082 SA
ATOM     15  C   UNL d   1     -50.852  13.307  21.540  0.00  0.00     0.036 A 
ATOM     16  C   UNL d   1     -51.063  12.922  22.254  0.00  0.00     0.008 A 
ATOM     17  C   UNL d   1     -50.388  12.671  22.621  0.00  0.00     0.012 A 
ENDBRANCH  11  13
ENDBRANCH   2  10
BRANCH   1  18
ATOM     18  C   UNL d   1     -47.240  14.202  22.904  0.00  0.00     0.303 C 
ATOM     19  O   UNL d   1     -47.761  14.659  23.345  0.00  0.00    -0.259 OA
BRANCH  18  20
ATOM     20  O   UNL d   1     -46.783  14.531  22.312  0.00  0.00    -0.295 OA
ATOM     21  C   UNL d   1     -46.727  15.339  22.228  0.00  0.00     0.185 C 
ENDBRANCH  18  20
ENDBRANCH   1  18
TORSDOF 4
ENDMDL
MODEL 3
REMARK VINA RESULT:      -5.9      8.875     10.572
REMARK  4 active torsions:
REMARK  status: ('A' for Active; 'I' for Inactive)
REMARK    1  A    between atoms: C_8  and  C_1 
REMARK    2  A    between atoms: N_4  and  C_2 
REMARK       I    between atoms: C_6  and  N_4 
REMARK    3  A    between atoms: C_9  and  C_6 
REMARK    4  A    between atoms: O_16  and  C_8 
ROOT
ATOM      1  C   UNL d   1     -39.693  14.556  17.424  0.00  0.00     0.110 A 
ATOM      2  C   UNL d   1     -39.377  14.435  18.186  0.00  0.00     0.096 A 
ATOM      3  S   UNL d   1     -39.414  13.976  16.971  0.00  0.00    -0.080 SA
ATOM      4  C   UNL d   1     -38.917  13.788  18.179  0.00  0.00     0.024 A 
ATOM      5  C   UNL d   1     -38.924  13.475  17.413  0.00  0.00     0.031 A 
ATOM      6  C   UNL d   1     -38.469  13.408  18.767  0.00  0.00     0.002 A 
ATOM      7  C   UNL d   1     -38.503  12.808  17.230  0.00  0.00     0.006 A 
ATOM      8  C   UNL d   1     -38.048  12.743  18.588  0.00  0.00     0.000 A 
ATOM      9  C   UNL d   1     -38.067  12.441  17.809  0.00  0.00     0.001 A 
ENDROOT
BRANCH   2  10
ATOM     10  N   UNL d   1     -39.520  14.914  18.849  0.00  0.00    -0.207 NA
ATOM     11  C   UNL d   1     -40.058  14.655  19.431  0.00  0.00     0.285 C 
ATOM     12  O   UNL d   1     -40.428  13.928  19.324  0.00  0.00    -0.265 OA
BRANCH  11  13
ATOM     13  C   UNL d   1     -40.217  15.104  20.090  0.00  0.00     0.087 A 
ATOM     14  S   UNL d   1     -40.953  15.149  20.457  0.00  0.00    -0.082 SA
ATOM     15  C   UNL d   1     -40.894  15.651  21.094  0.00  0.00     0.036 A 
ATOM     16  C   UNL d   1     -40.101  15.922  21.120  0.00  0.00     0.008 A 
ATOM     17  C   UNL d   1     -39.693  15.587  20.507  0.00  0.00     0.012 A 
ENDBRANCH  11  13
ENDBRANCH   2  10
BRANCH   1  18
ATOM     18  C   UNL d   1     -40.210  15.164  17.146  0.00  0.00     0.303 C 
ATOM     19  O   UNL d   1     -39.902  15.922  17.070  0.00  0.00    -0.259 OA
BRANCH  18  20
ATOM     20  O   UNL d   1     -40.989  15.003  16.960  0.00  0.00    -0.295 OA
ATOM     21  C   UNL d   1     -41.448  15.551  16.568  0.00  0.00     0.185 C 
ENDBRANCH  18  20
ENDBRANCH   1  18
TORSDOF 4
ENDMDL
MODEL 4
REMARK VINA RESULT:      -5.7      1.373      2.536
REMARK  4 active torsions:
REMARK  status: ('A' for Active; 'I' for Inactive)
REMARK    1  A    between atoms: C_8  and  C_1 
REMARK    2  A    between atoms: N_4  and  C_2 
REMARK       I    between atoms: C_6  and  N_4 
REMARK    3  A    between atoms: C_9  and  C_6 
REMARK    4  A    between atoms: O_16  and  C_8 
ROOT
ATOM      1  C   UNL d   1     -49.275  12.222  22.473  0.00  0.00     0.110 A 
ATOM      2  C   UNL d   1     -48.979  12.956  22.213  0.00  0.00     0.096 A 
ATOM      3  S   UNL d   1     -50.060  12.286  22.479  0.00  0.00    -0.080 SA
ATOM      4  C   UNL d   1     -49.586  13.446  22.067  0.00  0.00     0.024 A 
ATOM      5  C   UNL d   1     -50.289  13.042  22.230  0.00  0.00     0.031 A 
ATOM      6  C   UNL d   1     -49.625  14.233  21.801  0.00  0.00     0.002 A 
ATOM      7  C   UNL d   1     -51.010  13.399  22.133  0.00  0.00     0.006 A 
ATOM      8  C   UNL d   1     -50.341  14.592  21.704  0.00  0.00     0.000 A 
ATOM      9  C   UNL d   1     -51.041  14.168  21.873  0.00  0.00     0.001 A 
ENDROOT
BRANCH   2  10
ATOM     10  N   UNL d   1     -48.176  13.146  22.120  0.00  0.00    -0.207 NA
ATOM     11  C   UNL d   1     -47.788  13.580  22.718  0.00  0.00     0.285 C 
ATOM     12  O   UNL d   1     -48.221  13.804  23.381  0.00  0.00    -0.265 OA
BRANCH  11  13
ATOM     13  C   UNL d   1     -47.003  13.780  22.654  0.00  0.00     0.087 A 
ATOM     14  S   UNL d   1     -46.661  14.444  23.001  0.00  0.00    -0.082 SA
ATOM     15  C   UNL d   1     -45.870  14.455  22.813  0.00  0.00     0.036 A 
ATOM     16  C   UNL d   1     -45.721  13.780  22.337  0.00  0.00     0.008 A 
ATOM     17  C   UNL d   1     -46.413  13.373  22.244  0.00  0.00     0.012 A 
ENDBRANCH  11  13
ENDBRANCH   2  10
BRANCH   1  18
ATOM     18  C   UNL d   1     -48.857  11.521  22.697  0.00  0.00     0.303 C 
ATOM     19  O   UNL d   1     -48.601  11.022  22.097  0.00  0.00    -0.259 OA
BRANCH  18  20
ATOM     20  O   UNL d   1     -48.715  11.348  23.483  0.00  0.00    -0.295 OA
ATOM     21  C   UNL d   1     -48.355  10.649  23.698  0.00  0.00     0.185 C 
ENDBRANCH  18  20
ENDBRANCH   1  18
TORSDOF 4
ENDMDL
MODEL 5
REMARK VINA RESULT:      -5.6      9.605     10.725
REMARK  4 active torsions:
REMARK  status: ('A' for Active; 'I' for Inactive)
REMARK    1  A    between atoms: C_8  and  C_1 
REMARK    2  A    between atoms: N_4  and  C_2 
REMARK       I    between atoms: C_6  and  N_4 
REMARK    3  A    between atoms: C_9  and  C_6 
REMARK    4  A    between atoms: O_16  and  C_8 
ROOT
ATOM      1  C   UNL d   1     -39.334  14.135  17.584  0.00  0.00     0.110 A 
ATOM      2  C   UNL d   1     -39.856  14.464  18.145  0.00  0.00     0.096 A 
ATOM      3  S   UNL d   1     -39.521  14.454  16.890  0.00  0.00    -0.080 SA
ATOM      4  C   UNL d   1     -40.344  14.972  17.781  0.00  0.00     0.024 A 
ATOM      5  C   UNL d   1     -40.151  14.984  16.977  0.00  0.00     0.031 A 
ATOM      6  C   UNL d   1     -40.966  15.452  18.055  0.00  0.00     0.002 A 
ATOM      7  C   UNL d   1     -40.557  15.455  16.456  0.00  0.00     0.006 A 
ATOM      8  C   UNL d   1     -41.371  15.922  17.539  0.00  0.00     0.000 A 
ATOM      9  C   UNL d   1     -41.162  15.922  16.729  0.00  0.00     0.001 A 
ENDROOT
BRANCH   2  10
ATOM     10  N   UNL d   1     -39.864  14.288  18.957  0.00  0.00    -0.207 NA
ATOM     11  C   UNL d   1     -39.535  14.835  19.495  0.00  0.00     0.285 C 
ATOM     12  O   UNL d   1     -39.213  15.531  19.197  0.00  0.00    -0.265 OA
BRANCH  11  13
ATOM     13  C   UNL d   1     -39.529  14.689  20.295  0.00  0.00     0.087 A 
ATOM     14  S   UNL d   1     -38.977  14.999  20.821  0.00  0.00    -0.082 SA
ATOM     15  C   UNL d   1     -39.152  14.729  21.568  0.00  0.00     0.036 A 
ATOM     16  C   UNL d   1     -39.830  14.240  21.500  0.00  0.00     0.008 A 
ATOM     17  C   UNL d   1     -40.056  14.218  20.723  0.00  0.00     0.012 A 
ENDBRANCH  11  13
ENDBRANCH   2  10
BRANCH   1  18
ATOM     18  C   UNL d   1     -38.714  13.570  17.692  0.00  0.00     0.303 C 
ATOM     19  O   UNL d   1     -37.943  13.852  17.724  0.00  0.00    -0.259 OA
BRANCH  18  20
ATOM     20  O   UNL d   1     -38.877  12.772  17.762  0.00  0.00    -0.295 OA
ATOM     21  C   UNL d   1     -38.288  12.216  17.676  0.00  0.00     0.185 C 
ENDBRANCH  18  20
ENDBRANCH   1  18
TORSDOF 4
ENDMDL
MODEL 6
REMARK VINA RESULT:      -5.4      9.167     10.291
REMARK  4 active torsions:
REMARK  status: ('A' for Active; 'I' for Inactive)
REMARK    1  A    between atoms: C_8  and  C_1 
REMARK    2  A    between atoms: N_4  and  C_2 
REMARK       I    between atoms: C_6  and  N_4 
REMARK    3  A    between atoms: C_9  and  C_6 
REMARK    4  A    between atoms: O_16  and  C_8 
ROOT
ATOM      1  C   UNL d   1     -40.607  15.362  18.197  0.00  0.00     0.110 A 
ATOM      2  C   UNL d   1     -40.267  14.718  18.603  0.00  0.00     0.096 A 
ATOM      3  S   UNL d   1     -40.870  15.860  18.747  0.00  0.00    -0.080 SA
ATOM      4  C   UNL d   1     -40.331  14.839  19.385  0.00  0.00     0.024 A 
ATOM      5  C   UNL d   1     -40.713  15.563  19.504  0.00  0.00     0.031 A 
ATOM      6  C   UNL d   1     -40.096  14.393  20.046  0.00  0.00     0.002 A 
ATOM      7  C   UNL d   1     -40.860  15.841  20.251  0.00  0.00     0.006 A 
ATOM      8  C   UNL d   1     -40.240  14.667  20.791  0.00  0.00     0.000 A 
ATOM      9  C   UNL d   1     -40.627  15.401  20.893  0.00  0.00     0.001 A 
ENDROOT
BRANCH   2  10
ATOM     10  N   UNL d   1     -39.918  14.055  18.247  0.00  0.00    -0.207 NA
ATOM     11  C   UNL d   1     -39.086  14.016  18.187  0.00  0.00     0.285 C 
ATOM     12  O   UNL d   1     -38.643  14.641  18.485  0.00  0.00    -0.265 OA
BRANCH  11  13
ATOM     13  C   UNL d   1     -38.717  13.378  17.843  0.00  0.00     0.087 A 
ATOM     14  S   UNL d   1     -38.400  12.742  18.260  0.00  0.00    -0.082 SA
ATOM     15  C   UNL d   1     -38.079  12.219  17.726  0.00  0.00     0.036 A 
ATOM     16  C   UNL d   1     -38.201  12.541  16.962  0.00  0.00     0.008 A 
ATOM     17  C   UNL d   1     -38.589  13.246  17.038  0.00  0.00     0.012 A 
ENDBRANCH  11  13
ENDBRANCH   2  10
BRANCH   1  18
ATOM     18  C   UNL d   1     -40.679  15.498  17.365  0.00  0.00     0.303 C 
ATOM     19  O   UNL d   1     -40.080  15.922  16.995  0.00  0.00    -0.259 OA
BRANCH  18  20
ATOM     20  O   UNL d   1     -41.321  15.216  16.945  0.00  0.00    -0.295 OA
ATOM     21  C   UNL d   1     -41.586  15.602  16.279  0.00  0.00     0.185 C 
ENDBRANCH  18  20
ENDBRANCH   1  18
TORSDOF 4
ENDMDL
MODEL 7
REMARK VINA RESULT:      -4.7      7.531      9.858
REMARK  4 active torsions:
REMARK  status: ('A' for Active; 'I' for Inactive)
REMARK    1  A    between atoms: C_8  and  C_1 
REMARK    2  A    between atoms: N_4  and  C_2 
REMARK       I    between atoms: C_6  and  N_4 
REMARK    3  A    between atoms: C_9  and  C_6 
REMARK    4  A    between atoms: O_16  and  C_8 
ROOT
ATOM      1  C   UNL d   1     -40.503  14.934  20.855  0.00  0.00     0.110 A 
ATOM      2  C   UNL d   1     -40.067  15.319  20.257  0.00  0.00     0.096 A 
ATOM      3  S   UNL d   1     -40.021  14.866  21.473  0.00  0.00    -0.080 SA
ATOM      4  C   UNL d   1     -39.337  15.474  20.524  0.00  0.00     0.024 A 
ATOM      5  C   UNL d   1     -39.280  15.194  21.300  0.00  0.00     0.031 A 
ATOM      6  C   UNL d   1     -38.676  15.842  20.178  0.00  0.00     0.002 A 
ATOM      7  C   UNL d   1     -38.595  15.273  21.725  0.00  0.00     0.006 A 
ATOM      8  C   UNL d   1     -37.991  15.922  20.598  0.00  0.00     0.000 A 
ATOM      9  C   UNL d   1     -37.953  15.633  21.382  0.00  0.00     0.001 A 
ENDROOT
BRANCH   2  10
ATOM     10  N   UNL d   1     -40.353  15.510  19.501  0.00  0.00    -0.207 NA
ATOM     11  C   UNL d   1     -40.121  15.044  18.848  0.00  0.00     0.285 C 
ATOM     12  O   UNL d   1     -39.615  14.410  18.981  0.00  0.00    -0.265 OA
BRANCH  11  13
ATOM     13  C   UNL d   1     -40.385  15.208  18.097  0.00  0.00     0.087 A 
ATOM     14  S   UNL d   1     -40.377  14.671  17.472  0.00  0.00    -0.082 SA
ATOM     15  C   UNL d   1     -40.683  15.037  16.814  0.00  0.00     0.036 A 
ATOM     16  C   UNL d   1     -40.885  15.820  17.038  0.00  0.00     0.008 A 
ATOM     17  C   UNL d   1     -40.702  15.919  17.820  0.00  0.00     0.012 A 
ENDBRANCH  11  13
ENDBRANCH   2  10
BRANCH   1  18
ATOM     18  C   UNL d   1     -41.301  14.655  20.846  0.00  0.00     0.303 C 
ATOM     19  O   UNL d   1     -41.901  15.216  20.837  0.00  0.00    -0.259 OA
BRANCH  18  20
ATOM     20  O   UNL d   1     -41.469  13.855  20.846  0.00  0.00    -0.295 OA
ATOM     21  C   UNL d   1     -42.205  13.583  21.061  0.00  0.00     0.185 C 
ENDBRANCH  18  20
ENDBRANCH   1  18
TORSDOF 4
ENDMDL
MODEL 8
REMARK VINA RESULT:      -4.5      1.255      3.380
REMARK  4 active torsions:
REMARK  status: ('A' for Active; 'I' for Inactive)
REMARK    1  A    between atoms: C_8  and  C_1 
REMARK    2  A    between atoms: N_4  and  C_2 
REMARK       I    between atoms: C_6  and  N_4 
REMARK    3  A    between atoms: C_9  and  C_6 
REMARK    4  A    between atoms: O_16  and  C_8 
ROOT
ATOM      1  C   UNL d   1     -47.730  14.290  22.864  0.00  0.00     0.110 A 
ATOM      2  C   UNL d   1     -48.476  14.010  23.109  0.00  0.00     0.096 A 
ATOM      3  S   UNL d   1     -47.843  15.019  22.591  0.00  0.00    -0.080 SA
ATOM      4  C   UNL d   1     -49.021  14.571  22.980  0.00  0.00     0.024 A 
ATOM      5  C   UNL d   1     -48.643  15.228  22.650  0.00  0.00     0.031 A 
ATOM      6  C   UNL d   1     -49.842  14.603  23.114  0.00  0.00     0.002 A 
ATOM      7  C   UNL d   1     -49.057  15.897  22.455  0.00  0.00     0.006 A 
ATOM      8  C   UNL d   1     -50.258  15.267  22.921  0.00  0.00     0.000 A 
ATOM      9  C   UNL d   1     -49.858  15.921  22.588  0.00  0.00     0.001 A 
ENDROOT
BRANCH   2  10
ATOM     10  N   UNL d   1     -48.626  13.261  23.436  0.00  0.00    -0.207 NA
ATOM     11  C   UNL d   1     -48.934  12.658  22.948  0.00  0.00     0.285 C 
ATOM     12  O   UNL d   1     -49.077  12.830  22.157  0.00  0.00    -0.265 OA
BRANCH  11  13
ATOM     13  C   UNL d   1     -49.090  11.916  23.241  0.00  0.00     0.087 A 
ATOM     14  S   UNL d   1     -49.844  11.629  23.407  0.00  0.00    -0.082 SA
ATOM     15  C   UNL d   1     -49.775  10.869  23.689  0.00  0.00     0.036 A 
ATOM     16  C   UNL d   1     -48.957  10.684  23.698  0.00  0.00     0.008 A 
ATOM     17  C   UNL d   1     -48.545  11.323  23.424  0.00  0.00     0.012 A 
ENDBRANCH  11  13
ENDBRANCH   2  10
BRANCH   1  18
ATOM     18  C   UNL d   1     -46.977  13.905  22.884  0.00  0.00     0.303 C 
ATOM     19  O   UNL d   1     -46.666  13.715  23.621  0.00  0.00    -0.259 OA
BRANCH  18  20
ATOM     20  O   UNL d   1     -46.574  13.730  22.196  0.00  0.00    -0.295 OA
ATOM     21  C   UNL d   1     -45.772  13.587  22.206  0.00  0.00     0.185 C 
ENDBRANCH  18  20
ENDBRANCH   1  18
TORSDOF 4
ENDMDL
