MODEL 1
REMARK VINA RESULT:      29.8      0.000      0.000
REMARK  2 active torsions:
REMARK  status: ('A' for Active; 'I' for Inactive)
REMARK    1  A    between atoms: N_2  and  S_1 
REMARK    2  A    between atoms: C_8  and  S_1 
ROOT
ATOM      1  N   UNL d   1     -56.407 -99.322 -44.314  0.00  0.00    -0.231 N 
ATOM      2  C   UNL d   1     -55.817 -98.755 -44.315  0.00  0.00     0.092 A 
ATOM      3  C   UNL d   1     -56.041-100.062 -44.323  0.00  0.00     0.075 A 
ATOM      4  C   UNL d   1     -55.087 -99.136 -44.325  0.00  0.00     0.021 A 
ATOM      5  C   UNL d   1     -55.223 -99.947 -44.330  0.00  0.00     0.018 A 
ATOM      6  C   UNL d   1     -56.350-100.824 -44.326  0.00  0.00     0.018 A 
ATOM      7  C   UNL d   1     -54.716-100.593 -44.340  0.00  0.00     0.002 A 
ATOM      8  C   UNL d   1     -55.842-101.476 -44.336  0.00  0.00     0.002 A 
ATOM      9  C   UNL d   1     -55.023-101.361 -44.343  0.00  0.00     0.000 A 
ENDROOT
BRANCH   1  10
ATOM     10  S   UNL d   1     -57.219 -99.181 -44.305  0.00  0.00     0.271 S 
ATOM     11  O   UNL d   1     -57.258 -99.475 -43.530  0.00  0.00    -0.200 OA
ATOM     12  O   UNL d   1     -57.177 -98.890 -45.076  0.00  0.00    -0.200 OA
BRANCH  10  13
ATOM     13  C   UNL d   1     -58.035 -99.039 -44.299  0.00  0.00     0.104 A 
ATOM     14  C   UNL d   1     -58.448 -99.021 -43.590  0.00  0.00     0.013 A 
ATOM     15  C   UNL d   1     -59.252 -98.881 -43.584  0.00  0.00     0.001 A 
ATOM     16  C   UNL d   1     -59.655 -98.755 -44.297  0.00  0.00     0.000 A 
ATOM     17  C   UNL d   1     -59.248 -98.772 -45.008  0.00  0.00     0.001 A 
ATOM     18  C   UNL d   1     -58.434 -98.914 -45.012  0.00  0.00     0.013 A 
ENDBRANCH  10  13
ENDBRANCH   1  10
TORSDOF 2
ENDMDL
