MODEL 1
REMARK VINA RESULT:      40.6      0.000      0.000
REMARK  4 active torsions:
REMARK  status: ('A' for Active; 'I' for Inactive)
REMARK       I    between atoms: C_3  and  N_1 
REMARK    1  A    between atoms: C_9  and  C_3 
REMARK    2  A    between atoms: S_8  and  C_9 
REMARK    3  A    between atoms: C_12  and  S_8 
REMARK    4  A    between atoms: C_11  and  C_12 
ROOT
ATOM      1  N   UNL d   1     -51.665  24.800  33.313  0.00  0.00    -0.274 N 
ATOM      2  C   UNL d   1     -52.429  24.492  33.311  0.00  0.00     0.067 A 
ATOM      3  C   UNL d   1     -51.459  25.609  33.311  0.00  0.00     0.259 C 
ATOM      4  C   UNL d   1     -51.128  24.168  33.317  0.00  0.00     0.083 A 
ATOM      5  C   UNL d   1     -52.373  23.671  33.314  0.00  0.00     0.018 A 
ATOM      6  O   UNL d   1     -52.052  26.194  33.307  0.00  0.00    -0.267 OA
ATOM      7  C   UNL d   1     -51.573  23.476  33.317  0.00  0.00     0.021 A 
ATOM      8  C   UNL d   1     -53.169  24.852  33.308  0.00  0.00     0.018 A 
ATOM      9  C   UNL d   1     -53.046  23.208  33.313  0.00  0.00     0.002 A 
ATOM     10  C   UNL d   1     -53.847  24.403  33.307  0.00  0.00     0.002 A 
ATOM     11  C   UNL d   1     -53.798  23.573  33.309  0.00  0.00     0.000 A 
ENDROOT
BRANCH   3  12
ATOM     12  C   UNL d   1     -50.658  25.839  33.313  0.00  0.00     0.125 C 
BRANCH  12  13
ATOM     13  S   UNL d   1     -50.416  26.485  33.760  0.00  0.00    -0.094 SA
BRANCH  13  14
ATOM     14  C   UNL d   1     -49.959  27.080  33.406  0.00  0.00     0.035 C 
BRANCH  14  15
ATOM     15  C   UNL d   1     -49.488  27.575  33.881  0.00  0.00     0.006 A 
ATOM     16  C   UNL d   1     -49.636  28.386  33.895  0.00  0.00     0.001 A 
ATOM     17  C   UNL d   1     -49.170  28.879  34.366  0.00  0.00     0.000 A 
ATOM     18  C   UNL d   1     -48.559  28.548  34.817  0.00  0.00     0.000 A 
ATOM     19  C   UNL d   1     -48.413  27.742  34.802  0.00  0.00     0.000 A 
ATOM     20  C   UNL d   1     -48.875  27.252  34.336  0.00  0.00     0.001 A 
ENDBRANCH  14  15
ENDBRANCH  13  14
ENDBRANCH  12  13
ENDBRANCH   3  12
TORSDOF 4
ENDMDL
MODEL 2
REMARK VINA RESULT:      42.9      0.930      1.535
REMARK  4 active torsions:
REMARK  status: ('A' for Active; 'I' for Inactive)
REMARK       I    between atoms: C_3  and  N_1 
REMARK    1  A    between atoms: C_9  and  C_3 
REMARK    2  A    between atoms: S_8  and  C_9 
REMARK    3  A    between atoms: C_12  and  S_8 
REMARK    4  A    between atoms: C_11  and  C_12 
ROOT
ATOM      1  N   UNL d   1     -51.078  25.505  33.307  0.00  0.00    -0.274 N 
ATOM      2  C   UNL d   1     -51.317  24.716  33.309  0.00  0.00     0.067 A 
ATOM      3  C   UNL d   1     -50.291  25.781  33.307  0.00  0.00     0.259 C 
ATOM      4  C   UNL d   1     -51.756  25.983  33.306  0.00  0.00     0.083 A 
ATOM      5  C   UNL d   1     -52.140  24.698  33.308  0.00  0.00     0.018 A 
ATOM      6  O   UNL d   1     -49.655  25.243  33.309  0.00  0.00    -0.267 OA
ATOM      7  C   UNL d   1     -52.405  25.478  33.306  0.00  0.00     0.021 A 
ATOM      8  C   UNL d   1     -50.892  24.011  33.310  0.00  0.00     0.018 A 
ATOM      9  C   UNL d   1     -52.541  23.987  33.309  0.00  0.00     0.002 A 
ATOM     10  C   UNL d   1     -51.280  23.296  33.311  0.00  0.00     0.002 A 
ATOM     11  C   UNL d   1     -52.110  23.271  33.311  0.00  0.00     0.000 A 
ENDROOT
BRANCH   3  12
ATOM     12  C   UNL d   1     -50.133  26.600  33.306  0.00  0.00     0.125 C 
BRANCH  12  13
ATOM     13  S   UNL d   1     -49.542  26.906  33.788  0.00  0.00    -0.094 SA
BRANCH  13  14
ATOM     14  C   UNL d   1     -49.478  27.727  33.888  0.00  0.00     0.035 C 
BRANCH  14  15
ATOM     15  C   UNL d   1     -49.018  28.032  34.510  0.00  0.00     0.006 A 
ATOM     16  C   UNL d   1     -48.538  28.690  34.377  0.00  0.00     0.001 A 
ATOM     17  C   UNL d   1     -48.080  28.993  34.994  0.00  0.00     0.000 A 
ATOM     18  C   UNL d   1     -48.111  28.630  35.738  0.00  0.00     0.000 A 
ATOM     19  C   UNL d   1     -48.589  27.977  35.868  0.00  0.00     0.000 A 
ATOM     20  C   UNL d   1     -49.043  27.675  35.258  0.00  0.00     0.001 A 
ENDBRANCH  14  15
ENDBRANCH  13  14
ENDBRANCH  12  13
ENDBRANCH   3  12
TORSDOF 4
ENDMDL
