MODEL 1
REMARK VINA RESULT:      -3.5      0.000      0.000
REMARK  5 active torsions:
REMARK  status: ('A' for Active; 'I' for Inactive)
REMARK       I    between atoms: C_2  and  N_1 
REMARK    1  A    between atoms: C_14  and  C_2 
REMARK    2  A    between atoms: C_8  and  O_11 
REMARK    3  A    between atoms: O_11  and  C_17 
REMARK    4  A    between atoms: C_18  and  C_14 
REMARK    5  A    between atoms: C_17  and  C_18 
ROOT
ATOM      1  C   UNL d   1      32.887  19.708 -22.186  0.00  0.00     0.123 C 
ENDROOT
BRANCH   1   2
ATOM      2  O   UNL d   1      33.212  18.956 -22.281  0.00  0.00    -0.305 OA
BRANCH   2   3
ATOM      3  C   UNL d   1      32.998  18.497 -22.926  0.00  0.00     0.100 A 
ATOM      4  C   UNL d   1      32.983  18.829 -23.681  0.00  0.00     0.025 A 
ATOM      5  C   UNL d   1      32.769  18.368 -24.331  0.00  0.00     0.013 A 
ATOM      6  C   UNL d   1      32.754  18.700 -25.086  0.00  0.00     0.001 C 
ATOM      7  C   UNL d   1      32.568  17.575 -24.226  0.00  0.00     0.058 A 
ATOM      8  C   UNL d   1      32.582  17.243 -23.471  0.00  0.00     0.013 A 
ATOM      9 CL   UNL d   1      32.353  17.115 -24.876  0.00  0.00    -0.082 Cl
ATOM     10  C   UNL d   1      32.797  17.703 -22.821  0.00  0.00     0.025 A 
ATOM     11  C   UNL d   1      32.382  16.451 -23.366  0.00  0.00     0.001 C 
ENDBRANCH   2   3
ENDBRANCH   1   2
BRANCH   1  12
ATOM     12  C   UNL d   1      33.043  20.143 -21.502  0.00  0.00     0.032 C 
BRANCH  12  13
ATOM     13  C   UNL d   1      32.773  20.920 -21.435  0.00  0.00     0.063 C 
BRANCH  13  14
ATOM     14  C   UNL d   1      32.888  21.338 -20.734  0.00  0.00     0.265 C 
ATOM     15  N   UNL d   1      32.650  22.126 -20.679  0.00  0.00    -0.272 N 
ATOM     16  C   UNL d   1      32.765  22.544 -19.978  0.00  0.00     0.083 A 
ATOM     17  C   UNL d   1      32.297  22.496 -21.327  0.00  0.00     0.083 A 
ATOM     18  C   UNL d   1      32.527  23.333 -19.923  0.00  0.00     0.019 A 
ATOM     19  C   UNL d   1      32.174  23.702 -20.571  0.00  0.00     0.003 A 
ATOM     20  C   UNL d   1      32.060  23.284 -21.272  0.00  0.00     0.019 A 
ATOM     21  O   UNL d   1      33.241  20.968 -20.087  0.00  0.00    -0.267 OA
ENDBRANCH  13  14
ENDBRANCH  12  13
ENDBRANCH   1  12
TORSDOF 5
ENDMDL
MODEL 2
REMARK VINA RESULT:      -3.4      2.241      5.371
REMARK  5 active torsions:
REMARK  status: ('A' for Active; 'I' for Inactive)
REMARK       I    between atoms: C_2  and  N_1 
REMARK    1  A    between atoms: C_14  and  C_2 
REMARK    2  A    between atoms: C_8  and  O_11 
REMARK    3  A    between atoms: O_11  and  C_17 
REMARK    4  A    between atoms: C_18  and  C_14 
REMARK    5  A    between atoms: C_17  and  C_18 
ROOT
ATOM      1  C   UNL d   1      32.989  19.702 -22.593  0.00  0.00     0.123 C 
ENDROOT
BRANCH   1   2
ATOM      2  O   UNL d   1      33.238  20.095 -21.913  0.00  0.00    -0.305 OA
BRANCH   2   3
ATOM      3  C   UNL d   1      33.053  20.888 -21.808  0.00  0.00     0.100 A 
ATOM      4  C   UNL d   1      32.678  21.135 -21.116  0.00  0.00     0.025 A 
ATOM      5  C   UNL d   1      32.491  21.931 -21.009  0.00  0.00     0.013 A 
ATOM      6  C   UNL d   1      32.117  22.178 -20.317  0.00  0.00     0.001 C 
ATOM      7  C   UNL d   1      32.679  22.481 -21.595  0.00  0.00     0.058 A 
ATOM      8  C   UNL d   1      33.053  22.235 -22.287  0.00  0.00     0.013 A 
ATOM      9 CL   UNL d   1      32.492  23.277 -21.487  0.00  0.00    -0.082 Cl
ATOM     10  C   UNL d   1      33.241  21.438 -22.394  0.00  0.00     0.025 A 
ATOM     11  C   UNL d   1      33.241  22.784 -22.871  0.00  0.00     0.001 C 
ENDBRANCH   2   3
ENDBRANCH   1   2
BRANCH   1  12
ATOM     12  C   UNL d   1      33.036  18.879 -22.636  0.00  0.00     0.032 C 
BRANCH  12  13
ATOM     13  C   UNL d   1      32.650  18.473 -23.241  0.00  0.00     0.063 C 
BRANCH  13  14
ATOM     14  C   UNL d   1      32.646  17.648 -23.249  0.00  0.00     0.265 C 
ATOM     15  N   UNL d   1      32.107  17.242 -23.722  0.00  0.00    -0.272 N 
ATOM     16  C   UNL d   1      32.103  16.417 -23.730  0.00  0.00     0.083 A 
ATOM     17  C   UNL d   1      31.570  17.661 -24.188  0.00  0.00     0.083 A 
ATOM     18  C   UNL d   1      31.563  16.011 -24.203  0.00  0.00     0.019 A 
ATOM     19  C   UNL d   1      31.027  16.429 -24.669  0.00  0.00     0.003 A 
ATOM     20  C   UNL d   1      31.030  17.255 -24.661  0.00  0.00     0.019 A 
ATOM     21  O   UNL d   1      33.183  17.230 -22.783  0.00  0.00    -0.267 OA
ENDBRANCH  13  14
ENDBRANCH  12  13
ENDBRANCH   1  12
TORSDOF 5
ENDMDL
MODEL 3
REMARK VINA RESULT:      -2.7      2.425      5.309
REMARK  5 active torsions:
REMARK  status: ('A' for Active; 'I' for Inactive)
REMARK       I    between atoms: C_2  and  N_1 
REMARK    1  A    between atoms: C_14  and  C_2 
REMARK    2  A    between atoms: C_8  and  O_11 
REMARK    3  A    between atoms: O_11  and  C_17 
REMARK    4  A    between atoms: C_18  and  C_14 
REMARK    5  A    between atoms: C_17  and  C_18 
ROOT
ATOM      1  C   UNL d   1      32.603  19.077 -22.637  0.00  0.00     0.123 C 
ENDROOT
BRANCH   1   2
ATOM      2  O   UNL d   1      33.238  19.506 -22.334  0.00  0.00    -0.305 OA
BRANCH   2   3
ATOM      3  C   UNL d   1      33.145  20.302 -22.153  0.00  0.00     0.100 A 
ATOM      4  C   UNL d   1      33.240  20.871 -22.742  0.00  0.00     0.025 A 
ATOM      5  C   UNL d   1      33.146  21.671 -22.563  0.00  0.00     0.013 A 
ATOM      6  C   UNL d   1      33.241  22.240 -23.152  0.00  0.00     0.001 C 
ATOM      7  C   UNL d   1      32.959  21.901 -21.793  0.00  0.00     0.058 A 
ATOM      8  C   UNL d   1      32.865  21.332 -21.204  0.00  0.00     0.013 A 
ATOM      9 CL   UNL d   1      32.866  22.701 -21.614  0.00  0.00    -0.082 Cl
ATOM     10  C   UNL d   1      32.958  20.532 -21.383  0.00  0.00     0.025 A 
ATOM     11  C   UNL d   1      32.677  21.562 -20.435  0.00  0.00     0.001 C 
ENDBRANCH   2   3
ENDBRANCH   1   2
BRANCH   1  12
ATOM     12  C   UNL d   1      32.735  18.355 -23.015  0.00  0.00     0.032 C 
BRANCH  12  13
ATOM     13  C   UNL d   1      32.213  18.091 -23.596  0.00  0.00     0.063 C 
BRANCH  13  14
ATOM     14  C   UNL d   1      32.111  17.283 -23.723  0.00  0.00     0.265 C 
ATOM     15  N   UNL d   1      31.435  17.007 -24.108  0.00  0.00    -0.272 N 
ATOM     16  C   UNL d   1      31.333  16.199 -24.235  0.00  0.00     0.083 A 
ATOM     17  C   UNL d   1      30.861  17.541 -24.366  0.00  0.00     0.083 A 
ATOM     18  C   UNL d   1      30.657  15.923 -24.620  0.00  0.00     0.019 A 
ATOM     19  C   UNL d   1      30.083  16.457 -24.878  0.00  0.00     0.003 A 
ATOM     20  C   UNL d   1      30.186  17.266 -24.751  0.00  0.00     0.019 A 
ATOM     21  O   UNL d   1      32.684  16.749 -23.465  0.00  0.00    -0.267 OA
ENDBRANCH  13  14
ENDBRANCH  12  13
ENDBRANCH   1  12
TORSDOF 5
ENDMDL
