MODEL 1
REMARK VINA RESULT:      -7.5      0.000      0.000
REMARK  3 active torsions:
REMARK  status: ('A' for Active; 'I' for Inactive)
REMARK    1  A    between atoms: C_6  and  N_1 
REMARK    2  A    between atoms: C_5  and  C_6 
REMARK       I    between atoms: N_8  and  C_5 
REMARK    3  A    between atoms: C_10  and  N_8 
ROOT
ATOM      1  C   UNL d   1     -47.736  11.836  23.400  0.00  0.00     0.297 C 
ATOM      2  N   UNL d   1     -48.372  11.388  23.112  0.00  0.00    -0.207 NA
ATOM      3  O   UNL d   1     -47.776  12.656  23.393  0.00  0.00    -0.264 OA
ENDROOT
BRANCH   1   4
ATOM      4  C   UNL d   1     -47.066  11.456  23.691  0.00  0.00     0.145 C 
BRANCH   4   5
ATOM      5  N   UNL d   1     -46.320  11.674  23.426  0.00  0.00    -0.282 N 
ATOM      6  C   UNL d   1     -46.109  12.405  23.101  0.00  0.00     0.183 A 
ATOM      7  N   UNL d   1     -45.307  12.379  22.914  0.00  0.00    -0.224 NA
ATOM      8  C   UNL d   1     -45.017  11.632  23.121  0.00  0.00     0.099 A 
ATOM      9  C   UNL d   1     -45.647  11.198  23.438  0.00  0.00     0.083 A 
ATOM     10  C   UNL d   1     -44.268  11.297  23.061  0.00  0.00     0.021 A 
ATOM     11  C   UNL d   1     -45.513  10.426  23.692  0.00  0.00     0.019 A 
ATOM     12  C   UNL d   1     -44.773  10.085  23.637  0.00  0.00     0.002 A 
ATOM     13  C   UNL d   1     -44.137  10.520  23.318  0.00  0.00     0.002 A 
ENDBRANCH   4   5
ENDBRANCH   1   4
BRANCH   2  14
ATOM     14  C   UNL d   1     -49.015  11.830  22.834  0.00  0.00     0.085 A 
ATOM     15  C   UNL d   1     -49.636  12.008  23.337  0.00  0.00     0.019 A 
ATOM     16  C   UNL d   1     -50.279  12.446  23.066  0.00  0.00     0.002 A 
ATOM     17  C   UNL d   1     -50.904  12.625  23.575  0.00  0.00     0.000 C 
ATOM     18  C   UNL d   1     -50.294  12.709  22.276  0.00  0.00     0.000 A 
ATOM     19  C   UNL d   1     -49.669  12.529  21.772  0.00  0.00     0.002 A 
ATOM     20  C   UNL d   1     -50.937  13.150  21.997  0.00  0.00     0.000 C 
ATOM     21  C   UNL d   1     -49.026  12.087  22.050  0.00  0.00     0.019 A 
ENDBRANCH   2  14
TORSDOF 3
ENDMDL
MODEL 2
REMARK VINA RESULT:      -7.5      2.058      5.125
REMARK  3 active torsions:
REMARK  status: ('A' for Active; 'I' for Inactive)
REMARK    1  A    between atoms: C_6  and  N_1 
REMARK    2  A    between atoms: C_5  and  C_6 
REMARK       I    between atoms: N_8  and  C_5 
REMARK    3  A    between atoms: C_10  and  N_8 
ROOT
ATOM      1  C   UNL d   1     -47.799  13.868  22.656  0.00  0.00     0.297 C 
ATOM      2  N   UNL d   1     -47.210  13.825  23.238  0.00  0.00    -0.207 NA
ATOM      3  O   UNL d   1     -47.937  13.225  22.164  0.00  0.00    -0.264 OA
ENDROOT
BRANCH   1   4
ATOM      4  C   UNL d   1     -48.244  14.556  22.574  0.00  0.00     0.145 C 
BRANCH   4   5
ATOM      5  N   UNL d   1     -49.048  14.510  22.415  0.00  0.00    -0.282 N 
ATOM      6  C   UNL d   1     -49.412  14.020  21.857  0.00  0.00     0.183 A 
ATOM      7  N   UNL d   1     -50.224  14.157  21.886  0.00  0.00    -0.224 NA
ATOM      8  C   UNL d   1     -50.368  14.732  22.463  0.00  0.00     0.099 A 
ATOM      9  C   UNL d   1     -49.638  14.949  22.789  0.00  0.00     0.083 A 
ATOM     10  C   UNL d   1     -51.064  15.082  22.729  0.00  0.00     0.021 A 
ATOM     11  C   UNL d   1     -49.619  15.520  23.383  0.00  0.00     0.019 A 
ATOM     12  C   UNL d   1     -50.304  15.872  23.654  0.00  0.00     0.002 A 
ATOM     13  C   UNL d   1     -51.040  15.655  23.327  0.00  0.00     0.002 A 
ENDBRANCH   4   5
ENDBRANCH   1   4
BRANCH   2  14
ATOM     14  C   UNL d   1     -46.799  13.107  23.269  0.00  0.00     0.085 A 
ATOM     15  C   UNL d   1     -46.068  13.039  22.906  0.00  0.00     0.019 A 
ATOM     16  C   UNL d   1     -45.653  12.327  22.933  0.00  0.00     0.002 A 
ATOM     17  C   UNL d   1     -44.917  12.261  22.566  0.00  0.00     0.000 C 
ATOM     18  C   UNL d   1     -45.982  11.675  23.334  0.00  0.00     0.000 A 
ATOM     19  C   UNL d   1     -46.716  11.745  23.698  0.00  0.00     0.002 A 
ATOM     20  C   UNL d   1     -45.571  10.957  23.365  0.00  0.00     0.000 C 
ATOM     21  C   UNL d   1     -47.128  12.463  23.667  0.00  0.00     0.019 A 
ENDBRANCH   2  14
TORSDOF 3
ENDMDL
MODEL 3
REMARK VINA RESULT:      -7.0      1.883      2.324
REMARK  3 active torsions:
REMARK  status: ('A' for Active; 'I' for Inactive)
REMARK    1  A    between atoms: C_6  and  N_1 
REMARK    2  A    between atoms: C_5  and  C_6 
REMARK       I    between atoms: N_8  and  C_5 
REMARK    3  A    between atoms: C_10  and  N_8 
ROOT
ATOM      1  C   UNL d   1     -47.417  14.078  22.904  0.00  0.00     0.297 C 
ATOM      2  N   UNL d   1     -47.763  14.728  22.523  0.00  0.00    -0.207 NA
ATOM      3  O   UNL d   1     -47.894  13.482  23.210  0.00  0.00    -0.264 OA
ENDROOT
BRANCH   1   4
ATOM      4  C   UNL d   1     -46.598  14.030  22.973  0.00  0.00     0.145 C 
BRANCH   4   5
ATOM      5  N   UNL d   1     -46.233  13.300  23.063  0.00  0.00    -0.282 N 
ATOM      6  C   UNL d   1     -46.482  12.684  23.554  0.00  0.00     0.183 A 
ATOM      7  N   UNL d   1     -45.953  12.058  23.468  0.00  0.00    -0.224 NA
ATOM      8  C   UNL d   1     -45.373  12.283  22.923  0.00  0.00     0.099 A 
ATOM      9  C   UNL d   1     -45.549  13.053  22.673  0.00  0.00     0.083 A 
ATOM     10  C   UNL d   1     -44.714  11.889  22.627  0.00  0.00     0.021 A 
ATOM     11  C   UNL d   1     -45.056  13.419  22.124  0.00  0.00     0.019 A 
ATOM     12  C   UNL d   1     -44.400  13.036  21.824  0.00  0.00     0.002 A 
ATOM     13  C   UNL d   1     -44.221  12.260  22.074  0.00  0.00     0.002 A 
ENDBRANCH   4   5
ENDBRANCH   1   4
BRANCH   2  14
ATOM     14  C   UNL d   1     -48.590  14.716  22.487  0.00  0.00     0.085 A 
ATOM     15  C   UNL d   1     -49.027  15.184  22.997  0.00  0.00     0.019 A 
ATOM     16  C   UNL d   1     -49.851  15.176  22.966  0.00  0.00     0.002 A 
ATOM     17  C   UNL d   1     -50.290  15.648  23.481  0.00  0.00     0.000 C 
ATOM     18  C   UNL d   1     -50.237  14.690  22.411  0.00  0.00     0.000 A 
ATOM     19  C   UNL d   1     -49.796  14.221  21.899  0.00  0.00     0.002 A 
ATOM     20  C   UNL d   1     -51.064  14.678  22.374  0.00  0.00     0.000 C 
ATOM     21  C   UNL d   1     -48.968  14.233  21.935  0.00  0.00     0.019 A 
ENDBRANCH   2  14
TORSDOF 3
ENDMDL
MODEL 4
REMARK VINA RESULT:      -6.9      1.299      4.895
REMARK  3 active torsions:
REMARK  status: ('A' for Active; 'I' for Inactive)
REMARK    1  A    between atoms: C_6  and  N_1 
REMARK    2  A    between atoms: C_5  and  C_6 
REMARK       I    between atoms: N_8  and  C_5 
REMARK    3  A    between atoms: C_10  and  N_8 
ROOT
ATOM      1  C   UNL d   1     -48.427  12.384  23.160  0.00  0.00     0.297 C 
ATOM      2  N   UNL d   1     -47.821  12.843  23.491  0.00  0.00    -0.207 NA
ATOM      3  O   UNL d   1     -48.240  11.737  22.690  0.00  0.00    -0.264 OA
ENDROOT
BRANCH   1   4
ATOM      4  C   UNL d   1     -49.214  12.579  23.303  0.00  0.00     0.145 C 
BRANCH   4   5
ATOM      5  N   UNL d   1     -49.702  12.808  22.683  0.00  0.00    -0.282 N 
ATOM      6  C   UNL d   1     -49.864  12.372  21.999  0.00  0.00     0.183 A 
ATOM      7  N   UNL d   1     -50.378  12.813  21.530  0.00  0.00    -0.224 NA
ATOM      8  C   UNL d   1     -50.538  13.525  21.921  0.00  0.00     0.099 A 
ATOM      9  C   UNL d   1     -50.118  13.519  22.635  0.00  0.00     0.083 A 
ATOM     10  C   UNL d   1     -51.008  14.169  21.719  0.00  0.00     0.021 A 
ATOM     11  C   UNL d   1     -50.176  14.167  23.139  0.00  0.00     0.019 A 
ATOM     12  C   UNL d   1     -50.640  14.812  22.948  0.00  0.00     0.002 A 
ATOM     13  C   UNL d   1     -51.064  14.820  22.229  0.00  0.00     0.002 A 
ENDBRANCH   4   5
ENDBRANCH   1   4
BRANCH   2  14
ATOM     14  C   UNL d   1     -47.053  12.595  23.310  0.00  0.00     0.085 A 
ATOM     15  C   UNL d   1     -46.570  13.068  22.848  0.00  0.00     0.019 A 
ATOM     16  C   UNL d   1     -45.804  12.827  22.663  0.00  0.00     0.002 A 
ATOM     17  C   UNL d   1     -45.318  13.305  22.197  0.00  0.00     0.000 C 
ATOM     18  C   UNL d   1     -45.522  12.097  22.950  0.00  0.00     0.000 A 
ATOM     19  C   UNL d   1     -46.009  11.623  23.414  0.00  0.00     0.002 A 
ATOM     20  C   UNL d   1     -44.753  11.848  22.768  0.00  0.00     0.000 C 
ATOM     21  C   UNL d   1     -46.778  11.871  23.596  0.00  0.00     0.019 A 
ENDBRANCH   2  14
TORSDOF 3
ENDMDL
MODEL 5
REMARK VINA RESULT:      -5.8      8.453      9.341
REMARK  3 active torsions:
REMARK  status: ('A' for Active; 'I' for Inactive)
REMARK    1  A    between atoms: C_6  and  N_1 
REMARK    2  A    between atoms: C_5  and  C_6 
REMARK       I    between atoms: N_8  and  C_5 
REMARK    3  A    between atoms: C_10  and  N_8 
ROOT
ATOM      1  C   UNL d   1     -40.346  14.759  19.797  0.00  0.00     0.297 C 
ATOM      2  N   UNL d   1     -40.124  14.294  19.147  0.00  0.00    -0.207 NA
ATOM      3  O   UNL d   1     -40.586  15.536  19.681  0.00  0.00    -0.264 OA
ENDROOT
BRANCH   1   4
ATOM      4  C   UNL d   1     -40.325  14.440  20.555  0.00  0.00     0.145 C 
BRANCH   4   5
ATOM      5  N   UNL d   1     -39.920  14.828  21.155  0.00  0.00    -0.282 N 
ATOM      6  C   UNL d   1     -39.882  15.645  21.273  0.00  0.00     0.183 A 
ATOM      7  N   UNL d   1     -39.416  15.787  21.938  0.00  0.00    -0.224 NA
ATOM      8  C   UNL d   1     -39.162  15.058  22.235  0.00  0.00     0.099 A 
ATOM      9  C   UNL d   1     -39.475  14.465  21.748  0.00  0.00     0.083 A 
ATOM     10  C   UNL d   1     -38.690  14.862  22.880  0.00  0.00     0.021 A 
ATOM     11  C   UNL d   1     -39.308  13.677  21.919  0.00  0.00     0.019 A 
ATOM     12  C   UNL d   1     -38.841  13.472  22.556  0.00  0.00     0.002 A 
ATOM     13  C   UNL d   1     -38.525  14.067  23.048  0.00  0.00     0.002 A 
ENDBRANCH   4   5
ENDBRANCH   1   4
BRANCH   2  14
ATOM     14  C   UNL d   1     -40.167  14.673  18.412  0.00  0.00     0.085 A 
ATOM     15  C   UNL d   1     -39.481  14.923  18.042  0.00  0.00     0.019 A 
ATOM     16  C   UNL d   1     -39.517  15.300  17.310  0.00  0.00     0.002 A 
ATOM     17  C   UNL d   1     -38.824  15.552  16.937  0.00  0.00     0.000 C 
ATOM     18  C   UNL d   1     -40.257  15.427  16.949  0.00  0.00     0.000 A 
ATOM     19  C   UNL d   1     -40.944  15.176  17.322  0.00  0.00     0.002 A 
ATOM     20  C   UNL d   1     -40.300  15.806  16.214  0.00  0.00     0.000 C 
ATOM     21  C   UNL d   1     -40.902  14.796  18.058  0.00  0.00     0.019 A 
ENDBRANCH   2  14
TORSDOF 3
ENDMDL
MODEL 6
REMARK VINA RESULT:      -5.6      9.054     10.312
REMARK  3 active torsions:
REMARK  status: ('A' for Active; 'I' for Inactive)
REMARK    1  A    between atoms: C_6  and  N_1 
REMARK    2  A    between atoms: C_5  and  C_6 
REMARK       I    between atoms: N_8  and  C_5 
REMARK    3  A    between atoms: C_10  and  N_8 
ROOT
ATOM      1  C   UNL d   1     -39.813  14.971  19.155  0.00  0.00     0.297 C 
ATOM      2  N   UNL d   1     -39.604  15.719  19.445  0.00  0.00    -0.207 NA
ATOM      3  O   UNL d   1     -39.934  14.348  19.677  0.00  0.00    -0.264 OA
ENDROOT
BRANCH   1   4
ATOM      4  C   UNL d   1     -39.899  14.855  18.344  0.00  0.00     0.145 C 
BRANCH   4   5
ATOM      5  N   UNL d   1     -39.459  14.277  17.961  0.00  0.00    -0.282 N 
ATOM      6  C   UNL d   1     -39.290  13.519  18.246  0.00  0.00     0.183 A 
ATOM      7  N   UNL d   1     -38.834  13.129  17.681  0.00  0.00    -0.224 NA
ATOM      8  C   UNL d   1     -38.717  13.643  17.043  0.00  0.00     0.099 A 
ATOM      9  C   UNL d   1     -39.105  14.354  17.220  0.00  0.00     0.083 A 
ATOM     10  C   UNL d   1     -38.311  13.555  16.333  0.00  0.00     0.021 A 
ATOM     11  C   UNL d   1     -39.079  14.970  16.674  0.00  0.00     0.019 A 
ATOM     12  C   UNL d   1     -38.679  14.893  15.967  0.00  0.00     0.002 A 
ATOM     13  C   UNL d   1     -38.287  14.178  15.787  0.00  0.00     0.002 A 
ENDBRANCH   4   5
ENDBRANCH   1   4
BRANCH   2  14
ATOM     14  C   UNL d   1     -39.534  15.770  20.268  0.00  0.00     0.085 A 
ATOM     15  C   UNL d   1     -38.794  15.723  20.618  0.00  0.00     0.019 A 
ATOM     16  C   UNL d   1     -38.718  15.773  21.437  0.00  0.00     0.002 A 
ATOM     17  C   UNL d   1     -37.972  15.725  21.788  0.00  0.00     0.000 C 
ATOM     18  C   UNL d   1     -39.397  15.871  21.909  0.00  0.00     0.000 A 
ATOM     19  C   UNL d   1     -40.139  15.918  21.556  0.00  0.00     0.002 A 
ATOM     20  C   UNL d   1     -39.327  15.922  22.732  0.00  0.00     0.000 C 
ATOM     21  C   UNL d   1     -40.209  15.867  20.731  0.00  0.00     0.019 A 
ENDBRANCH   2  14
TORSDOF 3
ENDMDL
MODEL 7
REMARK VINA RESULT:      -5.6      8.596     10.667
REMARK  3 active torsions:
REMARK  status: ('A' for Active; 'I' for Inactive)
REMARK    1  A    between atoms: C_6  and  N_1 
REMARK    2  A    between atoms: C_5  and  C_6 
REMARK       I    between atoms: N_8  and  C_5 
REMARK    3  A    between atoms: C_10  and  N_8 
ROOT
ATOM      1  C   UNL d   1     -39.076  14.166  18.474  0.00  0.00     0.297 C 
ATOM      2  N   UNL d   1     -38.319  14.328  18.176  0.00  0.00    -0.207 NA
ATOM      3  O   UNL d   1     -39.671  13.914  17.966  0.00  0.00    -0.264 OA
ENDROOT
BRANCH   1   4
ATOM      4  C   UNL d   1     -39.228  14.259  19.277  0.00  0.00     0.145 C 
BRANCH   4   5
ATOM      5  N   UNL d   1     -39.823  14.766  19.529  0.00  0.00    -0.282 N 
ATOM      6  C   UNL d   1     -40.434  15.075  19.064  0.00  0.00     0.183 A 
ATOM      7  N   UNL d   1     -40.901  15.557  19.543  0.00  0.00    -0.224 NA
ATOM      8  C   UNL d   1     -40.582  15.549  20.307  0.00  0.00     0.099 A 
ATOM      9  C   UNL d   1     -39.915  15.058  20.295  0.00  0.00     0.083 A 
ATOM     10  C   UNL d   1     -40.814  15.922  21.003  0.00  0.00     0.021 A 
ATOM     11  C   UNL d   1     -39.486  14.949  20.990  0.00  0.00     0.019 A 
ATOM     12  C   UNL d   1     -39.707  15.315  21.685  0.00  0.00     0.002 A 
ATOM     13  C   UNL d   1     -40.379  15.809  21.700  0.00  0.00     0.002 A 
ENDBRANCH   4   5
ENDBRANCH   1   4
BRANCH   2  14
ATOM     14  C   UNL d   1     -38.231  14.216  17.360  0.00  0.00     0.085 A 
ATOM     15  C   UNL d   1     -38.141  14.863  16.867  0.00  0.00     0.019 A 
ATOM     16  C   UNL d   1     -38.053  14.758  16.054  0.00  0.00     0.002 A 
ATOM     17  C   UNL d   1     -37.963  15.412  15.558  0.00  0.00     0.000 C 
ATOM     18  C   UNL d   1     -38.055  13.988  15.737  0.00  0.00     0.000 A 
ATOM     19  C   UNL d   1     -38.145  13.339  16.234  0.00  0.00     0.002 A 
ATOM     20  C   UNL d   1     -37.967  13.875  14.921  0.00  0.00     0.000 C 
ATOM     21  C   UNL d   1     -38.234  13.451  17.050  0.00  0.00     0.019 A 
ENDBRANCH   2  14
TORSDOF 3
ENDMDL
