MODEL 1
REMARK VINA RESULT:      -5.7      0.000      0.000
REMARK  3 active torsions:
REMARK  status: ('A' for Active; 'I' for Inactive)
REMARK    1  A    between atoms: N_3  and  C_1 
REMARK       I    between atoms: C_5  and  N_3 
REMARK    2  A    between atoms: C_14  and  C_4 
REMARK       I    between atoms: N_8  and  C_5 
REMARK    3  A    between atoms: C_11  and  N_8 
ROOT
ATOM      1  N   UNL d   1     -41.595-122.650 -52.104  0.00  0.00    -0.166 NA
ATOM      2  C   UNL d   1     -41.372-121.894 -52.164  0.00  0.00     0.370 C 
ATOM      3  N   UNL d   1     -41.351-121.529 -52.882  0.00  0.00    -0.191 NA
ATOM      4  O   UNL d   1     -41.155-121.463 -51.494  0.00  0.00    -0.242 OA
ENDROOT
BRANCH   1   5
ATOM      5  C   UNL d   1     -41.615-123.013 -51.382  0.00  0.00     0.199 A 
ATOM      6  N   UNL d   1     -42.131-122.841 -50.789  0.00  0.00    -0.221 NA
ATOM      7  C   UNL d   1     -41.959-123.336 -50.159  0.00  0.00     0.090 A 
ATOM      8  C   UNL d   1     -41.325-123.812 -50.386  0.00  0.00     0.058 A 
ATOM      9  S   UNL d   1     -41.124-123.596 -51.152  0.00  0.00    -0.046 SA
BRANCH   7  10
ATOM     10  C   UNL d   1     -42.341-123.353 -49.446  0.00  0.00     0.018 A 
ATOM     11  C   UNL d   1     -42.038-122.943 -48.789  0.00  0.00     0.002 A 
ATOM     12  C   UNL d   1     -42.430-122.963 -48.063  0.00  0.00     0.000 A 
ATOM     13  C   UNL d   1     -43.120-123.384 -47.982  0.00  0.00     0.000 A 
ATOM     14  C   UNL d   1     -43.434-123.798 -48.630  0.00  0.00     0.000 A 
ATOM     15  C   UNL d   1     -43.045-123.785 -49.369  0.00  0.00     0.002 A 
ENDBRANCH   7  10
ENDBRANCH   1   5
BRANCH   3  16
ATOM     16  C   UNL d   1     -41.565-121.949 -53.567  0.00  0.00     0.087 A 
ATOM     17  C   UNL d   1     -42.195-121.717 -53.991  0.00  0.00     0.032 A 
ATOM     18  C   UNL d   1     -42.416-122.112 -54.655  0.00  0.00     0.070 A 
ATOM     19 CL   UNL d   1     -43.084-121.861 -55.099  0.00  0.00    -0.081 Cl
ATOM     20  C   UNL d   1     -42.011-122.746 -54.908  0.00  0.00     0.068 A 
ATOM     21  C   UNL d   1     -41.344-123.009 -54.478  0.00  0.00     0.014 A 
ATOM     22 CL   UNL d   1     -42.234-123.146 -55.580  0.00  0.00    -0.082 Cl
ATOM     23  C   UNL d   1     -41.123-122.614 -53.813  0.00  0.00     0.020 A 
ENDBRANCH   3  16
TORSDOF 3
ENDMDL
