MODEL 1
REMARK VINA RESULT:      -8.3      0.000      0.000
REMARK  2 active torsions:
REMARK  status: ('A' for Active; 'I' for Inactive)
REMARK    1  A    between atoms: C_6  and  C_1 
REMARK       I    between atoms: C_7  and  N_8 
REMARK    2  A    between atoms: N_8  and  C_10 
ROOT
ATOM      1  C   UNL d   1     -47.757  13.722  22.697  0.00  0.00     0.025 A 
ATOM      2  C   UNL d   1     -47.476  13.043  23.059  0.00  0.00     0.021 A 
ATOM      3  C   UNL d   1     -46.679  13.010  23.324  0.00  0.00     0.085 A 
ATOM      4  C   UNL d   1     -47.242  14.368  22.598  0.00  0.00     0.002 A 
ATOM      5  C   UNL d   1     -46.488  14.334  22.850  0.00  0.00     0.002 A 
ATOM      6  C   UNL d   1     -46.175  13.658  23.222  0.00  0.00     0.019 A 
ENDROOT
BRANCH   1   7
ATOM      7  C   UNL d   1     -48.511  13.749  22.447  0.00  0.00     0.111 A 
ATOM      8  N   UNL d   1     -48.949  13.175  22.070  0.00  0.00    -0.239 NA
ATOM      9  C   UNL d   1     -49.710  13.495  21.933  0.00  0.00     0.088 A 
ATOM     10  C   UNL d   1     -50.385  13.168  21.571  0.00  0.00     0.020 A 
ATOM     11  C   UNL d   1     -49.712  14.263  22.234  0.00  0.00     0.049 A 
ATOM     12  C   UNL d   1     -51.062  13.615  21.513  0.00  0.00     0.002 A 
ATOM     13  C   UNL d   1     -51.064  14.418  21.829  0.00  0.00     0.001 A 
ATOM     14  C   UNL d   1     -50.389  14.716  22.179  0.00  0.00     0.008 A 
ATOM     15  S   UNL d   1     -48.952  14.407  22.553  0.00  0.00    -0.066 SA
ENDBRANCH   1   7
BRANCH   3  16
ATOM     16  N   UNL d   1     -46.404  12.302  23.697  0.00  0.00    -0.208 NA
ATOM     17  C   UNL d   1     -45.792  11.880  23.332  0.00  0.00     0.279 C 
ATOM     18  O   UNL d   1     -45.539  11.207  23.697  0.00  0.00    -0.265 OA
ATOM     19  C   UNL d   1     -45.455  12.131  22.629  0.00  0.00     0.068 C 
ENDBRANCH   3  16
TORSDOF 2
ENDMDL
MODEL 2
REMARK VINA RESULT:      -7.9      2.186      4.423
REMARK  2 active torsions:
REMARK  status: ('A' for Active; 'I' for Inactive)
REMARK    1  A    between atoms: C_6  and  C_1 
REMARK       I    between atoms: C_7  and  N_8 
REMARK    2  A    between atoms: N_8  and  C_10 
ROOT
ATOM      1  C   UNL d   1     -49.372  12.734  23.210  0.00  0.00     0.025 A 
ATOM      2  C   UNL d   1     -49.608  13.489  23.425  0.00  0.00     0.021 A 
ATOM      3  C   UNL d   1     -50.421  13.700  23.385  0.00  0.00     0.085 A 
ATOM      4  C   UNL d   1     -49.948  12.190  22.956  0.00  0.00     0.002 A 
ATOM      5  C   UNL d   1     -50.716  12.393  22.919  0.00  0.00     0.002 A 
ATOM      6  C   UNL d   1     -50.985  13.152  23.131  0.00  0.00     0.019 A 
ENDROOT
BRANCH   1   7
ATOM      7  C   UNL d   1     -48.602  12.538  23.249  0.00  0.00     0.111 A 
ATOM      8  N   UNL d   1     -47.949  12.977  23.040  0.00  0.00    -0.239 NA
ATOM      9  C   UNL d   1     -47.275  12.506  23.194  0.00  0.00     0.088 A 
ATOM     10  C   UNL d   1     -46.463  12.660  23.090  0.00  0.00     0.020 A 
ATOM     11  C   UNL d   1     -47.542  11.786  23.495  0.00  0.00     0.049 A 
ATOM     12  C   UNL d   1     -45.921  12.088  23.291  0.00  0.00     0.002 A 
ATOM     13  C   UNL d   1     -46.200  11.335  23.606  0.00  0.00     0.001 A 
ATOM     14  C   UNL d   1     -47.002  11.209  23.698  0.00  0.00     0.008 A 
ATOM     15  S   UNL d   1     -48.378  11.823  23.523  0.00  0.00    -0.066 SA
ENDBRANCH   1   7
BRANCH   3  16
ATOM     16  N   UNL d   1     -50.648  14.484  23.610  0.00  0.00    -0.208 NA
ATOM     17  C   UNL d   1     -50.850  15.019  23.011  0.00  0.00     0.279 C 
ATOM     18  O   UNL d   1     -51.064  15.763  23.239  0.00  0.00    -0.265 OA
ATOM     19  C   UNL d   1     -50.833  14.808  22.220  0.00  0.00     0.068 C 
ENDBRANCH   3  16
TORSDOF 2
ENDMDL
MODEL 3
REMARK VINA RESULT:      -6.5      9.084      9.763
REMARK  2 active torsions:
REMARK  status: ('A' for Active; 'I' for Inactive)
REMARK    1  A    between atoms: C_6  and  C_1 
REMARK       I    between atoms: C_7  and  N_8 
REMARK    2  A    between atoms: N_8  and  C_10 
ROOT
ATOM      1  C   UNL d   1     -39.578  14.453  19.160  0.00  0.00     0.025 A 
ATOM      2  C   UNL d   1     -40.256  14.669  18.753  0.00  0.00     0.021 A 
ATOM      3  C   UNL d   1     -40.357  14.431  17.953  0.00  0.00     0.085 A 
ATOM      4  C   UNL d   1     -39.001  14.000  18.767  0.00  0.00     0.002 A 
ATOM      5  C   UNL d   1     -39.099  13.777  18.010  0.00  0.00     0.002 A 
ATOM      6  C   UNL d   1     -39.777  13.982  17.572  0.00  0.00     0.019 A 
ENDROOT
BRANCH   1   7
ATOM      7  C   UNL d   1     -39.486  14.679  19.917  0.00  0.00     0.111 A 
ATOM      8  N   UNL d   1     -39.502  15.428  20.235  0.00  0.00    -0.239 NA
ATOM      9  C   UNL d   1     -39.375  15.350  21.058  0.00  0.00     0.088 A 
ATOM     10  C   UNL d   1     -39.334  15.921  21.663  0.00  0.00     0.020 A 
ATOM     11  C   UNL d   1     -39.284  14.546  21.218  0.00  0.00     0.049 A 
ATOM     12  C   UNL d   1     -39.202  15.681  22.429  0.00  0.00     0.002 A 
ATOM     13  C   UNL d   1     -39.107  14.839  22.596  0.00  0.00     0.001 A 
ATOM     14  C   UNL d   1     -39.151  14.300  21.985  0.00  0.00     0.008 A 
ATOM     15  S   UNL d   1     -39.357  14.138  20.490  0.00  0.00    -0.066 SA
ENDBRANCH   1   7
BRANCH   3  16
ATOM     16  N   UNL d   1     -41.063  14.662  17.548  0.00  0.00    -0.208 NA
ATOM     17  C   UNL d   1     -41.003  15.240  16.958  0.00  0.00     0.279 C 
ATOM     18  O   UNL d   1     -41.683  15.452  16.578  0.00  0.00    -0.265 OA
ATOM     19  C   UNL d   1     -40.286  15.586  16.764  0.00  0.00     0.068 C 
ENDBRANCH   3  16
TORSDOF 2
ENDMDL
MODEL 4
REMARK VINA RESULT:      -5.8      8.159      9.693
REMARK  2 active torsions:
REMARK  status: ('A' for Active; 'I' for Inactive)
REMARK    1  A    between atoms: C_6  and  C_1 
REMARK       I    between atoms: C_7  and  N_8 
REMARK    2  A    between atoms: N_8  and  C_10 
ROOT
ATOM      1  C   UNL d   1     -40.002  14.686  19.601  0.00  0.00     0.025 A 
ATOM      2  C   UNL d   1     -39.551  15.146  20.108  0.00  0.00     0.021 A 
ATOM      3  C   UNL d   1     -39.850  15.344  20.868  0.00  0.00     0.085 A 
ATOM      4  C   UNL d   1     -40.750  14.424  19.853  0.00  0.00     0.002 A 
ATOM      5  C   UNL d   1     -41.030  14.614  20.573  0.00  0.00     0.002 A 
ATOM      6  C   UNL d   1     -40.595  15.079  21.109  0.00  0.00     0.019 A 
ENDROOT
BRANCH   1   7
ATOM      7  C   UNL d   1     -39.716  14.501  18.882  0.00  0.00     0.111 A 
ATOM      8  N   UNL d   1     -39.241  13.876  18.664  0.00  0.00    -0.239 NA
ATOM      9  C   UNL d   1     -39.106  13.945  17.841  0.00  0.00     0.088 A 
ATOM     10  C   UNL d   1     -38.666  13.471  17.316  0.00  0.00     0.020 A 
ATOM     11  C   UNL d   1     -39.508  14.616  17.581  0.00  0.00     0.049 A 
ATOM     12  C   UNL d   1     -38.631  13.674  16.529  0.00  0.00     0.002 A 
ATOM     13  C   UNL d   1     -39.052  14.377  16.257  0.00  0.00     0.001 A 
ATOM     14  C   UNL d   1     -39.476  14.825  16.792  0.00  0.00     0.008 A 
ATOM     15  S   UNL d   1     -39.886  14.954  18.247  0.00  0.00    -0.066 SA
ENDBRANCH   1   7
BRANCH   3  16
ATOM     16  N   UNL d   1     -39.373  15.820  21.380  0.00  0.00    -0.208 NA
ATOM     17  C   UNL d   1     -39.023  15.457  22.037  0.00  0.00     0.279 C 
ATOM     18  O   UNL d   1     -38.570  15.921  22.517  0.00  0.00    -0.265 OA
ATOM     19  C   UNL d   1     -39.128  14.661  22.197  0.00  0.00     0.068 C 
ENDBRANCH   3  16
TORSDOF 2
ENDMDL
