MODEL 1
REMARK VINA RESULT:      10.4      0.000      0.000
REMARK  6 active torsions:
REMARK  status: ('A' for Active; 'I' for Inactive)
REMARK    1  A    between atoms: N_10  and  C_2 
REMARK    2  A    between atoms: C_13  and  C_3 
REMARK    3  A    between atoms: C_6  and  S_15 
REMARK       I    between atoms: C_12  and  N_10 
REMARK    4  A    between atoms: C_14  and  C_12 
REMARK    5  A    between atoms: C_17  and  C_14 
REMARK    6  A    between atoms: S_15  and  C_17 
ROOT
ATOM      1  N   UNL d   1      46.259 -16.368  44.519  0.00  0.00    -0.181 NA
ATOM      2  C   UNL d   1      45.893 -17.078  44.726  0.00  0.00     0.282 C 
ATOM      3  O   UNL d   1      45.094 -17.090  44.944  0.00  0.00    -0.265 OA
ENDROOT
BRANCH   1   4
ATOM      4  C   UNL d   1      45.831 -15.651  44.526  0.00  0.00     0.216 A 
ATOM      5  N   UNL d   1      46.021 -14.971  44.100  0.00  0.00    -0.200 NA
ATOM      6  C   UNL d   1      45.452 -14.402  44.274  0.00  0.00     0.172 A 
ATOM      7  N   UNL d   1      44.922 -14.737  44.800  0.00  0.00    -0.187 NA
ATOM      8  S   UNL d   1      45.156 -15.503  44.955  0.00  0.00     0.054 SA
BRANCH   6   9
ATOM      9  C   UNL d   1      45.394 -13.627  43.988  0.00  0.00     0.036 A 
ATOM     10  C   UNL d   1      44.849 -13.445  43.398  0.00  0.00     0.003 A 
ATOM     11  C   UNL d   1      44.792 -12.673  43.113  0.00  0.00     0.000 A 
ATOM     12  C   UNL d   1      45.278 -12.084  43.418  0.00  0.00     0.000 A 
ATOM     13  C   UNL d   1      45.826 -12.265  44.009  0.00  0.00     0.000 A 
ATOM     14  C   UNL d   1      45.883 -13.037  44.295  0.00  0.00     0.003 A 
ENDBRANCH   6   9
ENDBRANCH   1   4
BRANCH   2  15
ATOM     15  C   UNL d   1      46.325 -17.788  44.716  0.00  0.00     0.070 C 
BRANCH  15  16
ATOM     16  C   UNL d   1      46.625 -18.080  44.006  0.00  0.00     0.042 C 
BRANCH  16  17
ATOM     17  S   UNL d   1      46.578 -18.888  43.848  0.00  0.00    -0.059 SA
BRANCH  17  18
ATOM     18  C   UNL d   1      46.561 -19.152  43.066  0.00  0.00     0.164 A 
ATOM     19  S   UNL d   1      46.646 -18.765  42.340  0.00  0.00    -0.039 SA
ATOM     20  C   UNL d   1      46.575 -19.326  41.746  0.00  0.00     0.134 A 
ATOM     21  C   UNL d   1      46.625 -19.177  40.925  0.00  0.00     0.030 C 
ATOM     22  N   UNL d   1      46.446 -20.059  42.096  0.00  0.00    -0.140 NA
ATOM     23  N   UNL d   1      46.437 -19.952  42.907  0.00  0.00    -0.134 NA
ENDBRANCH  17  18
ENDBRANCH  16  17
ENDBRANCH  15  16
ENDBRANCH   2  15
TORSDOF 6
ENDMDL
MODEL 2
REMARK VINA RESULT:      12.5      1.298      5.383
REMARK  6 active torsions:
REMARK  status: ('A' for Active; 'I' for Inactive)
REMARK    1  A    between atoms: N_10  and  C_2 
REMARK    2  A    between atoms: C_13  and  C_3 
REMARK    3  A    between atoms: C_6  and  S_15 
REMARK       I    between atoms: C_12  and  N_10 
REMARK    4  A    between atoms: C_14  and  C_12 
REMARK    5  A    between atoms: C_17  and  C_14 
REMARK    6  A    between atoms: S_15  and  C_17 
ROOT
ATOM      1  N   UNL d   1      45.925 -16.643  44.892  0.00  0.00    -0.181 NA
ATOM      2  C   UNL d   1      45.421 -16.110  44.515  0.00  0.00     0.282 C 
ATOM      3  O   UNL d   1      45.076 -16.303  43.786  0.00  0.00    -0.265 OA
ENDROOT
BRANCH   1   4
ATOM      4  C   UNL d   1      46.096 -17.385  44.547  0.00  0.00     0.216 A 
ATOM      5  N   UNL d   1      46.098 -17.552  43.740  0.00  0.00    -0.200 NA
ATOM      6  C   UNL d   1      46.296 -18.347  43.653  0.00  0.00     0.172 A 
ATOM      7  N   UNL d   1      46.411 -18.656  44.402  0.00  0.00    -0.187 NA
ATOM      8  S   UNL d   1      46.288 -18.064  44.950  0.00  0.00     0.054 SA
BRANCH   6   9
ATOM      9  C   UNL d   1      46.372 -18.785  42.954  0.00  0.00     0.036 A 
ATOM     10  C   UNL d   1      46.261 -19.600  42.965  0.00  0.00     0.003 A 
ATOM     11  C   UNL d   1      46.338 -20.036  42.269  0.00  0.00     0.000 A 
ATOM     12  C   UNL d   1      46.524 -19.657  41.563  0.00  0.00     0.000 A 
ATOM     13  C   UNL d   1      46.636 -18.839  41.551  0.00  0.00     0.000 A 
ATOM     14  C   UNL d   1      46.560 -18.402  42.247  0.00  0.00     0.003 A 
ENDBRANCH   6   9
ENDBRANCH   1   4
BRANCH   2  15
ATOM     15  C   UNL d   1      45.255 -15.374  44.864  0.00  0.00     0.070 C 
BRANCH  15  16
ATOM     16  C   UNL d   1      45.629 -14.692  44.589  0.00  0.00     0.042 C 
BRANCH  16  17
ATOM     17  S   UNL d   1      45.293 -13.956  44.745  0.00  0.00    -0.059 SA
BRANCH  17  18
ATOM     18  C   UNL d   1      45.283 -13.378  44.155  0.00  0.00     0.164 A 
ATOM     19  S   UNL d   1      44.690 -13.099  43.651  0.00  0.00    -0.039 SA
ATOM     20  C   UNL d   1      45.015 -12.513  43.179  0.00  0.00     0.134 A 
ATOM     21  C   UNL d   1      44.612 -12.080  42.589  0.00  0.00     0.030 C 
ATOM     22  N   UNL d   1      45.807 -12.425  43.385  0.00  0.00    -0.140 NA
ATOM     23  N   UNL d   1      45.971 -12.956  43.984  0.00  0.00    -0.134 NA
ENDBRANCH  17  18
ENDBRANCH  16  17
ENDBRANCH  15  16
ENDBRANCH   2  15
TORSDOF 6
ENDMDL
