MODEL 1
REMARK VINA RESULT:      -8.4      0.000      0.000
REMARK  5 active torsions:
REMARK  status: ('A' for Active; 'I' for Inactive)
REMARK    1  A    between atoms: C_3  and  C_1 
REMARK    2  A    between atoms: C_5  and  C_3 
REMARK    3  A    between atoms: C_13  and  C_5 
REMARK    4  A    between atoms: C_10  and  C_11 
REMARK    5  A    between atoms: O_16  and  C_10 
ROOT
ATOM      1  C   UNL d   1     -48.735  12.752  23.028  0.00  0.00     0.092 C 
ATOM      2  C   UNL d   1     -48.603  12.484  22.256  0.00  0.00     0.103 C 
ATOM      3  N   UNL d   1     -48.474  12.221  21.485  0.00  0.00    -0.191 NA
ENDROOT
BRANCH   1   4
ATOM      4  C   UNL d   1     -49.185  13.432  23.158  0.00  0.00     0.120 A 
ATOM      5  N   UNL d   1     -48.902  14.211  23.120  0.00  0.00    -0.238 NA
ATOM      6  C   UNL d   1     -49.538  14.716  23.287  0.00  0.00     0.088 A 
ATOM      7  C   UNL d   1     -49.585  15.538  23.328  0.00  0.00     0.020 A 
ATOM      8  C   UNL d   1     -50.204  14.250  23.426  0.00  0.00     0.049 A 
ATOM      9  C   UNL d   1     -50.309  15.894  23.511  0.00  0.00     0.002 A 
ATOM     10  C   UNL d   1     -50.979  15.433  23.651  0.00  0.00     0.001 A 
ATOM     11  C   UNL d   1     -50.932  14.613  23.611  0.00  0.00     0.008 A 
ATOM     12  S   UNL d   1     -49.984  13.457  23.346  0.00  0.00    -0.066 SA
ENDBRANCH   1   4
BRANCH   1  13
ATOM     13  C   UNL d   1     -48.415  12.334  23.661  0.00  0.00     0.012 C 
BRANCH  13  14
ATOM     14  C   UNL d   1     -47.649  12.041  23.618  0.00  0.00     0.001 A 
ATOM     15  C   UNL d   1     -47.018  12.549  23.504  0.00  0.00     0.000 A 
ATOM     16  C   UNL d   1     -46.247  12.258  23.461  0.00  0.00     0.005 A 
ATOM     17  C   UNL d   1     -46.108  11.447  23.533  0.00  0.00     0.063 A 
ATOM     18  C   UNL d   1     -46.738  10.929  23.648  0.00  0.00     0.005 A 
ATOM     19  C   UNL d   1     -47.513  11.222  23.692  0.00  0.00     0.000 A 
BRANCH  17  20
ATOM     20  C   UNL d   1     -45.337  11.156  23.490  0.00  0.00     0.296 C 
ATOM     21  O   UNL d   1     -44.720  11.655  23.243  0.00  0.00    -0.259 OA
BRANCH  20  22
ATOM     22  O   UNL d   1     -45.179  10.373  23.690  0.00  0.00    -0.296 OA
ATOM     23  C   UNL d   1     -44.400  10.095  23.685  0.00  0.00     0.185 C 
ENDBRANCH  20  22
ENDBRANCH  17  20
ENDBRANCH  13  14
ENDBRANCH   1  13
TORSDOF 5
ENDMDL
MODEL 2
REMARK VINA RESULT:      -7.8      1.482      1.968
REMARK  5 active torsions:
REMARK  status: ('A' for Active; 'I' for Inactive)
REMARK    1  A    between atoms: C_3  and  C_1 
REMARK    2  A    between atoms: C_5  and  C_3 
REMARK    3  A    between atoms: C_13  and  C_5 
REMARK    4  A    between atoms: C_10  and  C_11 
REMARK    5  A    between atoms: O_16  and  C_10 
ROOT
ATOM      1  C   UNL d   1     -48.352  12.686  23.334  0.00  0.00     0.092 C 
ATOM      2  C   UNL d   1     -48.377  11.867  23.445  0.00  0.00     0.103 C 
ATOM      3  N   UNL d   1     -48.407  11.049  23.555  0.00  0.00    -0.191 NA
ENDROOT
BRANCH   1   4
ATOM      4  C   UNL d   1     -48.979  13.072  22.962  0.00  0.00     0.120 A 
ATOM      5  N   UNL d   1     -49.295  12.873  22.221  0.00  0.00    -0.238 NA
ATOM      6  C   UNL d   1     -49.914  13.403  22.063  0.00  0.00     0.088 A 
ATOM      7  C   UNL d   1     -50.422  13.471  21.418  0.00  0.00     0.020 A 
ATOM      8  C   UNL d   1     -49.975  13.920  22.703  0.00  0.00     0.049 A 
ATOM      9  C   UNL d   1     -50.997  14.065  21.416  0.00  0.00     0.002 A 
ATOM     10  C   UNL d   1     -51.064  14.587  22.052  0.00  0.00     0.001 A 
ATOM     11  C   UNL d   1     -50.557  14.519  22.696  0.00  0.00     0.008 A 
ATOM     12  S   UNL d   1     -49.397  13.715  23.256  0.00  0.00    -0.066 SA
ENDBRANCH   1   4
BRANCH   1  13
ATOM     13  C   UNL d   1     -47.696  13.109  23.597  0.00  0.00     0.012 C 
BRANCH  13  14
ATOM     14  C   UNL d   1     -46.958  12.980  23.262  0.00  0.00     0.001 A 
ATOM     15  C   UNL d   1     -46.548  12.289  23.419  0.00  0.00     0.000 A 
ATOM     16  C   UNL d   1     -45.806  12.155  23.085  0.00  0.00     0.005 A 
ATOM     17  C   UNL d   1     -45.470  12.722  22.587  0.00  0.00     0.063 A 
ATOM     18  C   UNL d   1     -45.876  13.420  22.424  0.00  0.00     0.005 A 
ATOM     19  C   UNL d   1     -46.622  13.554  22.760  0.00  0.00     0.000 A 
BRANCH  17  20
ATOM     20  C   UNL d   1     -44.728  12.588  22.253  0.00  0.00     0.296 C 
ATOM     21  O   UNL d   1     -44.295  11.911  22.465  0.00  0.00    -0.259 OA
BRANCH  20  22
ATOM     22  O   UNL d   1     -44.416  13.123  21.710  0.00  0.00    -0.296 OA
ATOM     23  C   UNL d   1     -43.704  12.954  21.325  0.00  0.00     0.185 C 
ENDBRANCH  20  22
ENDBRANCH  17  20
ENDBRANCH  13  14
ENDBRANCH   1  13
TORSDOF 5
ENDMDL
MODEL 3
REMARK VINA RESULT:      -6.7      2.538      5.145
REMARK  5 active torsions:
REMARK  status: ('A' for Active; 'I' for Inactive)
REMARK    1  A    between atoms: C_3  and  C_1 
REMARK    2  A    between atoms: C_5  and  C_3 
REMARK    3  A    between atoms: C_13  and  C_5 
REMARK    4  A    between atoms: C_10  and  C_11 
REMARK    5  A    between atoms: O_16  and  C_10 
ROOT
ATOM      1  C   UNL d   1     -46.783  12.308  23.414  0.00  0.00     0.092 C 
ATOM      2  C   UNL d   1     -46.723  13.129  23.340  0.00  0.00     0.103 C 
ATOM      3  N   UNL d   1     -46.658  13.949  23.265  0.00  0.00    -0.191 NA
ENDROOT
BRANCH   1   4
ATOM      4  C   UNL d   1     -46.103  11.840  23.390  0.00  0.00     0.120 A 
ATOM      5  N   UNL d   1     -45.372  12.070  23.071  0.00  0.00    -0.238 NA
ATOM      6  C   UNL d   1     -44.849  11.432  23.163  0.00  0.00     0.088 A 
ATOM      7  C   UNL d   1     -44.057  11.343  22.953  0.00  0.00     0.020 A 
ATOM      8  C   UNL d   1     -45.257  10.819  23.534  0.00  0.00     0.049 A 
ATOM      9  C   UNL d   1     -43.672  10.629  23.117  0.00  0.00     0.002 A 
ATOM     10  C   UNL d   1     -44.074  10.012  23.488  0.00  0.00     0.001 A 
ATOM     11  C   UNL d   1     -44.865  10.101  23.698  0.00  0.00     0.008 A 
ATOM     12  S   UNL d   1     -46.032  11.073  23.673  0.00  0.00    -0.066 SA
ENDBRANCH   1   4
BRANCH   1  13
ATOM     13  C   UNL d   1     -47.525  11.964  23.513  0.00  0.00     0.012 C 
BRANCH  13  14
ATOM     14  C   UNL d   1     -48.165  12.227  23.072  0.00  0.00     0.001 A 
ATOM     15  C   UNL d   1     -48.620  12.853  23.337  0.00  0.00     0.000 A 
ATOM     16  C   UNL d   1     -49.265  13.121  22.896  0.00  0.00     0.005 A 
ATOM     17  C   UNL d   1     -49.454  12.755  22.180  0.00  0.00     0.063 A 
ATOM     18  C   UNL d   1     -49.001  12.125  21.906  0.00  0.00     0.005 A 
ATOM     19  C   UNL d   1     -48.353  11.856  22.349  0.00  0.00     0.000 A 
BRANCH  17  20
ATOM     20  C   UNL d   1     -50.099  13.023  21.740  0.00  0.00     0.296 C 
ATOM     21  O   UNL d   1     -50.520  12.492  21.260  0.00  0.00    -0.259 OA
BRANCH  20  22
ATOM     22  O   UNL d   1     -50.324  13.814  21.776  0.00  0.00    -0.296 OA
ATOM     23  C   UNL d   1     -51.049  14.052  21.457  0.00  0.00     0.185 C 
ENDBRANCH  20  22
ENDBRANCH  17  20
ENDBRANCH  13  14
ENDBRANCH   1  13
TORSDOF 5
ENDMDL
MODEL 4
REMARK VINA RESULT:      -5.8      8.692     10.081
REMARK  5 active torsions:
REMARK  status: ('A' for Active; 'I' for Inactive)
REMARK    1  A    between atoms: C_3  and  C_1 
REMARK    2  A    between atoms: C_5  and  C_3 
REMARK    3  A    between atoms: C_13  and  C_5 
REMARK    4  A    between atoms: C_10  and  C_11 
REMARK    5  A    between atoms: O_16  and  C_10 
ROOT
ATOM      1  C   UNL d   1     -40.246  14.783  20.730  0.00  0.00     0.092 C 
ATOM      2  C   UNL d   1     -40.872  15.323  20.700  0.00  0.00     0.103 C 
ATOM      3  N   UNL d   1     -41.495  15.864  20.675  0.00  0.00    -0.191 NA
ENDROOT
BRANCH   1   4
ATOM      4  C   UNL d   1     -39.770  14.739  21.402  0.00  0.00     0.120 A 
ATOM      5  N   UNL d   1     -39.445  15.387  21.805  0.00  0.00    -0.238 NA
ATOM      6  C   UNL d   1     -39.008  15.090  22.445  0.00  0.00     0.088 A 
ATOM      7  C   UNL d   1     -38.569  15.471  23.030  0.00  0.00     0.020 A 
ATOM      8  C   UNL d   1     -39.065  14.267  22.432  0.00  0.00     0.049 A 
ATOM      9  C   UNL d   1     -38.185  15.020  23.607  0.00  0.00     0.002 A 
ATOM     10  C   UNL d   1     -38.238  14.196  23.600  0.00  0.00     0.001 A 
ATOM     11  C   UNL d   1     -38.676  13.816  23.016  0.00  0.00     0.008 A 
ATOM     12  S   UNL d   1     -39.536  14.052  21.787  0.00  0.00    -0.066 SA
ENDBRANCH   1   4
BRANCH   1  13
ATOM     13  C   UNL d   1     -40.104  14.293  20.083  0.00  0.00     0.012 C 
BRANCH  13  14
ATOM     14  C   UNL d   1     -40.007  14.613  19.334  0.00  0.00     0.001 A 
ATOM     15  C   UNL d   1     -39.349  15.066  19.159  0.00  0.00     0.000 A 
ATOM     16  C   UNL d   1     -39.248  15.390  18.407  0.00  0.00     0.005 A 
ATOM     17  C   UNL d   1     -39.815  15.257  17.822  0.00  0.00     0.063 A 
ATOM     18  C   UNL d   1     -40.481  14.802  17.989  0.00  0.00     0.005 A 
ATOM     19  C   UNL d   1     -40.583  14.477  18.746  0.00  0.00     0.000 A 
BRANCH  17  20
ATOM     20  C   UNL d   1     -39.715  15.581  17.070  0.00  0.00     0.296 C 
ATOM     21  O   UNL d   1     -40.362  15.922  16.677  0.00  0.00    -0.259 OA
BRANCH  20  22
ATOM     22  O   UNL d   1     -38.975  15.565  16.710  0.00  0.00    -0.296 OA
ATOM     23  C   UNL d   1     -38.875  15.894  15.957  0.00  0.00     0.185 C 
ENDBRANCH  20  22
ENDBRANCH  17  20
ENDBRANCH  13  14
ENDBRANCH   1  13
TORSDOF 5
ENDMDL
MODEL 5
REMARK VINA RESULT:      -5.8      9.311     10.527
REMARK  5 active torsions:
REMARK  status: ('A' for Active; 'I' for Inactive)
REMARK    1  A    between atoms: C_3  and  C_1 
REMARK    2  A    between atoms: C_5  and  C_3 
REMARK    3  A    between atoms: C_13  and  C_5 
REMARK    4  A    between atoms: C_10  and  C_11 
REMARK    5  A    between atoms: O_16  and  C_10 
ROOT
ATOM      1  C   UNL d   1     -40.059  15.044  19.483  0.00  0.00     0.092 C 
ATOM      2  C   UNL d   1     -40.561  14.431  19.246  0.00  0.00     0.103 C 
ATOM      3  N   UNL d   1     -41.062  13.817  19.014  0.00  0.00    -0.191 NA
ENDROOT
BRANCH   1   4
ATOM      4  C   UNL d   1     -39.790  15.080  20.262  0.00  0.00     0.120 A 
ATOM      5  N   UNL d   1     -39.380  14.477  20.659  0.00  0.00    -0.238 NA
ATOM      6  C   UNL d   1     -39.218  14.748  21.426  0.00  0.00     0.088 A 
ATOM      7  C   UNL d   1     -38.830  14.391  22.060  0.00  0.00     0.020 A 
ATOM      8  C   UNL d   1     -39.528  15.509  21.498  0.00  0.00     0.049 A 
ATOM      9  C   UNL d   1     -38.752  14.804  22.772  0.00  0.00     0.002 A 
ATOM     10  C   UNL d   1     -39.058  15.566  22.851  0.00  0.00     0.001 A 
ATOM     11  C   UNL d   1     -39.446  15.922  22.218  0.00  0.00     0.008 A 
ATOM     12  S   UNL d   1     -39.880  15.713  20.778  0.00  0.00    -0.066 SA
ENDBRANCH   1   4
BRANCH   1  13
ATOM     13  C   UNL d   1     -39.831  15.615  18.935  0.00  0.00     0.012 C 
BRANCH  13  14
ATOM     14  C   UNL d   1     -39.478  15.393  18.228  0.00  0.00     0.001 A 
ATOM     15  C   UNL d   1     -39.924  15.328  17.545  0.00  0.00     0.000 A 
ATOM     16  C   UNL d   1     -39.572  15.105  16.833  0.00  0.00     0.005 A 
ATOM     17  C   UNL d   1     -38.762  14.945  16.806  0.00  0.00     0.063 A 
ATOM     18  C   UNL d   1     -38.306  15.008  17.489  0.00  0.00     0.005 A 
ATOM     19  C   UNL d   1     -38.660  15.233  18.205  0.00  0.00     0.000 A 
BRANCH  17  20
ATOM     20  C   UNL d   1     -38.410  14.722  16.094  0.00  0.00     0.296 C 
ATOM     21  O   UNL d   1     -38.106  15.303  15.584  0.00  0.00    -0.259 OA
BRANCH  20  22
ATOM     22  O   UNL d   1     -38.361  13.927  15.889  0.00  0.00    -0.296 OA
ATOM     23  C   UNL d   1     -37.942  13.700  15.212  0.00  0.00     0.185 C 
ENDBRANCH  20  22
ENDBRANCH  17  20
ENDBRANCH  13  14
ENDBRANCH   1  13
TORSDOF 5
ENDMDL
