MODEL 1
REMARK VINA RESULT:      59.5      0.000      0.000
REMARK  4 active torsions:
REMARK  status: ('A' for Active; 'I' for Inactive)
REMARK    1  A    between atoms: S_3  and  N_1 
REMARK    2  A    between atoms: C_7  and  C_4 
REMARK    3  A    between atoms: C_8  and  C_5 
REMARK    4  A    between atoms: O_19  and  C_17 
ROOT
ATOM      1  N   UNL d   1     -56.061-102.373 -39.342  0.00  0.00    -0.155 N 
ATOM      2  N   UNL d   1     -56.058-102.456 -40.173  0.00  0.00    -0.155 NA
ATOM      3  C   UNL d   1     -55.357-102.140 -40.445  0.00  0.00     0.110 A 
ATOM      4  C   UNL d   1     -55.364-102.008 -39.099  0.00  0.00     0.096 A 
ATOM      5  C   UNL d   1     -54.906-101.854 -39.789  0.00  0.00     0.041 A 
ENDROOT
BRANCH   4   6
ATOM      6  C   UNL d   1     -55.146-101.824 -38.324  0.00  0.00     0.021 A 
ATOM      7  C   UNL d   1     -55.082-102.414 -37.763  0.00  0.00     0.026 A 
ATOM      8  C   UNL d   1     -54.865-102.230 -36.988  0.00  0.00     0.094 A 
ATOM      9  C   UNL d   1     -54.712-101.457 -36.776  0.00  0.00     0.024 A 
ATOM     10  C   UNL d   1     -54.776-100.858 -37.339  0.00  0.00     0.002 A 
ATOM     11  C   UNL d   1     -54.993-101.042 -38.113  0.00  0.00     0.002 A 
BRANCH   8  12
ATOM     12  O   UNL d   1     -54.801-102.834 -36.423  0.00  0.00    -0.328 OA
ATOM     13  C   UNL d   1     -54.928-102.670 -35.630  0.00  0.00     0.181 C 
ENDBRANCH   8  12
ENDBRANCH   4   6
BRANCH   1  14
ATOM     14  S   UNL d   1     -56.658-102.617 -38.858  0.00  0.00     0.266 S 
ATOM     15  O   UNL d   1     -56.101-102.874 -38.289  0.00  0.00    -0.203 OA
ATOM     16  O   UNL d   1     -57.229-102.378 -39.387  0.00  0.00    -0.203 OA
ATOM     17  C   UNL d   1     -57.270-102.879 -38.334  0.00  0.00     0.165 C 
ENDBRANCH   1  14
BRANCH   3  18
ATOM     18  C   UNL d   1     -55.100-102.094 -41.232  0.00  0.00     0.049 A 
ATOM     19  S   UNL d   1     -54.961-102.756 -41.693  0.00  0.00    -0.085 SA
ATOM     20  C   UNL d   1     -54.715-102.481 -42.433  0.00  0.00     0.035 A 
ATOM     21  C   UNL d   1     -54.711-101.638 -42.404  0.00  0.00     0.007 A 
ATOM     22  C   UNL d   1     -54.947-101.412 -41.666  0.00  0.00     0.009 A 
ENDBRANCH   3  18
TORSDOF 4
ENDMDL
