MODEL 1
REMARK VINA RESULT:      -4.5      0.000      0.000
REMARK  6 active torsions:
REMARK  status: ('A' for Active; 'I' for Inactive)
REMARK    1  A    between atoms: S_6  and  N_1 
REMARK    2  A    between atoms: C_2  and  C_4 
REMARK    3  A    between atoms: C_12  and  C_3 
REMARK    4  A    between atoms: C_17  and  N_8 
REMARK    5  A    between atoms: C_16  and  C_10 
REMARK    6  A    between atoms: O_27  and  C_24 
ROOT
ATOM      1  N   UNL d   1      51.114  34.368  52.302  0.00  0.00    -0.155 N 
ATOM      2  C   UNL d   1      51.121  34.061  53.069  0.00  0.00     0.099 A 
ATOM      3  N   UNL d   1      50.438  34.827  52.242  0.00  0.00    -0.156 NA
ATOM      4  C   UNL d   1      50.029  34.806  52.963  0.00  0.00     0.103 A 
ATOM      5  C   UNL d   1      50.474  34.322  53.462  0.00  0.00     0.041 A 
ENDROOT
BRANCH   2   6
ATOM      6  C   UNL d   1      51.748  33.547  53.348  0.00  0.00     0.058 A 
ATOM      7  C   UNL d   1      52.318  33.745  53.880  0.00  0.00     0.110 A 
ATOM      8  N   UNL d   1      52.787  33.051  53.958  0.00  0.00    -0.165 NA
ATOM      9  N   UNL d   1      52.479  32.457  53.468  0.00  0.00    -0.228 N 
ATOM     10  C   UNL d   1      51.826  32.768  53.083  0.00  0.00     0.103 A 
BRANCH   7  11
ATOM     11  C   UNL d   1      52.431  34.459  54.266  0.00  0.00     0.049 A 
ATOM     12  S   UNL d   1      52.339  35.085  54.457  0.00  0.00    -0.085 SA
ATOM     13  C   UNL d   1      52.954  35.246  55.004  0.00  0.00     0.035 A 
ATOM     14  C   UNL d   1      53.468  34.658  55.160  0.00  0.00     0.007 A 
ATOM     15  C   UNL d   1      53.179  34.107  54.703  0.00  0.00     0.009 A 
ENDBRANCH   7  11
BRANCH   9  16
ATOM     16  C   UNL d   1      52.784  31.698  53.391  0.00  0.00     0.083 A 
ATOM     17  C   UNL d   1      53.590  31.568  53.410  0.00  0.00     0.019 A 
ATOM     18  C   UNL d   1      53.808  30.820  53.331  0.00  0.00     0.002 A 
ATOM     19  C   UNL d   1      53.362  30.129  53.229  0.00  0.00     0.000 A 
ATOM     20  C   UNL d   1      52.541  30.301  53.214  0.00  0.00     0.002 A 
ATOM     21  C   UNL d   1      52.237  31.062  53.291  0.00  0.00     0.019 A 
ENDBRANCH   9  16
ENDBRANCH   2   6
BRANCH   1  22
ATOM     22  S   UNL d   1      51.666  34.252  51.697  0.00  0.00     0.266 S 
ATOM     23  O   UNL d   1      51.247  33.585  51.443  0.00  0.00    -0.203 OA
ATOM     24  O   UNL d   1      52.083  34.917  51.949  0.00  0.00    -0.203 OA
ATOM     25  C   UNL d   1      52.219  34.135  51.088  0.00  0.00     0.165 C 
ENDBRANCH   1  22
BRANCH   4  26
ATOM     26  C   UNL d   1      49.323  35.183  53.159  0.00  0.00     0.020 A 
ATOM     27  C   UNL d   1      49.200  35.541  53.893  0.00  0.00     0.004 A 
ATOM     28  C   UNL d   1      48.488  35.909  54.060  0.00  0.00     0.024 A 
ATOM     29  C   UNL d   1      47.891  35.919  53.488  0.00  0.00     0.094 A 
ATOM     30  C   UNL d   1      48.015  35.561  52.754  0.00  0.00     0.024 A 
ATOM     31  C   UNL d   1      48.704  35.211  52.607  0.00  0.00     0.004 A 
BRANCH  29  32
ATOM     32  O   UNL d   1      47.166  36.301  53.676  0.00  0.00    -0.328 OA
ATOM     33  C   UNL d   1      46.728  36.662  53.086  0.00  0.00     0.181 C 
ENDBRANCH  29  32
ENDBRANCH   4  26
TORSDOF 6
ENDMDL
MODEL 2
REMARK VINA RESULT:      -3.6      1.294      2.557
REMARK  6 active torsions:
REMARK  status: ('A' for Active; 'I' for Inactive)
REMARK    1  A    between atoms: S_6  and  N_1 
REMARK    2  A    between atoms: C_2  and  C_4 
REMARK    3  A    between atoms: C_12  and  C_3 
REMARK    4  A    between atoms: C_17  and  N_8 
REMARK    5  A    between atoms: C_16  and  C_10 
REMARK    6  A    between atoms: O_27  and  C_24 
ROOT
ATOM      1  N   UNL d   1      52.144  34.512  52.492  0.00  0.00    -0.155 N 
ATOM      2  C   UNL d   1      51.928  33.966  53.073  0.00  0.00     0.099 A 
ATOM      3  N   UNL d   1      51.447  34.795  52.168  0.00  0.00    -0.156 NA
ATOM      4  C   UNL d   1      50.804  34.429  52.543  0.00  0.00     0.103 A 
ATOM      5  C   UNL d   1      51.129  33.917  53.102  0.00  0.00     0.041 A 
ENDROOT
BRANCH   2   6
ATOM      6  C   UNL d   1      52.510  33.546  53.542  0.00  0.00     0.058 A 
ATOM      7  C   UNL d   1      52.592  32.747  53.585  0.00  0.00     0.110 A 
ATOM      8  N   UNL d   1      53.235  32.628  54.114  0.00  0.00    -0.165 NA
ATOM      9  N   UNL d   1      53.518  33.363  54.371  0.00  0.00    -0.228 N 
ATOM     10  C   UNL d   1      53.062  33.942  54.012  0.00  0.00     0.103 A 
BRANCH   7  11
ATOM     11  C   UNL d   1      52.155  32.166  53.205  0.00  0.00     0.049 A 
ATOM     12  S   UNL d   1      51.656  31.869  52.891  0.00  0.00    -0.085 SA
ATOM     13  C   UNL d   1      51.916  31.085  52.748  0.00  0.00     0.035 A 
ATOM     14  C   UNL d   1      52.645  30.889  53.002  0.00  0.00     0.007 A 
ATOM     15  C   UNL d   1      52.859  31.561  53.314  0.00  0.00     0.009 A 
ENDBRANCH   7  11
BRANCH   9  16
ATOM     16  C   UNL d   1      54.143  33.477  54.892  0.00  0.00     0.083 A 
ATOM     17  C   UNL d   1      54.016  33.493  55.698  0.00  0.00     0.019 A 
ATOM     18  C   UNL d   1      54.658  33.606  56.133  0.00  0.00     0.002 A 
ATOM     19  C   UNL d   1      55.451  33.714  55.919  0.00  0.00     0.000 A 
ATOM     20  C   UNL d   1      55.542  33.692  55.085  0.00  0.00     0.002 A 
ATOM     21  C   UNL d   1      54.915  33.577  54.564  0.00  0.00     0.019 A 
ENDBRANCH   9  16
ENDBRANCH   2   6
BRANCH   1  22
ATOM     22  S   UNL d   1      52.904  34.746  52.263  0.00  0.00     0.266 S 
ATOM     23  O   UNL d   1      52.894  34.184  51.656  0.00  0.00    -0.203 OA
ATOM     24  O   UNL d   1      52.914  35.305  52.869  0.00  0.00    -0.203 OA
ATOM     25  C   UNL d   1      53.667  34.980  52.033  0.00  0.00     0.165 C 
ENDBRANCH   1  22
BRANCH   4  26
ATOM     26  C   UNL d   1      50.000  34.540  52.399  0.00  0.00     0.020 A 
ATOM     27  C   UNL d   1      49.493  34.880  52.955  0.00  0.00     0.004 A 
ATOM     28  C   UNL d   1      48.698  34.979  52.784  0.00  0.00     0.024 A 
ATOM     29  C   UNL d   1      48.406  34.735  52.051  0.00  0.00     0.094 A 
ATOM     30  C   UNL d   1      48.914  34.394  51.496  0.00  0.00     0.024 A 
ATOM     31  C   UNL d   1      49.675  34.306  51.672  0.00  0.00     0.004 A 
BRANCH  29  32
ATOM     32  O   UNL d   1      47.587  34.843  51.893  0.00  0.00    -0.328 OA
ATOM     33  C   UNL d   1      47.309  35.577  51.658  0.00  0.00     0.181 C 
ENDBRANCH  29  32
ENDBRANCH   4  26
TORSDOF 6
ENDMDL
MODEL 3
REMARK VINA RESULT:      -2.9      1.182      4.845
REMARK  6 active torsions:
REMARK  status: ('A' for Active; 'I' for Inactive)
REMARK    1  A    between atoms: S_6  and  N_1 
REMARK    2  A    between atoms: C_2  and  C_4 
REMARK    3  A    between atoms: C_12  and  C_3 
REMARK    4  A    between atoms: C_17  and  N_8 
REMARK    5  A    between atoms: C_16  and  C_10 
REMARK    6  A    between atoms: O_27  and  C_24 
ROOT
ATOM      1  N   UNL d   1      51.870  33.413  52.255  0.00  0.00    -0.155 N 
ATOM      2  C   UNL d   1      51.640  33.492  53.045  0.00  0.00     0.099 A 
ATOM      3  N   UNL d   1      52.294  32.713  52.205  0.00  0.00    -0.156 NA
ATOM      4  C   UNL d   1      52.327  32.360  52.956  0.00  0.00     0.103 A 
ATOM      5  C   UNL d   1      51.912  32.865  53.461  0.00  0.00     0.041 A 
ENDROOT
BRANCH   2   6
ATOM      6  C   UNL d   1      51.181  34.161  53.320  0.00  0.00     0.058 A 
ATOM      7  C   UNL d   1      51.436  34.730  53.828  0.00  0.00     0.110 A 
ATOM      8  N   UNL d   1      50.780  35.249  53.913  0.00  0.00    -0.165 NA
ATOM      9  N   UNL d   1      50.150  34.973  53.450  0.00  0.00    -0.228 N 
ATOM     10  C   UNL d   1      50.402  34.288  53.076  0.00  0.00     0.103 A 
BRANCH   7  11
ATOM     11  C   UNL d   1      52.168  34.801  54.190  0.00  0.00     0.049 A 
ATOM     12  S   UNL d   1      52.767  34.643  54.420  0.00  0.00    -0.085 SA
ATOM     13  C   UNL d   1      53.066  35.342  54.772  0.00  0.00     0.035 A 
ATOM     14  C   UNL d   1      52.601  35.989  54.753  0.00  0.00     0.007 A 
ATOM     15  C   UNL d   1      51.990  35.699  54.380  0.00  0.00     0.009 A 
ENDBRANCH   7  11
BRANCH   9  16
ATOM     16  C   UNL d   1      49.413  35.329  53.387  0.00  0.00     0.083 A 
ATOM     17  C   UNL d   1      49.076  35.706  54.027  0.00  0.00     0.019 A 
ATOM     18  C   UNL d   1      48.372  36.024  53.894  0.00  0.00     0.002 A 
ATOM     19  C   UNL d   1      47.904  36.045  53.210  0.00  0.00     0.000 A 
ATOM     20  C   UNL d   1      48.282  35.649  52.575  0.00  0.00     0.002 A 
ATOM     21  C   UNL d   1      49.021  35.292  52.640  0.00  0.00     0.019 A 
ENDBRANCH   9  16
ENDBRANCH   2   6
BRANCH   1  22
ATOM     22  S   UNL d   1      51.717  33.922  51.621  0.00  0.00     0.266 S 
ATOM     23  O   UNL d   1      52.452  34.285  51.735  0.00  0.00    -0.203 OA
ATOM     24  O   UNL d   1      50.985  33.560  51.507  0.00  0.00    -0.203 OA
ATOM     25  C   UNL d   1      51.565  34.433  50.985  0.00  0.00     0.165 C 
ENDBRANCH   1  22
BRANCH   4  26
ATOM     26  C   UNL d   1      52.693  31.655  53.171  0.00  0.00     0.020 A 
ATOM     27  C   UNL d   1      53.460  31.627  53.476  0.00  0.00     0.004 A 
ATOM     28  C   UNL d   1      53.798  30.910  53.681  0.00  0.00     0.024 A 
ATOM     29  C   UNL d   1      53.367  30.213  53.581  0.00  0.00     0.094 A 
ATOM     30  C   UNL d   1      52.600  30.241  53.275  0.00  0.00     0.024 A 
ATOM     31  C   UNL d   1      52.286  30.936  53.082  0.00  0.00     0.004 A 
BRANCH  29  32
ATOM     32  O   UNL d   1      53.729  29.485  53.796  0.00  0.00    -0.328 OA
ATOM     33  C   UNL d   1      53.420  29.040  54.411  0.00  0.00     0.181 C 
ENDBRANCH  29  32
ENDBRANCH   4  26
TORSDOF 6
ENDMDL
MODEL 4
REMARK VINA RESULT:      -1.7      1.872      2.703
REMARK  6 active torsions:
REMARK  status: ('A' for Active; 'I' for Inactive)
REMARK    1  A    between atoms: S_6  and  N_1 
REMARK    2  A    between atoms: C_2  and  C_4 
REMARK    3  A    between atoms: C_12  and  C_3 
REMARK    4  A    between atoms: C_17  and  N_8 
REMARK    5  A    between atoms: C_16  and  C_10 
REMARK    6  A    between atoms: O_27  and  C_24 
ROOT
ATOM      1  N   UNL d   1      52.431  31.883  52.706  0.00  0.00    -0.155 N 
ATOM      2  C   UNL d   1      52.457  32.047  53.515  0.00  0.00     0.099 A 
ATOM      3  N   UNL d   1      51.934  32.443  52.371  0.00  0.00    -0.156 NA
ATOM      4  C   UNL d   1      51.654  32.949  52.965  0.00  0.00     0.103 A 
ATOM      5  C   UNL d   1      51.993  32.683  53.669  0.00  0.00     0.041 A 
ENDROOT
BRANCH   2   6
ATOM      6  C   UNL d   1      52.923  31.579  54.060  0.00  0.00     0.058 A 
ATOM      7  C   UNL d   1      53.544  31.843  54.497  0.00  0.00     0.110 A 
ATOM      8  N   UNL d   1      53.800  31.169  54.931  0.00  0.00    -0.165 NA
ATOM      9  N   UNL d   1      53.321  30.521  54.739  0.00  0.00    -0.228 N 
ATOM     10  C   UNL d   1      52.768  30.777  54.191  0.00  0.00     0.103 A 
BRANCH   7  11
ATOM     11  C   UNL d   1      53.867  32.596  54.523  0.00  0.00     0.049 A 
ATOM     12  S   UNL d   1      54.045  33.203  54.335  0.00  0.00    -0.085 SA
ATOM     13  C   UNL d   1      54.442  33.536  54.994  0.00  0.00     0.035 A 
ATOM     14  C   UNL d   1      54.511  33.084  55.646  0.00  0.00     0.007 A 
ATOM     15  C   UNL d   1      54.150  32.446  55.401  0.00  0.00     0.009 A 
ENDBRANCH   7  11
BRANCH   9  16
ATOM     16  C   UNL d   1      53.397  29.764  55.050  0.00  0.00     0.083 A 
ATOM     17  C   UNL d   1      53.234  29.618  55.835  0.00  0.00     0.019 A 
ATOM     18  C   UNL d   1      53.328  28.873  56.061  0.00  0.00     0.002 A 
ATOM     19  C   UNL d   1      53.567  28.201  55.640  0.00  0.00     0.000 A 
ATOM     20  C   UNL d   1      53.725  28.390  54.838  0.00  0.00     0.002 A 
ATOM     21  C   UNL d   1      53.649  29.149  54.529  0.00  0.00     0.019 A 
ENDBRANCH   9  16
ENDBRANCH   2   6
BRANCH   1  22
ATOM     22  S   UNL d   1      52.818  31.282  52.290  0.00  0.00     0.266 S 
ATOM     23  O   UNL d   1      52.172  30.780  52.415  0.00  0.00    -0.203 OA
ATOM     24  O   UNL d   1      53.462  31.782  52.167  0.00  0.00    -0.203 OA
ATOM     25  C   UNL d   1      53.206  30.678  51.874  0.00  0.00     0.165 C 
ENDBRANCH   1  22
BRANCH   4  26
ATOM     26  C   UNL d   1      51.143  33.590  52.888  0.00  0.00     0.020 A 
ATOM     27  C   UNL d   1      51.245  34.174  52.312  0.00  0.00     0.004 A 
ATOM     28  C   UNL d   1      50.721  34.800  52.259  0.00  0.00     0.024 A 
ATOM     29  C   UNL d   1      50.086  34.845  52.786  0.00  0.00     0.094 A 
ATOM     30  C   UNL d   1      49.984  34.262  53.362  0.00  0.00     0.024 A 
ATOM     31  C   UNL d   1      50.495  33.665  53.402  0.00  0.00     0.004 A 
BRANCH  29  32
ATOM     32  O   UNL d   1      49.557  35.495  52.717  0.00  0.00    -0.328 OA
ATOM     33  C   UNL d   1      48.835  35.478  53.104  0.00  0.00     0.181 C 
ENDBRANCH  29  32
ENDBRANCH   4  26
TORSDOF 6
ENDMDL
MODEL 5
REMARK VINA RESULT:      -1.7      2.561      5.537
REMARK  6 active torsions:
REMARK  status: ('A' for Active; 'I' for Inactive)
REMARK    1  A    between atoms: S_6  and  N_1 
REMARK    2  A    between atoms: C_2  and  C_4 
REMARK    3  A    between atoms: C_12  and  C_3 
REMARK    4  A    between atoms: C_17  and  N_8 
REMARK    5  A    between atoms: C_16  and  C_10 
REMARK    6  A    between atoms: O_27  and  C_24 
ROOT
ATOM      1  N   UNL d   1      54.136  32.225  53.615  0.00  0.00    -0.155 N 
ATOM      2  C   UNL d   1      53.379  32.365  53.914  0.00  0.00     0.099 A 
ATOM      3  N   UNL d   1      54.256  31.415  53.654  0.00  0.00    -0.156 NA
ATOM      4  C   UNL d   1      53.581  31.054  53.974  0.00  0.00     0.103 A 
ATOM      5  C   UNL d   1      53.048  31.667  54.128  0.00  0.00     0.041 A 
ENDROOT
BRANCH   2   6
ATOM      6  C   UNL d   1      53.048  33.153  53.964  0.00  0.00     0.058 A 
ATOM      7  C   UNL d   1      52.362  33.399  53.623  0.00  0.00     0.110 A 
ATOM      8  N   UNL d   1      52.295  34.209  53.841  0.00  0.00    -0.165 NA
ATOM      9  N   UNL d   1      52.947  34.422  54.308  0.00  0.00    -0.228 N 
ATOM     10  C   UNL d   1      53.421  33.758  54.385  0.00  0.00     0.103 A 
BRANCH   7  11
ATOM     11  C   UNL d   1      51.837  32.970  53.164  0.00  0.00     0.049 A 
ATOM     12  S   UNL d   1      51.569  32.466  52.831  0.00  0.00    -0.085 SA
ATOM     13  C   UNL d   1      50.852  32.762  52.512  0.00  0.00     0.035 A 
ATOM     14  C   UNL d   1      50.669  33.521  52.668  0.00  0.00     0.007 A 
ATOM     15  C   UNL d   1      51.280  33.717  53.097  0.00  0.00     0.009 A 
ENDBRANCH   7  11
BRANCH   9  16
ATOM     16  C   UNL d   1      53.080  35.167  54.627  0.00  0.00     0.083 A 
ATOM     17  C   UNL d   1      53.086  35.278  55.436  0.00  0.00     0.019 A 
ATOM     18  C   UNL d   1      53.220  36.014  55.668  0.00  0.00     0.002 A 
ATOM     19  C   UNL d   1      53.357  36.708  55.236  0.00  0.00     0.000 A 
ATOM     20  C   UNL d   1      53.343  36.554  54.411  0.00  0.00     0.002 A 
ATOM     21  C   UNL d   1      53.209  35.807  54.092  0.00  0.00     0.019 A 
ENDBRANCH   9  16
ENDBRANCH   2   6
BRANCH   1  22
ATOM     22  S   UNL d   1      54.685  32.773  53.327  0.00  0.00     0.266 S 
ATOM     23  O   UNL d   1      54.997  32.861  54.088  0.00  0.00    -0.203 OA
ATOM     24  O   UNL d   1      54.375  32.685  52.568  0.00  0.00    -0.203 OA
ATOM     25  C   UNL d   1      55.236  33.323  53.039  0.00  0.00     0.165 C 
ENDBRANCH   1  22
BRANCH   4  26
ATOM     26  C   UNL d   1      53.450  30.254  54.117  0.00  0.00     0.020 A 
ATOM     27  C   UNL d   1      53.284  29.716  53.512  0.00  0.00     0.004 A 
ATOM     28  C   UNL d   1      53.158  28.926  53.684  0.00  0.00     0.024 A 
ATOM     29  C   UNL d   1      53.199  28.668  54.468  0.00  0.00     0.094 A 
ATOM     30  C   UNL d   1      53.365  29.206  55.072  0.00  0.00     0.024 A 
ATOM     31  C   UNL d   1      53.483  29.963  54.894  0.00  0.00     0.004 A 
BRANCH  29  32
ATOM     32  O   UNL d   1      53.067  27.853  54.627  0.00  0.00    -0.328 OA
ATOM     33  C   UNL d   1      53.309  27.530  55.340  0.00  0.00     0.181 C 
ENDBRANCH  29  32
ENDBRANCH   4  26
TORSDOF 6
ENDMDL
