MODEL 1
REMARK VINA RESULT:     120.6      0.000      0.000
REMARK  5 active torsions:
REMARK  status: ('A' for Active; 'I' for Inactive)
REMARK    1  A    between atoms: N_8  and  S_1 
REMARK    2  A    between atoms: C_11  and  S_1 
REMARK    3  A    between atoms: S_2  and  C_10 
REMARK    4  A    between atoms: N_9  and  S_2 
REMARK    5  A    between atoms: N_20  and  C_5 
ROOT
ATOM      1  C   UNL d   1      14.671  16.152  -3.259  0.00  0.00     0.021 A 
ATOM      2  C   UNL d   1      14.711  17.295  -3.937  0.00  0.00     0.021 A 
ATOM      3  C   UNL d   1      14.843  16.968  -3.193  0.00  0.00     0.111 A 
ATOM      4  C   UNL d   1      14.464  16.689  -4.440  0.00  0.00     0.002 A 
ATOM      5  C   UNL d   1      14.445  15.990  -4.002  0.00  0.00     0.002 A 
ATOM      6  C   UNL d   1      14.611  18.244  -5.006  0.00  0.00     0.104 A 
ATOM      7  C   UNL d   1      14.508  14.781  -2.885  0.00  0.00     0.104 A 
ATOM      8  C   UNL d   1      14.782  18.061  -4.220  0.00  0.00     0.015 A 
ATOM      9  C   UNL d   1      14.708  15.554  -2.684  0.00  0.00     0.015 A 
ATOM     10  C   UNL d   1      14.245  15.216  -4.204  0.00  0.00     0.001 A 
ATOM     11  C   UNL d   1      14.288  16.856  -5.232  0.00  0.00     0.001 A 
ATOM     12  C   UNL d   1      14.285  14.632  -3.626  0.00  0.00     0.013 A 
ATOM     13  C   UNL d   1      14.363  17.613  -5.494  0.00  0.00     0.013 A 
ENDROOT
BRANCH   6  14
ATOM     14  S   UNL d   1      14.683  19.030  -5.302  0.00  0.00     0.271 S 
ATOM     15  O   UNL d   1      14.113  18.854  -5.906  0.00  0.00    -0.200 OA
ATOM     16  O   UNL d   1      15.247  19.169  -4.689  0.00  0.00    -0.200 OA
BRANCH  14  17
ATOM     17  N   UNL d   1      14.769  19.798  -5.574  0.00  0.00    -0.229 N 
ATOM     18  C   UNL d   1      14.198  20.120  -6.062  0.00  0.00     0.092 A 
ATOM     19  C   UNL d   1      14.296  20.887  -6.325  0.00  0.00     0.020 A 
ATOM     20  C   UNL d   1      14.947  21.335  -6.113  0.00  0.00     0.003 A 
ATOM     21  C   UNL d   1      15.531  21.008  -5.615  0.00  0.00     0.020 A 
ATOM     22  C   UNL d   1      15.036  22.117  -6.389  0.00  0.00     0.000 C 
ATOM     23  C   UNL d   1      15.437  20.229  -5.344  0.00  0.00     0.092 A 
ENDBRANCH  14  17
ENDBRANCH   6  14
BRANCH   3  24
ATOM     24  N   UNL d   1      15.096  17.355  -2.510  0.00  0.00    -0.096 NA
ATOM     25  O   UNL d   1      14.646  17.244  -1.813  0.00  0.00    -0.061 OA
ENDBRANCH   3  24
BRANCH   7  26
ATOM     26  S   UNL d   1      14.535  14.159  -2.332  0.00  0.00     0.271 S 
ATOM     27  O   UNL d   1      14.691  14.715  -1.719  0.00  0.00    -0.200 OA
ATOM     28  O   UNL d   1      14.379  13.627  -2.951  0.00  0.00    -0.200 OA
BRANCH  26  29
ATOM     29  N   UNL d   1      14.564  13.540  -1.764  0.00  0.00    -0.229 N 
ATOM     30  C   UNL d   1      14.956  13.687  -1.057  0.00  0.00     0.092 A 
ATOM     31  C   UNL d   1      15.000  13.108  -0.492  0.00  0.00     0.020 A 
ATOM     32  C   UNL d   1      14.657  12.366  -0.609  0.00  0.00     0.003 A 
ATOM     33  C   UNL d   1      14.256  12.215  -1.330  0.00  0.00     0.020 A 
ATOM     34  C   UNL d   1      14.711  11.779  -0.014  0.00  0.00     0.000 C 
ATOM     35  C   UNL d   1      14.213  12.807  -1.904  0.00  0.00     0.092 A 
ENDBRANCH  26  29
ENDBRANCH   7  26
TORSDOF 5
ENDMDL
