MODEL 1
REMARK VINA RESULT:      23.6      0.000      0.000
REMARK  5 active torsions:
REMARK  status: ('A' for Active; 'I' for Inactive)
REMARK    1  A    between atoms: N_7  and  C_1 
REMARK    2  A    between atoms: O_17  and  C_5 
REMARK    3  A    between atoms: C_10  and  N_7 
REMARK    4  A    between atoms: O_18  and  C_8 
REMARK    5  A    between atoms: O_19  and  C_9 
ROOT
ATOM      1  C   UNL d   1      13.161  13.528  -4.198  0.00  0.00     0.139 A 
ATOM      2  C   UNL d   1      13.193  12.741  -4.442  0.00  0.00     0.120 A 
ATOM      3  C   UNL d   1      13.413  13.731  -3.426  0.00  0.00     0.120 A 
ATOM      4  C   UNL d   1      13.718  12.367  -3.169  0.00  0.00     0.087 A 
ATOM      5  C   UNL d   1      13.691  13.147  -2.914  0.00  0.00     0.045 A 
ATOM      6  C   UNL d   1      13.474  12.146  -3.926  0.00  0.00     0.045 A 
ENDROOT
BRANCH   4   7
ATOM      7  N   UNL d   1      13.999  11.781  -2.650  0.00  0.00    -0.226 NA
BRANCH   7   8
ATOM      8  C   UNL d   1      13.814  11.818  -1.851  0.00  0.00     0.169 A 
ATOM      9  C   UNL d   1      14.375  11.826  -1.310  0.00  0.00     0.094 A 
ATOM     10  C   UNL d   1      14.198  11.860  -0.544  0.00  0.00     0.190 A 
ATOM     11  C   UNL d   1      15.703  11.806  -0.998  0.00  0.00     0.128 A 
ATOM     12  N   UNL d   1      14.771  11.868  -0.014  0.00  0.00    -0.128 NA
ATOM     13  N   UNL d   1      13.459  11.887  -0.319  0.00  0.00    -0.203 NA
ATOM     14  N   UNL d   1      15.512  11.841  -0.230  0.00  0.00    -0.145 NA
ATOM     15  C   UNL d   1      12.870  11.880  -0.853  0.00  0.00     0.202 A 
ATOM     16  N   UNL d   1      13.047  11.845  -1.619  0.00  0.00    -0.205 NA
ENDBRANCH   7   8
ENDBRANCH   4   7
BRANCH   3  17
ATOM     17  O   UNL d   1      13.382  14.525  -3.175  0.00  0.00    -0.326 OA
ATOM     18  C   UNL d   1      14.075  14.900  -2.907  0.00  0.00     0.181 C 
ENDBRANCH   3  17
BRANCH   2  19
ATOM     19  O   UNL d   1      12.944  12.532  -5.208  0.00  0.00    -0.326 OA
ATOM     20  C   UNL d   1      13.189  11.809  -5.543  0.00  0.00     0.181 C 
ENDBRANCH   2  19
BRANCH   1  21
ATOM     21  O   UNL d   1      12.883  14.120  -4.706  0.00  0.00    -0.324 OA
ATOM     22  C   UNL d   1      13.399  14.738  -4.939  0.00  0.00     0.182 C 
ENDBRANCH   1  21
TORSDOF 5
ENDMDL
MODEL 2
REMARK VINA RESULT:      25.2      0.379      1.669
REMARK  5 active torsions:
REMARK  status: ('A' for Active; 'I' for Inactive)
REMARK    1  A    between atoms: N_7  and  C_1 
REMARK    2  A    between atoms: O_17  and  C_5 
REMARK    3  A    between atoms: C_10  and  N_7 
REMARK    4  A    between atoms: O_18  and  C_8 
REMARK    5  A    between atoms: O_19  and  C_9 
ROOT
ATOM      1  C   UNL d   1      13.094  13.497  -4.028  0.00  0.00     0.139 A 
ATOM      2  C   UNL d   1      13.349  13.724  -3.277  0.00  0.00     0.120 A 
ATOM      3  C   UNL d   1      13.079  12.685  -4.231  0.00  0.00     0.120 A 
ATOM      4  C   UNL d   1      13.570  12.355  -2.939  0.00  0.00     0.087 A 
ATOM      5  C   UNL d   1      13.318  12.117  -3.683  0.00  0.00     0.045 A 
ATOM      6  C   UNL d   1      13.592  13.150  -2.719  0.00  0.00     0.045 A 
ENDROOT
BRANCH   4   7
ATOM      7  N   UNL d   1      13.810  11.779  -2.389  0.00  0.00    -0.226 NA
BRANCH   7   8
ATOM      8  C   UNL d   1      13.761  11.934  -1.584  0.00  0.00     0.169 A 
ATOM      9  C   UNL d   1      14.392  12.149  -1.179  0.00  0.00     0.094 A 
ATOM     10  C   UNL d   1      14.345  12.297  -0.408  0.00  0.00     0.190 A 
ATOM     11  C   UNL d   1      15.725  12.435  -1.149  0.00  0.00     0.128 A 
ATOM     12  N   UNL d   1      14.985  12.512  -0.015  0.00  0.00    -0.128 NA
ATOM     13  N   UNL d   1      13.668  12.230  -0.041  0.00  0.00    -0.203 NA
ATOM     14  N   UNL d   1      15.665  12.582  -0.373  0.00  0.00    -0.145 NA
ATOM     15  C   UNL d   1      13.011  12.012  -0.434  0.00  0.00     0.202 A 
ATOM     16  N   UNL d   1      13.058  11.863  -1.205  0.00  0.00    -0.205 NA
ENDBRANCH   7   8
ENDBRANCH   4   7
BRANCH   3  17
ATOM     17  O   UNL d   1      12.822  12.451  -4.989  0.00  0.00    -0.326 OA
ATOM     18  C   UNL d   1      13.157  11.780  -5.349  0.00  0.00     0.181 C 
ENDBRANCH   3  17
BRANCH   2  19
ATOM     19  O   UNL d   1      13.366  14.529  -3.069  0.00  0.00    -0.326 OA
ATOM     20  C   UNL d   1      14.092  14.940  -3.053  0.00  0.00     0.181 C 
ENDBRANCH   2  19
BRANCH   1  21
ATOM     21  O   UNL d   1      12.853  14.062  -4.584  0.00  0.00    -0.324 OA
ATOM     22  C   UNL d   1      13.375  14.684  -4.791  0.00  0.00     0.182 C 
ENDBRANCH   1  21
TORSDOF 5
ENDMDL
