MODEL 1
REMARK VINA RESULT:     158.8      0.000      0.000
REMARK  7 active torsions:
REMARK  status: ('A' for Active; 'I' for Inactive)
REMARK    1  A    between atoms: S_2  and  N_1 
REMARK    2  A    between atoms: C_3  and  N_1 
REMARK       I    between atoms: C_4  and  N_1 
REMARK    3  A    between atoms: C_10  and  S_2 
REMARK    4  A    between atoms: C_15  and  C_4 
REMARK    5  A    between atoms: C_6  and  O_8 
REMARK    6  A    between atoms: C_18  and  C_6 
REMARK    7  A    between atoms: O_8  and  C_7 
ROOT
ATOM      1  C   UNL d   1     -55.931-101.302 -42.563  0.00  0.00     0.078 A 
ATOM      2  C   UNL d   1     -55.529-101.018 -41.907  0.00  0.00     0.019 A 
ATOM      3  C   UNL d   1     -55.597-102.252 -41.258  0.00  0.00     0.103 A 
ATOM      4  C   UNL d   1     -55.364-101.479 -41.267  0.00  0.00     0.024 A 
ATOM      5  C   UNL d   1     -56.167-102.080 -42.560  0.00  0.00     0.020 A 
ATOM      6  C   UNL d   1     -56.001-102.548 -41.913  0.00  0.00     0.026 A 
ATOM      7  C   UNL d   1     -55.294-100.227 -41.922  0.00  0.00     0.002 A 
ATOM      8  C   UNL d   1     -54.958-101.190 -40.606  0.00  0.00     0.002 A 
ATOM      9  C   UNL d   1     -54.892 -99.942 -41.267  0.00  0.00     0.000 A 
ATOM     10  C   UNL d   1     -54.727-100.405 -40.625  0.00  0.00     0.000 A 
ENDROOT
BRANCH   1  11
ATOM     11  N   UNL d   1     -56.100-100.808 -43.232  0.00  0.00    -0.198 N 
ATOM     12  C   UNL d   1     -55.510-100.712 -43.828  0.00  0.00     0.274 C 
ATOM     13  O   UNL d   1     -54.790-101.093 -43.755  0.00  0.00    -0.266 OA
BRANCH  11  14
ATOM     14  S   UNL d   1     -56.826-100.416 -43.319  0.00  0.00     0.274 S 
ATOM     15  O   UNL d   1     -56.540 -99.757 -42.841  0.00  0.00    -0.200 OA
ATOM     16  O   UNL d   1     -57.095-101.049 -43.774  0.00  0.00    -0.200 OA
BRANCH  14  17
ATOM     17  C   UNL d   1     -57.586-100.032 -43.422  0.00  0.00     0.104 A 
ATOM     18  C   UNL d   1     -57.778 -99.723 -44.115  0.00  0.00     0.013 A 
ATOM     19  C   UNL d   1     -58.522 -99.336 -44.250  0.00  0.00     0.001 A 
ATOM     20  C   UNL d   1     -59.053 -99.287 -43.633  0.00  0.00     0.000 A 
ATOM     21  C   UNL d   1     -58.858 -99.625 -42.852  0.00  0.00     0.001 A 
ATOM     22  C   UNL d   1     -59.777 -98.897 -43.805  0.00  0.00     0.000 C 
ATOM     23  C   UNL d   1     -58.094-100.009 -42.756  0.00  0.00     0.013 A 
ENDBRANCH  14  17
ENDBRANCH  11  14
BRANCH  12  24
ATOM     24  C   UNL d   1     -55.680-100.236 -44.468  0.00  0.00     0.060 A 
ATOM     25  C   UNL d   1     -56.356 -99.733 -44.424  0.00  0.00     0.025 A 
ATOM     26  C   UNL d   1     -56.552 -99.250 -45.040  0.00  0.00     0.099 A 
ATOM     27  N   UNL d   1     -56.100 -99.237 -45.718  0.00  0.00    -0.242 NA
ATOM     28  C   UNL d   1     -55.430 -99.729 -45.773  0.00  0.00     0.099 A 
ATOM     29  C   UNL d   1     -55.226-100.210 -45.173  0.00  0.00     0.025 A 
ENDBRANCH  12  24
ENDBRANCH   1  11
BRANCH   3  30
ATOM     30  O   UNL d   1     -55.427-102.747 -40.588  0.00  0.00    -0.273 OA
BRANCH  30  31
ATOM     31  C   UNL d   1     -55.525-102.523 -39.788  0.00  0.00     0.300 C 
ATOM     32  O   UNL d   1     -54.934-102.229 -39.339  0.00  0.00    -0.259 OA
BRANCH  31  33
ATOM     33  C   UNL d   1     -56.270-102.612 -39.454  0.00  0.00     0.067 A 
ATOM     34  C   UNL d   1     -56.956-102.717 -39.916  0.00  0.00     0.026 A 
ATOM     35  C   UNL d   1     -57.713-102.807 -39.531  0.00  0.00     0.099 A 
ATOM     36  N   UNL d   1     -57.768-102.790 -38.743  0.00  0.00    -0.242 NA
ATOM     37  C   UNL d   1     -57.128-102.690 -38.264  0.00  0.00     0.099 A 
ATOM     38  C   UNL d   1     -56.384-102.602 -38.637  0.00  0.00     0.026 A 
ENDBRANCH  31  33
ENDBRANCH  30  31
ENDBRANCH   3  30
TORSDOF 7
ENDMDL
