MODEL 1
REMARK VINA RESULT:      -1.8      0.000      0.000
REMARK  4 active torsions:
REMARK  status: ('A' for Active; 'I' for Inactive)
REMARK       I    between atoms: C_2  and  N_1 
REMARK       I    between atoms: N_8  and  C_2 
REMARK    1  A    between atoms: C_14  and  N_8 
REMARK    2  A    between atoms: C_15  and  N_8 
REMARK    3  A    between atoms: C_17  and  C_14 
REMARK    4  A    between atoms: C_16  and  C_15 
ROOT
ATOM      1  N   UNL d   1      33.099  20.544 -22.927  0.00  0.00    -0.259 N 
ATOM      2  C   UNL d   1      33.029  20.971 -22.225  0.00  0.00     0.339 C 
ATOM      3  S   UNL d   1      33.239  19.691 -24.340  0.00  0.00    -0.084 SA
ATOM      4  C   UNL d   1      33.134  19.721 -22.915  0.00  0.00     0.074 A 
ATOM      5  C   UNL d   1      33.134  20.948 -23.651  0.00  0.00     0.074 A 
ATOM      6  C   UNL d   1      33.204  19.287 -23.613  0.00  0.00     0.046 A 
ATOM      7  C   UNL d   1      33.204  20.514 -24.354  0.00  0.00     0.046 A 
ATOM      8  N   UNL d   1      32.994  21.795 -22.237  0.00  0.00    -0.258 N 
ATOM      9  O   UNL d   1      32.994  20.571 -21.499  0.00  0.00    -0.245 OA
ATOM     10  C   UNL d   1      33.099  19.318 -22.189  0.00  0.00     0.018 A 
ATOM     11  C   UNL d   1      33.100  21.763 -23.672  0.00  0.00     0.018 A 
ATOM     12  C   UNL d   1      33.239  20.910 -25.077  0.00  0.00     0.008 A 
ATOM     13  C   UNL d   1      33.239  18.468 -23.611  0.00  0.00     0.008 A 
ATOM     14  C   UNL d   1      33.135  22.165 -24.397  0.00  0.00     0.002 A 
ATOM     15  C   UNL d   1      33.134  18.499 -22.185  0.00  0.00     0.002 A 
ATOM     16  C   UNL d   1      33.203  18.074 -22.878  0.00  0.00     0.001 A 
ATOM     17  C   UNL d   1      33.204  21.734 -25.090  0.00  0.00     0.001 A 
ENDROOT
BRANCH   8  18
ATOM     18  C   UNL d   1      33.029  22.198 -22.964  0.00  0.00     0.085 C 
BRANCH  18  19
ATOM     19  C   UNL d   1      33.240  22.983 -22.968  0.00  0.00     0.019 C 
ATOM     20  C   UNL d   1      32.662  23.546 -23.144  0.00  0.00     0.002 C 
ENDBRANCH  18  19
ENDBRANCH   8  18
BRANCH   8  21
ATOM     21  C   UNL d   1      32.924  22.215 -21.532  0.00  0.00     0.085 C 
BRANCH  21  22
ATOM     22  C   UNL d   1      32.512  21.887 -20.889  0.00  0.00     0.019 C 
ATOM     23  C   UNL d   1      32.464  22.286 -20.181  0.00  0.00     0.002 C 
ENDBRANCH  21  22
ENDBRANCH   8  21
TORSDOF 4
ENDMDL
MODEL 2
REMARK VINA RESULT:      -1.8      3.469      5.334
REMARK  4 active torsions:
REMARK  status: ('A' for Active; 'I' for Inactive)
REMARK       I    between atoms: C_2  and  N_1 
REMARK       I    between atoms: N_8  and  C_2 
REMARK    1  A    between atoms: C_14  and  N_8 
REMARK    2  A    between atoms: C_15  and  N_8 
REMARK    3  A    between atoms: C_17  and  C_14 
REMARK    4  A    between atoms: C_16  and  C_15 
ROOT
ATOM      1  N   UNL d   1      30.637  17.229 -24.290  0.00  0.00    -0.259 N 
ATOM      2  C   UNL d   1      31.067  17.815 -24.679  0.00  0.00     0.339 C 
ATOM      3  S   UNL d   1      29.777  16.049 -23.506  0.00  0.00    -0.084 SA
ATOM      4  C   UNL d   1      29.813  17.229 -24.311  0.00  0.00     0.074 A 
ATOM      5  C   UNL d   1      31.038  16.634 -23.873  0.00  0.00     0.074 A 
ATOM      6  C   UNL d   1      29.376  16.647 -23.924  0.00  0.00     0.046 A 
ATOM      7  C   UNL d   1      30.601  16.048 -23.483  0.00  0.00     0.046 A 
ATOM      8  N   UNL d   1      31.892  17.815 -24.657  0.00  0.00    -0.258 N 
ATOM      9  O   UNL d   1      30.669  18.412 -25.097  0.00  0.00    -0.245 OA
ATOM     10  C   UNL d   1      29.413  17.826 -24.729  0.00  0.00     0.018 A 
ATOM     11  C   UNL d   1      31.853  16.627 -23.846  0.00  0.00     0.018 A 
ATOM     12  C   UNL d   1      30.994  15.454 -23.067  0.00  0.00     0.008 A 
ATOM     13  C   UNL d   1      28.556  16.639 -23.940  0.00  0.00     0.008 A 
ATOM     14  C   UNL d   1      32.254  16.031 -23.429  0.00  0.00     0.002 A 
ATOM     15  C   UNL d   1      28.593  17.819 -24.746  0.00  0.00     0.002 A 
ATOM     16  C   UNL d   1      28.166  17.241 -24.362  0.00  0.00     0.001 A 
ATOM     17  C   UNL d   1      31.819  15.453 -23.045  0.00  0.00     0.001 A 
ENDROOT
BRANCH   8  18
ATOM     18  C   UNL d   1      32.292  17.217 -24.238  0.00  0.00     0.085 C 
BRANCH  18  19
ATOM     19  C   UNL d   1      33.071  17.068 -24.417  0.00  0.00     0.019 C 
ATOM     20  C   UNL d   1      33.241  16.513 -25.005  0.00  0.00     0.002 C 
ENDBRANCH  18  19
ENDBRANCH   8  18
BRANCH   8  21
ATOM     21  C   UNL d   1      32.314  18.403 -25.048  0.00  0.00     0.085 C 
BRANCH  21  22
ATOM     22  C   UNL d   1      32.471  19.127 -24.671  0.00  0.00     0.019 C 
ATOM     23  C   UNL d   1      32.742  19.766 -25.096  0.00  0.00     0.002 C 
ENDBRANCH  21  22
ENDBRANCH   8  21
TORSDOF 4
ENDMDL
MODEL 3
REMARK VINA RESULT:      -1.5      3.401      5.377
REMARK  4 active torsions:
REMARK  status: ('A' for Active; 'I' for Inactive)
REMARK       I    between atoms: C_2  and  N_1 
REMARK       I    between atoms: N_8  and  C_2 
REMARK    1  A    between atoms: C_14  and  N_8 
REMARK    2  A    between atoms: C_15  and  N_8 
REMARK    3  A    between atoms: C_17  and  C_14 
REMARK    4  A    between atoms: C_16  and  C_15 
ROOT
ATOM      1  N   UNL d   1      31.366  17.404 -24.179  0.00  0.00    -0.259 N 
ATOM      2  C   UNL d   1      30.563  17.467 -24.353  0.00  0.00     0.339 C 
ATOM      3  S   UNL d   1      32.979  17.271 -23.826  0.00  0.00    -0.084 SA
ATOM      4  C   UNL d   1      31.896  17.986 -24.424  0.00  0.00     0.074 A 
ATOM      5  C   UNL d   1      31.643  16.747 -23.753  0.00  0.00     0.074 A 
ATOM      6  C   UNL d   1      32.700  17.929 -24.253  0.00  0.00     0.046 A 
ATOM      7  C   UNL d   1      32.451  16.688 -23.580  0.00  0.00     0.046 A 
ATOM      8  N   UNL d   1      30.032  16.884 -24.108  0.00  0.00    -0.258 N 
ATOM      9  O   UNL d   1      30.282  18.122 -24.779  0.00  0.00    -0.245 OA
ATOM     10  C   UNL d   1      31.617  18.642 -24.850  0.00  0.00     0.018 A 
ATOM     11  C   UNL d   1      31.125  16.166 -23.507  0.00  0.00     0.018 A 
ATOM     12  C   UNL d   1      32.732  16.038 -23.157  0.00  0.00     0.008 A 
ATOM     13  C   UNL d   1      33.234  18.503 -24.492  0.00  0.00     0.008 A 
ATOM     14  C   UNL d   1      31.403  15.511 -23.081  0.00  0.00     0.002 A 
ATOM     15  C   UNL d   1      32.149  19.217 -25.090  0.00  0.00     0.002 A 
ATOM     16  C   UNL d   1      32.944  19.157 -24.919  0.00  0.00     0.001 A 
ATOM     17  C   UNL d   1      32.203  15.455 -22.912  0.00  0.00     0.001 A 
ENDROOT
BRANCH   8  18
ATOM     18  C   UNL d   1      30.312  16.227 -23.681  0.00  0.00     0.085 C 
BRANCH  18  19
ATOM     19  C   UNL d   1      29.796  15.622 -23.509  0.00  0.00     0.019 C 
ATOM     20  C   UNL d   1      29.599  15.486 -22.719  0.00  0.00     0.002 C 
ENDBRANCH  18  19
ENDBRANCH   8  18
BRANCH   8  21
ATOM     21  C   UNL d   1      29.232  16.954 -24.286  0.00  0.00     0.085 C 
BRANCH  21  22
ATOM     22  C   UNL d   1      28.884  17.706 -24.364  0.00  0.00     0.019 C 
ATOM     23  C   UNL d   1      28.075  17.790 -24.362  0.00  0.00     0.002 C 
ENDBRANCH  21  22
ENDBRANCH   8  21
TORSDOF 4
ENDMDL
MODEL 4
REMARK VINA RESULT:      -1.4      1.059      3.000
REMARK  4 active torsions:
REMARK  status: ('A' for Active; 'I' for Inactive)
REMARK       I    between atoms: C_2  and  N_1 
REMARK       I    between atoms: N_8  and  C_2 
REMARK    1  A    between atoms: C_14  and  N_8 
REMARK    2  A    between atoms: C_15  and  N_8 
REMARK    3  A    between atoms: C_17  and  C_14 
REMARK    4  A    between atoms: C_16  and  C_15 
ROOT
ATOM      1  N   UNL d   1      33.222  21.102 -22.284  0.00  0.00    -0.259 N 
ATOM      2  C   UNL d   1      33.228  20.283 -22.372  0.00  0.00     0.339 C 
ATOM      3  S   UNL d   1      33.212  22.750 -22.114  0.00  0.00    -0.084 SA
ATOM      4  C   UNL d   1      33.214  21.444 -21.534  0.00  0.00     0.074 A 
ATOM      5  C   UNL d   1      33.225  21.587 -22.958  0.00  0.00     0.074 A 
ATOM      6  C   UNL d   1      33.209  22.263 -21.438  0.00  0.00     0.046 A 
ATOM      7  C   UNL d   1      33.220  22.411 -22.864  0.00  0.00     0.046 A 
ATOM      8  N   UNL d   1      33.236  19.941 -23.123  0.00  0.00    -0.258 N 
ATOM      9  O   UNL d   1      33.225  19.795 -21.700  0.00  0.00    -0.245 OA
ATOM     10  C   UNL d   1      33.212  20.957 -20.861  0.00  0.00     0.018 A 
ATOM     11  C   UNL d   1      33.233  21.257 -23.704  0.00  0.00     0.018 A 
ATOM     12  C   UNL d   1      33.222  22.898 -23.530  0.00  0.00     0.008 A 
ATOM     13  C   UNL d   1      33.201  22.611 -20.696  0.00  0.00     0.008 A 
ATOM     14  C   UNL d   1      33.236  21.743 -24.377  0.00  0.00     0.002 A 
ATOM     15  C   UNL d   1      33.204  21.304 -20.118  0.00  0.00     0.002 A 
ATOM     16  C   UNL d   1      33.198  22.114 -20.029  0.00  0.00     0.001 A 
ATOM     17  C   UNL d   1      33.230  22.557 -24.281  0.00  0.00     0.001 A 
ENDROOT
BRANCH   8  18
ATOM     18  C   UNL d   1      33.238  20.429 -23.797  0.00  0.00     0.085 C 
BRANCH  18  19
ATOM     19  C   UNL d   1      32.787  20.214 -24.439  0.00  0.00     0.019 C 
ATOM     20  C   UNL d   1      33.164  19.873 -25.089  0.00  0.00     0.002 C 
ENDBRANCH  18  19
ENDBRANCH   8  18
BRANCH   8  21
ATOM     21  C   UNL d   1      33.241  19.122 -23.202  0.00  0.00     0.085 C 
BRANCH  21  22
ATOM     22  C   UNL d   1      32.593  18.671 -22.941  0.00  0.00     0.019 C 
ATOM     23  C   UNL d   1      32.567  17.868 -23.072  0.00  0.00     0.002 C 
ENDBRANCH  21  22
ENDBRANCH   8  21
TORSDOF 4
ENDMDL
MODEL 5
REMARK VINA RESULT:      -1.2      1.165      3.141
REMARK  4 active torsions:
REMARK  status: ('A' for Active; 'I' for Inactive)
REMARK       I    between atoms: C_2  and  N_1 
REMARK       I    between atoms: N_8  and  C_2 
REMARK    1  A    between atoms: C_14  and  N_8 
REMARK    2  A    between atoms: C_15  and  N_8 
REMARK    3  A    between atoms: C_17  and  C_14 
REMARK    4  A    between atoms: C_16  and  C_15 
ROOT
ATOM      1  N   UNL d   1      33.168  21.518 -22.168  0.00  0.00    -0.259 N 
ATOM      2  C   UNL d   1      33.143  22.087 -22.763  0.00  0.00     0.339 C 
ATOM      3  S   UNL d   1      33.219  20.369 -20.975  0.00  0.00    -0.084 SA
ATOM      4  C   UNL d   1      33.170  21.741 -21.374  0.00  0.00     0.074 A 
ATOM      5  C   UNL d   1      33.192  20.713 -22.370  0.00  0.00     0.074 A 
ATOM      6  C   UNL d   1      33.195  21.177 -20.773  0.00  0.00     0.046 A 
ATOM      7  C   UNL d   1      33.217  20.145 -21.768  0.00  0.00     0.046 A 
ATOM      8  N   UNL d   1      33.141  21.865 -23.558  0.00  0.00    -0.258 N 
ATOM      9  O   UNL d   1      33.120  22.893 -22.565  0.00  0.00    -0.245 OA
ATOM     10  C   UNL d   1      33.147  22.546 -21.174  0.00  0.00     0.018 A 
ATOM     11  C   UNL d   1      33.190  20.485 -23.153  0.00  0.00     0.018 A 
ATOM     12  C   UNL d   1      33.240  19.343 -21.963  0.00  0.00     0.008 A 
ATOM     13  C   UNL d   1      33.198  21.389 -19.981  0.00  0.00     0.008 A 
ATOM     14  C   UNL d   1      33.213  19.680 -23.355  0.00  0.00     0.002 A 
ATOM     15  C   UNL d   1      33.149  22.761 -20.382  0.00  0.00     0.002 A 
ATOM     16  C   UNL d   1      33.174  22.199 -19.791  0.00  0.00     0.001 A 
ATOM     17  C   UNL d   1      33.238  19.120 -22.757  0.00  0.00     0.001 A 
ENDROOT
BRANCH   8  18
ATOM     18  C   UNL d   1      33.164  21.057 -23.759  0.00  0.00     0.085 C 
BRANCH  18  19
ATOM     19  C   UNL d   1      33.241  20.849 -24.541  0.00  0.00     0.019 C 
ATOM     20  C   UNL d   1      32.612  20.462 -24.909  0.00  0.00     0.002 C 
ENDBRANCH  18  19
ENDBRANCH   8  18
BRANCH   8  21
ATOM     21  C   UNL d   1      33.116  22.439 -24.147  0.00  0.00     0.085 C 
BRANCH  21  22
ATOM     22  C   UNL d   1      32.513  23.012 -24.148  0.00  0.00     0.019 C 
ATOM     23  C   UNL d   1      32.528  23.628 -24.679  0.00  0.00     0.002 C 
ENDBRANCH  21  22
ENDBRANCH   8  21
TORSDOF 4
ENDMDL
MODEL 6
REMARK VINA RESULT:      -0.8      0.967      2.761
REMARK  4 active torsions:
REMARK  status: ('A' for Active; 'I' for Inactive)
REMARK       I    between atoms: C_2  and  N_1 
REMARK       I    between atoms: N_8  and  C_2 
REMARK    1  A    between atoms: C_14  and  N_8 
REMARK    2  A    between atoms: C_15  and  N_8 
REMARK    3  A    between atoms: C_17  and  C_14 
REMARK    4  A    between atoms: C_16  and  C_15 
ROOT
ATOM      1  N   UNL d   1      33.188  21.514 -22.471  0.00  0.00    -0.259 N 
ATOM      2  C   UNL d   1      33.163  22.168 -21.970  0.00  0.00     0.339 C 
ATOM      3  S   UNL d   1      33.239  20.197 -23.474  0.00  0.00    -0.084 SA
ATOM      4  C   UNL d   1      33.202  21.613 -23.289  0.00  0.00     0.074 A 
ATOM      5  C   UNL d   1      33.200  20.750 -22.148  0.00  0.00     0.074 A 
ATOM      6  C   UNL d   1      33.227  20.964 -23.797  0.00  0.00     0.046 A 
ATOM      7  C   UNL d   1      33.225  20.096 -22.657  0.00  0.00     0.046 A 
ATOM      8  N   UNL d   1      33.149  22.069 -21.151  0.00  0.00    -0.258 N 
ATOM      9  O   UNL d   1      33.151  22.934 -22.289  0.00  0.00    -0.245 OA
ATOM     10  C   UNL d   1      33.190  22.379 -23.610  0.00  0.00     0.018 A 
ATOM     11  C   UNL d   1      33.186  20.643 -21.339  0.00  0.00     0.018 A 
ATOM     12  C   UNL d   1      33.237  19.333 -22.342  0.00  0.00     0.008 A 
ATOM     13  C   UNL d   1      33.241  21.053 -24.612  0.00  0.00     0.008 A 
ATOM     14  C   UNL d   1      33.198  19.878 -21.018  0.00  0.00     0.002 A 
ATOM     15  C   UNL d   1      33.204  22.470 -24.425  0.00  0.00     0.002 A 
ATOM     16  C   UNL d   1      33.229  21.825 -24.923  0.00  0.00     0.001 A 
ATOM     17  C   UNL d   1      33.223  19.233 -21.523  0.00  0.00     0.001 A 
ENDROOT
BRANCH   8  18
ATOM     18  C   UNL d   1      33.161  21.301 -20.829  0.00  0.00     0.085 C 
BRANCH  18  19
ATOM     19  C   UNL d   1      32.783  21.166 -20.122  0.00  0.00     0.019 C 
ATOM     20  C   UNL d   1      33.241  21.092 -19.438  0.00  0.00     0.002 C 
ENDBRANCH  18  19
ENDBRANCH   8  18
BRANCH   8  21
ATOM     21  C   UNL d   1      33.123  22.726 -20.656  0.00  0.00     0.085 C 
BRANCH  21  22
ATOM     22  C   UNL d   1      32.397  23.091 -20.480  0.00  0.00     0.019 C 
ATOM     23  C   UNL d   1      32.356  23.688 -19.929  0.00  0.00     0.002 C 
ENDBRANCH  21  22
ENDBRANCH   8  21
TORSDOF 4
ENDMDL
MODEL 7
REMARK VINA RESULT:       0.2      0.913      2.914
REMARK  4 active torsions:
REMARK  status: ('A' for Active; 'I' for Inactive)
REMARK       I    between atoms: C_2  and  N_1 
REMARK       I    between atoms: N_8  and  C_2 
REMARK    1  A    between atoms: C_14  and  N_8 
REMARK    2  A    between atoms: C_15  and  N_8 
REMARK    3  A    between atoms: C_17  and  C_14 
REMARK    4  A    between atoms: C_16  and  C_15 
ROOT
ATOM      1  N   UNL d   1      33.097  20.905 -23.115  0.00  0.00    -0.259 N 
ATOM      2  C   UNL d   1      33.091  20.694 -22.319  0.00  0.00     0.339 C 
ATOM      3  S   UNL d   1      33.108  21.325 -24.718  0.00  0.00    -0.084 SA
ATOM      4  C   UNL d   1      33.143  21.697 -23.339  0.00  0.00     0.074 A 
ATOM      5  C   UNL d   1      33.055  20.315 -23.697  0.00  0.00     0.074 A 
ATOM      6  C   UNL d   1      33.149  21.917 -24.133  0.00  0.00     0.046 A 
ATOM      7  C   UNL d   1      33.061  20.533 -24.497  0.00  0.00     0.046 A 
ATOM      8  N   UNL d   1      33.044  19.901 -22.095  0.00  0.00    -0.258 N 
ATOM      9  O   UNL d   1      33.132  21.282 -21.734  0.00  0.00    -0.245 OA
ATOM     10  C   UNL d   1      33.184  22.287 -22.755  0.00  0.00     0.018 A 
ATOM     11  C   UNL d   1      33.009  19.528 -23.485  0.00  0.00     0.018 A 
ATOM     12  C   UNL d   1      33.020  19.950 -25.079  0.00  0.00     0.008 A 
ATOM     13  C   UNL d   1      33.195  22.702 -24.365  0.00  0.00     0.008 A 
ATOM     14  C   UNL d   1      32.968  18.939 -24.067  0.00  0.00     0.002 A 
ATOM     15  C   UNL d   1      33.230  23.073 -22.985  0.00  0.00     0.002 A 
ATOM     16  C   UNL d   1      33.236  23.285 -23.772  0.00  0.00     0.001 A 
ATOM     17  C   UNL d   1      32.974  19.157 -24.857  0.00  0.00     0.001 A 
ENDROOT
BRANCH   8  18
ATOM     18  C   UNL d   1      33.003  19.310 -22.680  0.00  0.00     0.085 C 
BRANCH  18  19
ATOM     19  C   UNL d   1      32.757  18.565 -22.468  0.00  0.00     0.019 C 
ATOM     20  C   UNL d   1      33.241  17.922 -22.656  0.00  0.00     0.002 C 
ENDBRANCH  18  19
ENDBRANCH   8  18
BRANCH   8  21
ATOM     21  C   UNL d   1      33.039  19.697 -21.298  0.00  0.00     0.085 C 
BRANCH  21  22
ATOM     22  C   UNL d   1      33.226  20.265 -20.719  0.00  0.00     0.019 C 
ATOM     23  C   UNL d   1      33.233  20.065 -19.930  0.00  0.00     0.002 C 
ENDBRANCH  21  22
ENDBRANCH   8  21
TORSDOF 4
ENDMDL
MODEL 8
REMARK VINA RESULT:       0.6      0.937      1.381
REMARK  4 active torsions:
REMARK  status: ('A' for Active; 'I' for Inactive)
REMARK       I    between atoms: C_2  and  N_1 
REMARK       I    between atoms: N_8  and  C_2 
REMARK    1  A    between atoms: C_14  and  N_8 
REMARK    2  A    between atoms: C_15  and  N_8 
REMARK    3  A    between atoms: C_17  and  C_14 
REMARK    4  A    between atoms: C_16  and  C_15 
ROOT
ATOM      1  N   UNL d   1      33.075  19.207 -23.146  0.00  0.00    -0.259 N 
ATOM      2  C   UNL d   1      33.130  19.405 -22.348  0.00  0.00     0.339 C 
ATOM      3  S   UNL d   1      32.964  18.815 -24.752  0.00  0.00    -0.084 SA
ATOM      4  C   UNL d   1      33.022  18.419 -23.380  0.00  0.00     0.074 A 
ATOM      5  C   UNL d   1      33.072  19.808 -23.718  0.00  0.00     0.074 A 
ATOM      6  C   UNL d   1      32.966  18.213 -24.176  0.00  0.00     0.046 A 
ATOM      7  C   UNL d   1      33.016  19.603 -24.520  0.00  0.00     0.046 A 
ATOM      8  N   UNL d   1      33.183  20.195 -22.113  0.00  0.00    -0.258 N 
ATOM      9  O   UNL d   1      33.133  18.807 -21.772  0.00  0.00    -0.245 OA
ATOM     10  C   UNL d   1      33.025  17.819 -22.805  0.00  0.00     0.018 A 
ATOM     11  C   UNL d   1      33.124  20.591 -23.495  0.00  0.00     0.018 A 
ATOM     12  C   UNL d   1      33.013  20.196 -25.093  0.00  0.00     0.008 A 
ATOM     13  C   UNL d   1      32.913  17.431 -24.418  0.00  0.00     0.008 A 
ATOM     14  C   UNL d   1      33.121  21.191 -24.069  0.00  0.00     0.002 A 
ATOM     15  C   UNL d   1      32.972  17.036 -23.045  0.00  0.00     0.002 A 
ATOM     16  C   UNL d   1      32.917  16.838 -23.834  0.00  0.00     0.001 A 
ATOM     17  C   UNL d   1      33.066  20.986 -24.860  0.00  0.00     0.001 A 
ENDROOT
BRANCH   8  18
ATOM     18  C   UNL d   1      33.180  20.796 -22.689  0.00  0.00     0.085 C 
BRANCH  18  19
ATOM     19  C   UNL d   1      33.006  21.557 -22.462  0.00  0.00     0.019 C 
ATOM     20  C   UNL d   1      33.241  22.178 -22.952  0.00  0.00     0.002 C 
ENDBRANCH  18  19
ENDBRANCH   8  18
BRANCH   8  21
ATOM     21  C   UNL d   1      33.238  20.385 -21.315  0.00  0.00     0.085 C 
BRANCH  21  22
ATOM     22  C   UNL d   1      32.565  20.640 -20.897  0.00  0.00     0.019 C 
ATOM     23  C   UNL d   1      32.636  20.956 -20.151  0.00  0.00     0.002 C 
ENDBRANCH  21  22
ENDBRANCH   8  21
TORSDOF 4
ENDMDL
