MODEL 1
REMARK VINA RESULT:      -9.6      0.000      0.000
REMARK  1 active torsions:
REMARK  status: ('A' for Active; 'I' for Inactive)
REMARK       I    between atoms: C_2  and  N_1 
REMARK    1  A    between atoms: C_4  and  C_2 
ROOT
ATOM      1  N   UNL d   1      53.183  32.700  53.736  0.00  0.00    -0.273 N 
ATOM      2  C   UNL d   1      52.927  32.150  53.146  0.00  0.00     0.271 C 
ATOM      3  C   UNL d   1      53.068  33.516  53.750  0.00  0.00     0.067 A 
ATOM      4  C   UNL d   1      53.612  32.513  54.433  0.00  0.00     0.083 A 
ATOM      5  O   UNL d   1      52.507  32.445  52.492  0.00  0.00    -0.266 OA
ATOM      6  C   UNL d   1      53.411  33.828  54.430  0.00  0.00     0.018 A 
ATOM      7  C   UNL d   1      53.748  33.196  54.850  0.00  0.00     0.021 A 
ATOM      8  C   UNL d   1      52.682  34.002  53.207  0.00  0.00     0.018 A 
ATOM      9  C   UNL d   1      53.373  34.630  54.576  0.00  0.00     0.002 A 
ATOM     10  C   UNL d   1      52.643  34.808  53.352  0.00  0.00     0.002 A 
ATOM     11  C   UNL d   1      52.996  35.141  54.053  0.00  0.00     0.000 A 
ENDROOT
BRANCH   2  12
ATOM     12  C   UNL d   1      53.096  31.337  53.225  0.00  0.00     0.086 A 
ATOM     13  S   UNL d   1      53.792  30.925  53.359  0.00  0.00    -0.082 SA
ATOM     14  C   UNL d   1      53.600  30.119  53.382  0.00  0.00     0.036 A 
ATOM     15  C   UNL d   1      52.799  30.019  53.265  0.00  0.00     0.008 A 
ATOM     16  C   UNL d   1      52.475  30.774  53.166  0.00  0.00     0.012 A 
ENDBRANCH   2  12
TORSDOF 1
ENDMDL
MODEL 2
REMARK VINA RESULT:      -9.4      1.799      2.812
REMARK  1 active torsions:
REMARK  status: ('A' for Active; 'I' for Inactive)
REMARK       I    between atoms: C_2  and  N_1 
REMARK    1  A    between atoms: C_4  and  C_2 
ROOT
ATOM      1  N   UNL d   1      52.676  33.785  53.828  0.00  0.00    -0.273 N 
ATOM      2  C   UNL d   1      52.157  33.351  53.319  0.00  0.00     0.271 C 
ATOM      3  C   UNL d   1      53.351  33.512  54.214  0.00  0.00     0.067 A 
ATOM      4  C   UNL d   1      52.599  34.595  54.038  0.00  0.00     0.083 A 
ATOM      5  O   UNL d   1      52.328  32.550  53.177  0.00  0.00    -0.266 OA
ATOM      6  C   UNL d   1      53.683  34.126  54.650  0.00  0.00     0.018 A 
ATOM      7  C   UNL d   1      53.208  34.797  54.535  0.00  0.00     0.021 A 
ATOM      8  C   UNL d   1      53.692  32.761  54.209  0.00  0.00     0.018 A 
ATOM      9  C   UNL d   1      54.360  33.998  55.086  0.00  0.00     0.002 A 
ATOM     10  C   UNL d   1      54.372  32.631  54.647  0.00  0.00     0.002 A 
ATOM     11  C   UNL d   1      54.724  33.260  55.101  0.00  0.00     0.000 A 
ENDROOT
BRANCH   2  12
ATOM     12  C   UNL d   1      51.495  33.723  52.974  0.00  0.00     0.086 A 
ATOM     13  S   UNL d   1      50.753  33.914  53.263  0.00  0.00    -0.082 SA
ATOM     14  C   UNL d   1      50.336  34.281  52.648  0.00  0.00     0.036 A 
ATOM     15  C   UNL d   1      50.803  34.323  51.980  0.00  0.00     0.008 A 
ATOM     16  C   UNL d   1      51.529  33.977  52.174  0.00  0.00     0.012 A 
ENDBRANCH   2  12
TORSDOF 1
ENDMDL
MODEL 3
REMARK VINA RESULT:      -9.1      1.100      3.295
REMARK  1 active torsions:
REMARK  status: ('A' for Active; 'I' for Inactive)
REMARK       I    between atoms: C_2  and  N_1 
REMARK    1  A    between atoms: C_4  and  C_2 
ROOT
ATOM      1  N   UNL d   1      53.107  32.583  53.594  0.00  0.00    -0.273 N 
ATOM      2  C   UNL d   1      52.536  33.198  53.485  0.00  0.00     0.271 C 
ATOM      3  C   UNL d   1      53.035  31.786  53.397  0.00  0.00     0.067 A 
ATOM      4  C   UNL d   1      53.871  32.671  53.932  0.00  0.00     0.083 A 
ATOM      5  O   UNL d   1      51.807  32.999  53.138  0.00  0.00    -0.266 OA
ATOM      6  C   UNL d   1      53.727  31.390  53.604  0.00  0.00     0.018 A 
ATOM      7  C   UNL d   1      54.242  31.949  53.936  0.00  0.00     0.021 A 
ATOM      8  C   UNL d   1      52.404  31.385  53.050  0.00  0.00     0.018 A 
ATOM      9  C   UNL d   1      53.796  30.590  53.466  0.00  0.00     0.002 A 
ATOM     10  C   UNL d   1      52.472  30.580  52.910  0.00  0.00     0.002 A 
ATOM     11  C   UNL d   1      53.184  30.162  53.120  0.00  0.00     0.000 A 
ENDROOT
BRANCH   2  12
ATOM     12  C   UNL d   1      52.708  33.980  53.720  0.00  0.00     0.086 A 
ATOM     13  S   UNL d   1      52.905  34.311  54.443  0.00  0.00    -0.082 SA
ATOM     14  C   UNL d   1      53.010  35.124  54.322  0.00  0.00     0.036 A 
ATOM     15  C   UNL d   1      52.882  35.308  53.537  0.00  0.00     0.008 A 
ATOM     16  C   UNL d   1      52.693  34.599  53.153  0.00  0.00     0.012 A 
ENDBRANCH   2  12
TORSDOF 1
ENDMDL
MODEL 4
REMARK VINA RESULT:      -8.8      1.715      2.662
REMARK  1 active torsions:
REMARK  status: ('A' for Active; 'I' for Inactive)
REMARK       I    between atoms: C_2  and  N_1 
REMARK    1  A    between atoms: C_4  and  C_2 
ROOT
ATOM      1  N   UNL d   1      52.793  33.734  53.767  0.00  0.00    -0.273 N 
ATOM      2  C   UNL d   1      53.251  33.106  54.103  0.00  0.00     0.271 C 
ATOM      3  C   UNL d   1      52.039  33.689  53.438  0.00  0.00     0.067 A 
ATOM      4  C   UNL d   1      53.027  34.538  53.704  0.00  0.00     0.083 A 
ATOM      5  O   UNL d   1      52.921  32.344  54.114  0.00  0.00    -0.266 OA
ATOM      6  C   UNL d   1      51.809  34.436  53.179  0.00  0.00     0.018 A 
ATOM      7  C   UNL d   1      52.431  34.959  53.349  0.00  0.00     0.021 A 
ATOM      8  C   UNL d   1      51.541  33.038  53.351  0.00  0.00     0.018 A 
ATOM      9  C   UNL d   1      51.080  34.541  52.830  0.00  0.00     0.002 A 
ATOM     10  C   UNL d   1      50.807  33.142  53.000  0.00  0.00     0.002 A 
ATOM     11  C   UNL d   1      50.561  33.911  52.729  0.00  0.00     0.000 A 
ENDROOT
BRANCH   2  12
ATOM     12  C   UNL d   1      54.011  33.257  54.413  0.00  0.00     0.086 A 
ATOM     13  S   UNL d   1      54.744  33.355  54.060  0.00  0.00    -0.082 SA
ATOM     14  C   UNL d   1      55.293  33.491  54.666  0.00  0.00     0.036 A 
ATOM     15  C   UNL d   1      54.917  33.480  55.390  0.00  0.00     0.008 A 
ATOM     16  C   UNL d   1      54.116  33.334  55.242  0.00  0.00     0.012 A 
ENDBRANCH   2  12
TORSDOF 1
ENDMDL
MODEL 5
REMARK VINA RESULT:      -7.6      1.083      1.608
REMARK  1 active torsions:
REMARK  status: ('A' for Active; 'I' for Inactive)
REMARK       I    between atoms: C_2  and  N_1 
REMARK    1  A    between atoms: C_4  and  C_2 
ROOT
ATOM      1  N   UNL d   1      53.512  32.237  53.932  0.00  0.00    -0.273 N 
ATOM      2  C   UNL d   1      53.560  31.420  54.147  0.00  0.00     0.271 C 
ATOM      3  C   UNL d   1      53.786  32.888  54.357  0.00  0.00     0.067 A 
ATOM      4  C   UNL d   1      53.170  32.545  53.229  0.00  0.00     0.083 A 
ATOM      5  O   UNL d   1      53.921  31.225  54.869  0.00  0.00    -0.266 OA
ATOM      6  C   UNL d   1      53.621  33.577  53.937  0.00  0.00     0.018 A 
ATOM      7  C   UNL d   1      53.237  33.354  53.236  0.00  0.00     0.021 A 
ATOM      8  C   UNL d   1      54.169  32.916  55.087  0.00  0.00     0.018 A 
ATOM      9  C   UNL d   1      53.837  34.302  54.242  0.00  0.00     0.002 A 
ATOM     10  C   UNL d   1      54.387  33.644  55.394  0.00  0.00     0.002 A 
ATOM     11  C   UNL d   1      54.221  34.363  54.967  0.00  0.00     0.000 A 
ENDROOT
BRANCH   2  12
ATOM     12  C   UNL d   1      53.250  30.832  53.642  0.00  0.00     0.086 A 
ATOM     13  S   UNL d   1      52.831  30.869  52.939  0.00  0.00    -0.082 SA
ATOM     14  C   UNL d   1      52.677  30.090  52.702  0.00  0.00     0.036 A 
ATOM     15  C   UNL d   1      52.992  29.566  53.243  0.00  0.00     0.008 A 
ATOM     16  C   UNL d   1      53.352  30.021  53.834  0.00  0.00     0.012 A 
ENDBRANCH   2  12
TORSDOF 1
ENDMDL
