MODEL 1
REMARK VINA RESULT:      -7.8      0.000      0.000
REMARK  5 active torsions:
REMARK  status: ('A' for Active; 'I' for Inactive)
REMARK    1  A    between atoms: C_10  and  C_3 
REMARK    2  A    between atoms: N_13  and  C_4 
REMARK    3  A    between atoms: N_12  and  C_17 
REMARK    4  A    between atoms: C_16  and  N_13 
REMARK    5  A    between atoms: C_17  and  C_16 
ROOT
ATOM      1  C   UNL d   1     -48.364  13.608  23.050  0.00  0.00     0.150 A 
ATOM      2  N   UNL d   1     -48.021  12.906  23.327  0.00  0.00    -0.275 N 
ATOM      3  C   UNL d   1     -47.886  14.250  22.854  0.00  0.00     0.056 A 
ATOM      4  C   UNL d   1     -47.198  12.841  23.409  0.00  0.00     0.149 A 
ATOM      5  N   UNL d   1     -49.187  13.662  22.972  0.00  0.00    -0.227 NA
ATOM      6  C   UNL d   1     -47.066  14.195  22.933  0.00  0.00     0.007 A 
ATOM      7  C   UNL d   1     -46.723  13.493  23.209  0.00  0.00     0.038 A 
ATOM      8  C   UNL d   1     -49.331  12.313  23.446  0.00  0.00     0.084 A 
ATOM      9  C   UNL d   1     -49.674  13.015  23.169  0.00  0.00     0.099 A 
ATOM     10  C   UNL d   1     -46.579  14.841  22.735  0.00  0.00     0.000 C 
ATOM     11  C   UNL d   1     -49.806  11.662  23.646  0.00  0.00     0.019 A 
ATOM     12  C   UNL d   1     -50.494  13.071  23.091  0.00  0.00     0.021 A 
ATOM     13  C   UNL d   1     -50.629  11.726  23.564  0.00  0.00     0.002 A 
ATOM     14  C   UNL d   1     -50.972  12.428  23.287  0.00  0.00     0.002 A 
ENDROOT
BRANCH   4  15
ATOM     15  N   UNL d   1     -46.857  12.143  23.684  0.00  0.00    -0.225 NA
BRANCH  15  16
ATOM     16  C   UNL d   1     -46.135  11.888  23.378  0.00  0.00     0.120 C 
BRANCH  16  17
ATOM     17  C   UNL d   1     -45.888  11.122  23.503  0.00  0.00     0.101 C 
BRANCH  17  18
ATOM     18  N   UNL d   1     -45.103  10.919  23.393  0.00  0.00    -0.298 N 
ATOM     19  C   UNL d   1     -44.605  11.426  22.975  0.00  0.00     0.107 A 
ATOM     20  C   UNL d   1     -43.812  11.225  22.862  0.00  0.00     0.142 A 
ATOM     21  O   UNL d   1     -43.511  10.518  23.163  0.00  0.00    -0.300 OA
ATOM     22  C   UNL d   1     -44.019  10.010  23.584  0.00  0.00     0.142 A 
ATOM     23  C   UNL d   1     -44.810  10.211  23.697  0.00  0.00     0.107 A 
ENDBRANCH  17  18
ENDBRANCH  16  17
ENDBRANCH  15  16
ENDBRANCH   4  15
BRANCH   3  24
ATOM     24  C   UNL d   1     -48.227  14.949  22.579  0.00  0.00     0.125 C 
ATOM     25  N   UNL d   1     -48.046  15.228  21.870  0.00  0.00    -0.146 N 
ENDBRANCH   3  24
TORSDOF 5
ENDMDL
MODEL 2
REMARK VINA RESULT:      -6.6      1.465      2.573
REMARK  5 active torsions:
REMARK  status: ('A' for Active; 'I' for Inactive)
REMARK    1  A    between atoms: C_10  and  C_3 
REMARK    2  A    between atoms: N_13  and  C_4 
REMARK    3  A    between atoms: N_12  and  C_17 
REMARK    4  A    between atoms: C_16  and  N_13 
REMARK    5  A    between atoms: C_17  and  C_16 
ROOT
ATOM      1  C   UNL d   1     -48.860  13.057  23.322  0.00  0.00     0.150 A 
ATOM      2  N   UNL d   1     -48.145  13.431  23.132  0.00  0.00    -0.275 N 
ATOM      3  C   UNL d   1     -48.869  12.255  23.509  0.00  0.00     0.056 A 
ATOM      4  C   UNL d   1     -47.434  13.003  23.129  0.00  0.00     0.149 A 
ATOM      5  N   UNL d   1     -49.565  13.493  23.323  0.00  0.00    -0.227 NA
ATOM      6  C   UNL d   1     -48.166  11.822  23.508  0.00  0.00     0.007 A 
ATOM      7  C   UNL d   1     -47.451  12.195  23.318  0.00  0.00     0.038 A 
ATOM      8  C   UNL d   1     -48.845  14.678  22.945  0.00  0.00     0.084 A 
ATOM      9  C   UNL d   1     -49.561  14.305  23.134  0.00  0.00     0.099 A 
ATOM     10  C   UNL d   1     -48.170  11.011  23.696  0.00  0.00     0.000 C 
ATOM     11  C   UNL d   1     -48.828  15.486  22.755  0.00  0.00     0.019 A 
ATOM     12  C   UNL d   1     -50.263  14.737  23.136  0.00  0.00     0.021 A 
ATOM     13  C   UNL d   1     -49.539  15.913  22.759  0.00  0.00     0.002 A 
ATOM     14  C   UNL d   1     -50.255  15.540  22.949  0.00  0.00     0.002 A 
ENDROOT
BRANCH   4  15
ATOM     15  N   UNL d   1     -46.723  13.374  22.940  0.00  0.00    -0.225 NA
BRANCH  15  16
ATOM     16  C   UNL d   1     -46.088  12.931  22.657  0.00  0.00     0.120 C 
BRANCH  16  17
ATOM     17  C   UNL d   1     -45.512  13.286  22.202  0.00  0.00     0.101 C 
BRANCH  17  18
ATOM     18  N   UNL d   1     -44.797  12.910  22.075  0.00  0.00    -0.298 N 
ATOM     19  C   UNL d   1     -44.277  13.203  21.507  0.00  0.00     0.107 A 
ATOM     20  C   UNL d   1     -43.554  12.827  21.376  0.00  0.00     0.142 A 
ATOM     21  O   UNL d   1     -43.345  12.156  21.808  0.00  0.00    -0.300 OA
ATOM     22  C   UNL d   1     -43.875  11.864  22.381  0.00  0.00     0.142 A 
ATOM     23  C   UNL d   1     -44.596  12.240  22.512  0.00  0.00     0.107 A 
ENDBRANCH  17  18
ENDBRANCH  16  17
ENDBRANCH  15  16
ENDBRANCH   4  15
BRANCH   3  24
ATOM     24  C   UNL d   1     -49.581  11.883  23.698  0.00  0.00     0.125 C 
ATOM     25  N   UNL d   1     -49.839  11.278  23.274  0.00  0.00    -0.146 N 
ENDBRANCH   3  24
TORSDOF 5
ENDMDL
MODEL 3
REMARK VINA RESULT:      -5.6      7.684      9.806
REMARK  5 active torsions:
REMARK  status: ('A' for Active; 'I' for Inactive)
REMARK    1  A    between atoms: C_10  and  C_3 
REMARK    2  A    between atoms: N_13  and  C_4 
REMARK    3  A    between atoms: N_12  and  C_17 
REMARK    4  A    between atoms: C_16  and  N_13 
REMARK    5  A    between atoms: C_17  and  C_16 
ROOT
ATOM      1  C   UNL d   1     -39.796  14.654  20.881  0.00  0.00     0.150 A 
ATOM      2  N   UNL d   1     -39.155  14.461  20.392  0.00  0.00    -0.275 N 
ATOM      3  C   UNL d   1     -40.408  15.124  20.592  0.00  0.00     0.056 A 
ATOM      4  C   UNL d   1     -39.123  14.738  19.611  0.00  0.00     0.149 A 
ATOM      5  N   UNL d   1     -39.818  14.373  21.661  0.00  0.00    -0.227 NA
ATOM      6  C   UNL d   1     -40.384  15.402  19.816  0.00  0.00     0.007 A 
ATOM      7  C   UNL d   1     -39.743  15.210  19.327  0.00  0.00     0.038 A 
ATOM      8  C   UNL d   1     -38.561  13.706  21.468  0.00  0.00     0.084 A 
ATOM      9  C   UNL d   1     -39.202  13.898  21.957  0.00  0.00     0.099 A 
ATOM     10  C   UNL d   1     -41.001  15.877  19.519  0.00  0.00     0.000 C 
ATOM     11  C   UNL d   1     -37.940  13.233  21.752  0.00  0.00     0.019 A 
ATOM     12  C   UNL d   1     -39.226  13.619  22.734  0.00  0.00     0.021 A 
ATOM     13  C   UNL d   1     -37.972  12.957  22.534  0.00  0.00     0.002 A 
ATOM     14  C   UNL d   1     -38.613  13.149  23.023  0.00  0.00     0.002 A 
ENDROOT
BRANCH   4  15
ATOM     15  N   UNL d   1     -38.485  14.546  19.125  0.00  0.00    -0.225 NA
BRANCH  15  16
ATOM     16  C   UNL d   1     -38.582  14.529  18.306  0.00  0.00     0.120 C 
BRANCH  16  17
ATOM     17  C   UNL d   1     -37.943  14.373  17.823  0.00  0.00     0.101 C 
BRANCH  17  18
ATOM     18  N   UNL d   1     -38.029  14.383  17.010  0.00  0.00    -0.298 N 
ATOM     19  C   UNL d   1     -38.203  13.685  16.609  0.00  0.00     0.107 A 
ATOM     20  C   UNL d   1     -38.291  13.691  15.788  0.00  0.00     0.142 A 
ATOM     21  O   UNL d   1     -38.206  14.392  15.362  0.00  0.00    -0.300 OA
ATOM     22  C   UNL d   1     -38.030  15.095  15.772  0.00  0.00     0.142 A 
ATOM     23  C   UNL d   1     -37.943  15.089  16.592  0.00  0.00     0.107 A 
ENDBRANCH  17  18
ENDBRANCH  16  17
ENDBRANCH  15  16
ENDBRANCH   4  15
BRANCH   3  24
ATOM     24  C   UNL d   1     -41.046  15.315  21.079  0.00  0.00     0.125 C 
ATOM     25  N   UNL d   1     -41.777  15.127  20.870  0.00  0.00    -0.146 N 
ENDBRANCH   3  24
TORSDOF 5
ENDMDL
MODEL 4
REMARK VINA RESULT:      -5.6      1.998      4.775
REMARK  5 active torsions:
REMARK  status: ('A' for Active; 'I' for Inactive)
REMARK    1  A    between atoms: C_10  and  C_3 
REMARK    2  A    between atoms: N_13  and  C_4 
REMARK    3  A    between atoms: N_12  and  C_17 
REMARK    4  A    between atoms: C_16  and  N_13 
REMARK    5  A    between atoms: C_17  and  C_16 
ROOT
ATOM      1  C   UNL d   1     -45.212  12.291  22.800  0.00  0.00     0.150 A 
ATOM      2  N   UNL d   1     -45.878  11.901  23.103  0.00  0.00    -0.275 N 
ATOM      3  C   UNL d   1     -45.282  13.057  22.504  0.00  0.00     0.056 A 
ATOM      4  C   UNL d   1     -46.618  12.274  23.112  0.00  0.00     0.149 A 
ATOM      5  N   UNL d   1     -44.477  11.908  22.796  0.00  0.00    -0.227 NA
ATOM      6  C   UNL d   1     -46.015  13.436  22.509  0.00  0.00     0.007 A 
ATOM      7  C   UNL d   1     -46.681  13.046  22.812  0.00  0.00     0.038 A 
ATOM      8  C   UNL d   1     -45.066  10.744  23.398  0.00  0.00     0.084 A 
ATOM      9  C   UNL d   1     -44.400  11.134  23.095  0.00  0.00     0.099 A 
ATOM     10  C   UNL d   1     -46.092  14.210  22.210  0.00  0.00     0.000 C 
ATOM     11  C   UNL d   1     -45.003   9.973  23.698  0.00  0.00     0.019 A 
ATOM     12  C   UNL d   1     -43.667  10.755  23.090  0.00  0.00     0.021 A 
ATOM     13  C   UNL d   1     -44.262   9.599  23.689  0.00  0.00     0.002 A 
ATOM     14  C   UNL d   1     -43.597   9.989  23.386  0.00  0.00     0.002 A 
ENDROOT
BRANCH   4  15
ATOM     15  N   UNL d   1     -47.280  11.887  23.414  0.00  0.00    -0.225 NA
BRANCH  15  16
ATOM     16  C   UNL d   1     -48.034  12.090  23.149  0.00  0.00     0.120 C 
BRANCH  16  17
ATOM     17  C   UNL d   1     -48.681  11.656  23.388  0.00  0.00     0.101 C 
BRANCH  17  18
ATOM     18  N   UNL d   1     -49.434  11.886  23.169  0.00  0.00    -0.298 N 
ATOM     19  C   UNL d   1     -50.060  11.793  23.697  0.00  0.00     0.107 A 
ATOM     20  C   UNL d   1     -50.822  12.024  23.480  0.00  0.00     0.142 A 
ATOM     21  O   UNL d   1     -50.967  12.348  22.736  0.00  0.00    -0.300 OA
ATOM     22  C   UNL d   1     -50.331  12.440  22.205  0.00  0.00     0.142 A 
ATOM     23  C   UNL d   1     -49.570  12.209  22.422  0.00  0.00     0.107 A 
ENDBRANCH  17  18
ENDBRANCH  16  17
ENDBRANCH  15  16
ENDBRANCH   4  15
BRANCH   3  24
ATOM     24  C   UNL d   1     -44.620  13.445  22.202  0.00  0.00     0.125 C 
ATOM     25  N   UNL d   1     -44.414  13.356  21.452  0.00  0.00    -0.146 N 
ENDBRANCH   3  24
TORSDOF 5
ENDMDL
