MODEL 1
REMARK VINA RESULT:       9.2      0.000      0.000
REMARK  4 active torsions:
REMARK  status: ('A' for Active; 'I' for Inactive)
REMARK    1  A    between atoms: C_8  and  C_2 
REMARK    2  A    between atoms: O_6  and  C_8 
REMARK    3  A    between atoms: C_7  and  O_6 
REMARK    4  A    between atoms: O_10  and  C_9 
ROOT
ATOM      1  C   UNL d   1      45.875 -17.150  44.058  0.00  0.00     0.161 C 
ENDROOT
BRANCH   1   2
ATOM      2  O   UNL d   1      46.382 -17.602  43.712  0.00  0.00    -0.300 OA
BRANCH   2   3
ATOM      3  C   UNL d   1      46.406 -18.435  43.882  0.00  0.00     0.122 A 
ATOM      4  C   UNL d   1      46.536 -18.960  43.293  0.00  0.00     0.117 A 
ATOM      5  C   UNL d   1      46.558 -19.770  43.470  0.00  0.00     0.026 A 
ATOM      6  C   UNL d   1      46.446 -20.023  44.248  0.00  0.00     0.002 A 
ATOM      7  C   UNL d   1      46.309 -19.474  44.875  0.00  0.00     0.002 A 
ATOM      8  C   UNL d   1      46.292 -18.661  44.668  0.00  0.00     0.027 A 
BRANCH   4   9
ATOM      9  O   UNL d   1      46.647 -18.708  42.520  0.00  0.00    -0.326 OA
ATOM     10  C   UNL d   1      46.632 -19.232  41.910  0.00  0.00     0.181 C 
ENDBRANCH   4   9
ENDBRANCH   2   3
ENDBRANCH   1   2
BRANCH   1  11
ATOM     11  C   UNL d   1      46.010 -16.358  44.074  0.00  0.00     0.188 A 
ATOM     12  N   UNL d   1      46.409 -15.651  43.938  0.00  0.00    -0.224 NA
ATOM     13  C   UNL d   1      45.976 -15.041  44.242  0.00  0.00     0.101 A 
ATOM     14  C   UNL d   1      45.292 -15.360  44.576  0.00  0.00     0.101 A 
ATOM     15  C   UNL d   1      46.079 -14.239  44.277  0.00  0.00     0.021 A 
ATOM     16  C   UNL d   1      44.737 -14.865  44.932  0.00  0.00     0.021 A 
ATOM     17  N   UNL d   1      45.316 -16.161  44.472  0.00  0.00    -0.224 NA
ATOM     18  C   UNL d   1      44.866 -14.050  44.955  0.00  0.00     0.002 A 
ATOM     19  C   UNL d   1      45.550 -13.731  44.621  0.00  0.00     0.002 A 
ENDBRANCH   1  11
TORSDOF 4
ENDMDL
MODEL 2
REMARK VINA RESULT:      11.2      1.203      4.512
REMARK  4 active torsions:
REMARK  status: ('A' for Active; 'I' for Inactive)
REMARK    1  A    between atoms: C_8  and  C_2 
REMARK    2  A    between atoms: O_6  and  C_8 
REMARK    3  A    between atoms: C_7  and  O_6 
REMARK    4  A    between atoms: O_10  and  C_9 
ROOT
ATOM      1  C   UNL d   1      45.923 -16.444  44.045  0.00  0.00     0.161 C 
ENDROOT
BRANCH   1   2
ATOM      2  O   UNL d   1      45.574 -16.022  44.576  0.00  0.00    -0.300 OA
BRANCH   2   3
ATOM      3  C   UNL d   1      45.647 -15.175  44.574  0.00  0.00     0.122 A 
ATOM      4  C   UNL d   1      45.018 -14.719  44.760  0.00  0.00     0.117 A 
ATOM      5  C   UNL d   1      45.100 -13.893  44.755  0.00  0.00     0.026 A 
ATOM      6  C   UNL d   1      45.827 -13.556  44.560  0.00  0.00     0.002 A 
ATOM      7  C   UNL d   1      46.497 -14.031  44.362  0.00  0.00     0.002 A 
ATOM      8  C   UNL d   1      46.385 -14.863  44.375  0.00  0.00     0.027 A 
BRANCH   4   9
ATOM      9  O   UNL d   1      44.294 -15.055  44.955  0.00  0.00    -0.326 OA
ATOM     10  C   UNL d   1      43.622 -14.615  44.953  0.00  0.00     0.181 C 
ENDBRANCH   4   9
ENDBRANCH   2   3
ENDBRANCH   1   2
BRANCH   1  11
ATOM     11  C   UNL d   1      46.045 -17.225  44.190  0.00  0.00     0.188 A 
ATOM     12  N   UNL d   1      46.110 -17.916  44.632  0.00  0.00    -0.224 NA
ATOM     13  C   UNL d   1      46.289 -18.529  44.138  0.00  0.00     0.101 A 
ATOM     14  C   UNL d   1      46.341 -18.228  43.372  0.00  0.00     0.101 A 
ATOM     15  C   UNL d   1      46.419 -19.321  44.245  0.00  0.00     0.021 A 
ATOM     16  C   UNL d   1      46.519 -18.729  42.742  0.00  0.00     0.021 A 
ATOM     17  N   UNL d   1      46.191 -17.434  43.407  0.00  0.00    -0.224 NA
ATOM     18  C   UNL d   1      46.646 -19.534  42.878  0.00  0.00     0.002 A 
ATOM     19  C   UNL d   1      46.595 -19.835  43.645  0.00  0.00     0.002 A 
ENDBRANCH   1  11
TORSDOF 4
ENDMDL
