MODEL 1
REMARK VINA RESULT:     -10.3      0.000      0.000
REMARK  5 active torsions:
REMARK  status: ('A' for Active; 'I' for Inactive)
REMARK    1  A    between atoms: C_8  and  N_1 
REMARK    2  A    between atoms: C_6  and  C_2 
REMARK    3  A    between atoms: C_9  and  C_6 
REMARK    4  A    between atoms: C_7  and  C_9 
REMARK    5  A    between atoms: C_14  and  C_8 
ROOT
ATOM      1  N   UNL d   1      53.161  32.885  53.435  0.00  0.00    -0.289 N 
ATOM      2  C   UNL d   1      52.483  33.348  53.460  0.00  0.00     0.148 A 
ATOM      3  N   UNL d   1      52.589  33.921  54.077  0.00  0.00    -0.227 NA
ATOM      4  C   UNL d   1      53.702  33.140  54.016  0.00  0.00     0.083 A 
ATOM      5  C   UNL d   1      53.315  33.795  54.406  0.00  0.00     0.099 A 
ATOM      6  C   UNL d   1      54.455  32.884  54.235  0.00  0.00     0.019 A 
ATOM      7  C   UNL d   1      53.741  34.175  55.036  0.00  0.00     0.021 A 
ATOM      8  C   UNL d   1      54.833  33.259  54.831  0.00  0.00     0.002 A 
ATOM      9  C   UNL d   1      54.482  33.894  55.225  0.00  0.00     0.002 A 
ENDROOT
BRANCH   1  10
ATOM     10  C   UNL d   1      53.121  32.318  52.864  0.00  0.00     0.082 C 
BRANCH  10  11
ATOM     11  C   UNL d   1      53.079  31.534  53.090  0.00  0.00     0.018 A 
ATOM     12  C   UNL d   1      52.355  31.199  53.296  0.00  0.00     0.002 A 
ATOM     13  C   UNL d   1      52.330  30.381  53.529  0.00  0.00     0.000 A 
ATOM     14  C   UNL d   1      53.017  29.925  53.550  0.00  0.00     0.000 A 
ATOM     15  C   UNL d   1      53.741  30.260  53.344  0.00  0.00     0.000 A 
ATOM     16  C   UNL d   1      52.967  29.154  53.774  0.00  0.00     0.000 C 
ATOM     17  C   UNL d   1      53.779  31.052  53.116  0.00  0.00     0.002 A 
ENDBRANCH  10  11
ENDBRANCH   1  10
BRANCH   2  18
ATOM     18  C   UNL d   1      51.747  33.451  53.101  0.00  0.00     0.039 C 
BRANCH  18  19
ATOM     19  C   UNL d   1      51.493  34.202  52.905  0.00  0.00     0.028 C 
BRANCH  19  20
ATOM     20  C   UNL d   1      50.775  34.304  52.507  0.00  0.00     0.100 A 
ATOM     21  O   UNL d   1      50.648  34.245  51.693  0.00  0.00    -0.305 OA
ATOM     22  C   UNL d   1      49.847  34.390  51.552  0.00  0.00     0.123 A 
ATOM     23  C   UNL d   1      49.470  34.540  52.270  0.00  0.00     0.029 A 
ATOM     24  C   UNL d   1      50.060  34.483  52.863  0.00  0.00     0.027 A 
ENDBRANCH  19  20
ENDBRANCH  18  19
ENDBRANCH   2  18
TORSDOF 5
ENDMDL
MODEL 2
REMARK VINA RESULT:      -9.6      1.295      3.812
REMARK  5 active torsions:
REMARK  status: ('A' for Active; 'I' for Inactive)
REMARK    1  A    between atoms: C_8  and  N_1 
REMARK    2  A    between atoms: C_6  and  C_2 
REMARK    3  A    between atoms: C_9  and  C_6 
REMARK    4  A    between atoms: C_7  and  C_9 
REMARK    5  A    between atoms: C_14  and  C_8 
ROOT
ATOM      1  N   UNL d   1      53.305  32.850  53.511  0.00  0.00    -0.289 N 
ATOM      2  C   UNL d   1      53.355  32.074  53.775  0.00  0.00     0.148 A 
ATOM      3  N   UNL d   1      53.811  32.079  54.491  0.00  0.00    -0.227 NA
ATOM      4  C   UNL d   1      53.714  33.356  54.032  0.00  0.00     0.083 A 
ATOM      5  C   UNL d   1      54.024  32.842  54.641  0.00  0.00     0.099 A 
ATOM      6  C   UNL d   1      53.844  34.171  54.039  0.00  0.00     0.019 A 
ATOM      7  C   UNL d   1      54.475  33.209  55.262  0.00  0.00     0.021 A 
ATOM      8  C   UNL d   1      54.272  34.489  54.635  0.00  0.00     0.002 A 
ATOM      9  C   UNL d   1      54.582  34.016  55.236  0.00  0.00     0.002 A 
ENDROOT
BRANCH   1  10
ATOM     10  C   UNL d   1      52.880  32.912  52.828  0.00  0.00     0.082 C 
BRANCH  10  11
ATOM     11  C   UNL d   1      52.168  33.311  52.843  0.00  0.00     0.018 A 
ATOM     12  C   UNL d   1      51.526  33.002  53.257  0.00  0.00     0.002 A 
ATOM     13  C   UNL d   1      50.791  33.432  53.262  0.00  0.00     0.000 A 
ATOM     14  C   UNL d   1      50.717  34.148  52.859  0.00  0.00     0.000 A 
ATOM     15  C   UNL d   1      51.359  34.457  52.445  0.00  0.00     0.000 A 
ATOM     16  C   UNL d   1      50.012  34.535  52.878  0.00  0.00     0.000 C 
ATOM     17  C   UNL d   1      52.077  34.050  52.432  0.00  0.00     0.002 A 
ENDBRANCH  10  11
ENDBRANCH   1  10
BRANCH   2  18
ATOM     18  C   UNL d   1      53.121  31.304  53.594  0.00  0.00     0.039 C 
BRANCH  18  19
ATOM     19  C   UNL d   1      53.609  30.677  53.783  0.00  0.00     0.028 C 
BRANCH  19  20
ATOM     20  C   UNL d   1      53.303  29.909  53.810  0.00  0.00     0.100 A 
ATOM     21  O   UNL d   1      52.736  29.585  53.306  0.00  0.00    -0.305 OA
ATOM     22  C   UNL d   1      52.604  28.804  53.545  0.00  0.00     0.123 A 
ATOM     23  C   UNL d   1      53.083  28.636  54.194  0.00  0.00     0.029 A 
ATOM     24  C   UNL d   1      53.517  29.335  54.353  0.00  0.00     0.027 A 
ENDBRANCH  19  20
ENDBRANCH  18  19
ENDBRANCH   2  18
TORSDOF 5
ENDMDL
MODEL 3
REMARK VINA RESULT:      -9.6      0.718      2.779
REMARK  5 active torsions:
REMARK  status: ('A' for Active; 'I' for Inactive)
REMARK    1  A    between atoms: C_8  and  N_1 
REMARK    2  A    between atoms: C_6  and  C_2 
REMARK    3  A    between atoms: C_9  and  C_6 
REMARK    4  A    between atoms: C_7  and  C_9 
REMARK    5  A    between atoms: C_14  and  C_8 
ROOT
ATOM      1  N   UNL d   1      53.012  32.361  53.149  0.00  0.00    -0.289 N 
ATOM      2  C   UNL d   1      52.213  32.551  53.146  0.00  0.00     0.148 A 
ATOM      3  N   UNL d   1      51.779  31.823  53.185  0.00  0.00    -0.227 NA
ATOM      4  C   UNL d   1      53.109  31.533  53.188  0.00  0.00     0.083 A 
ATOM      5  C   UNL d   1      52.314  31.219  53.210  0.00  0.00     0.099 A 
ATOM      6  C   UNL d   1      53.773  31.044  53.207  0.00  0.00     0.019 A 
ATOM      7  C   UNL d   1      52.234  30.374  53.251  0.00  0.00     0.021 A 
ATOM      8  C   UNL d   1      53.669  30.253  53.246  0.00  0.00     0.002 A 
ATOM      9  C   UNL d   1      52.912  29.923  53.267  0.00  0.00     0.002 A 
ENDROOT
BRANCH   1  10
ATOM     10  C   UNL d   1      53.481  33.016  53.114  0.00  0.00     0.082 C 
BRANCH  10  11
ATOM     11  C   UNL d   1      53.928  33.216  53.769  0.00  0.00     0.018 A 
ATOM     12  C   UNL d   1      53.563  33.495  54.453  0.00  0.00     0.002 A 
ATOM     13  C   UNL d   1      54.044  33.698  55.124  0.00  0.00     0.000 A 
ATOM     14  C   UNL d   1      54.865  33.619  55.097  0.00  0.00     0.000 A 
ATOM     15  C   UNL d   1      55.230  33.340  54.413  0.00  0.00     0.000 A 
ATOM     16  C   UNL d   1      55.298  33.818  55.745  0.00  0.00     0.000 C 
ATOM     17  C   UNL d   1      54.775  33.139  53.755  0.00  0.00     0.002 A 
ENDBRANCH  10  11
ENDBRANCH   1  10
BRANCH   2  18
ATOM     18  C   UNL d   1      51.693  33.191  53.120  0.00  0.00     0.039 C 
BRANCH  18  19
ATOM     19  C   UNL d   1      51.073  33.186  52.588  0.00  0.00     0.028 C 
BRANCH  19  20
ATOM     20  C   UNL d   1      50.539  33.818  52.570  0.00  0.00     0.100 A 
ATOM     21  O   UNL d   1      50.275  34.260  53.216  0.00  0.00    -0.305 OA
ATOM     22  C   UNL d   1      49.749  34.830  52.931  0.00  0.00     0.123 A 
ATOM     23  C   UNL d   1      49.681  34.751  52.113  0.00  0.00     0.029 A 
ATOM     24  C   UNL d   1      50.181  34.114  51.897  0.00  0.00     0.027 A 
ENDBRANCH  19  20
ENDBRANCH  18  19
ENDBRANCH   2  18
TORSDOF 5
ENDMDL
MODEL 4
REMARK VINA RESULT:      -9.0      1.565      4.141
REMARK  5 active torsions:
REMARK  status: ('A' for Active; 'I' for Inactive)
REMARK    1  A    between atoms: C_8  and  N_1 
REMARK    2  A    between atoms: C_6  and  C_2 
REMARK    3  A    between atoms: C_9  and  C_6 
REMARK    4  A    between atoms: C_7  and  C_9 
REMARK    5  A    between atoms: C_14  and  C_8 
ROOT
ATOM      1  N   UNL d   1      53.258  32.492  53.166  0.00  0.00    -0.289 N 
ATOM      2  C   UNL d   1      52.971  31.722  53.170  0.00  0.00     0.148 A 
ATOM      3  N   UNL d   1      52.130  31.764  53.058  0.00  0.00    -0.227 NA
ATOM      4  C   UNL d   1      52.630  33.030  53.054  0.00  0.00     0.083 A 
ATOM      5  C   UNL d   1      51.930  32.543  52.989  0.00  0.00     0.099 A 
ATOM      6  C   UNL d   1      52.596  33.852  53.004  0.00  0.00     0.019 A 
ATOM      7  C   UNL d   1      51.190  32.944  52.870  0.00  0.00     0.021 A 
ATOM      8  C   UNL d   1      51.887  34.204  52.892  0.00  0.00     0.002 A 
ATOM      9  C   UNL d   1      51.196  33.758  52.826  0.00  0.00     0.002 A 
ENDROOT
BRANCH   1  10
ATOM     10  C   UNL d   1      54.056  32.519  53.269  0.00  0.00     0.082 C 
BRANCH  10  11
ATOM     11  C   UNL d   1      54.355  32.891  53.932  0.00  0.00     0.018 A 
ATOM     12  C   UNL d   1      54.114  32.657  54.684  0.00  0.00     0.002 A 
ATOM     13  C   UNL d   1      54.436  33.056  55.364  0.00  0.00     0.000 A 
ATOM     14  C   UNL d   1      54.982  33.669  55.276  0.00  0.00     0.000 A 
ATOM     15  C   UNL d   1      55.223  33.903  54.524  0.00  0.00     0.000 A 
ATOM     16  C   UNL d   1      55.272  34.030  55.933  0.00  0.00     0.000 C 
ATOM     17  C   UNL d   1      54.918  33.524  53.857  0.00  0.00     0.002 A 
ENDBRANCH  10  11
ENDBRANCH   1  10
BRANCH   2  18
ATOM     18  C   UNL d   1      53.208  30.935  53.245  0.00  0.00     0.039 C 
BRANCH  18  19
ATOM     19  C   UNL d   1      52.680  30.379  53.526  0.00  0.00     0.028 C 
BRANCH  19  20
ATOM     20  C   UNL d   1      52.959  29.717  53.937  0.00  0.00     0.100 A 
ATOM     21  O   UNL d   1      52.794  29.515  54.720  0.00  0.00    -0.305 OA
ATOM     22  C   UNL d   1      53.193  28.811  54.888  0.00  0.00     0.123 A 
ATOM     23  C   UNL d   1      53.607  28.569  54.218  0.00  0.00     0.029 A 
ATOM     24  C   UNL d   1      53.454  29.144  53.626  0.00  0.00     0.027 A 
ENDBRANCH  19  20
ENDBRANCH  18  19
ENDBRANCH   2  18
TORSDOF 5
ENDMDL
