MODEL 1
REMARK VINA RESULT:      -1.5      0.000      0.000
REMARK  3 active torsions:
REMARK  status: ('A' for Active; 'I' for Inactive)
REMARK    1  A    between atoms: N_2  and  C_1 
REMARK    2  A    between atoms: C_4  and  C_1 
REMARK       I    between atoms: C_3  and  N_2 
REMARK       I    between atoms: N_5  and  C_3 
REMARK       I    between atoms: C_6  and  N_5 
REMARK    3  A    between atoms: C_11  and  C_6 
ROOT
ATOM      1  N   UNL d   1      59.124  -0.519  29.474  0.00  0.00    -0.159 NA
ATOM      2  C   UNL d   1      58.953  -1.254  29.116  0.00  0.00     0.371 C 
ATOM      3  N   UNL d   1      59.566  -1.732  28.834  0.00  0.00    -0.152 NA
ATOM      4  C   UNL d   1      60.359  -1.481  28.906  0.00  0.00     0.283 C 
ATOM      5  O   UNL d   1      58.188  -1.476  29.057  0.00  0.00    -0.243 OA
ATOM      6  O   UNL d   1      60.961  -1.949  28.629  0.00  0.00    -0.265 OA
ENDROOT
BRANCH   1   7
ATOM      7  C   UNL d   1      58.514  -0.040  29.757  0.00  0.00     0.386 A 
ATOM      8  O   UNL d   1      58.715  -0.152  28.958  0.00  0.00    -0.281 OA
ATOM      9  C   UNL d   1      58.202   0.297  28.502  0.00  0.00     0.147 A 
ATOM     10  C   UNL d   1      57.690   0.682  29.002  0.00  0.00     0.147 A 
ATOM     11  O   UNL d   1      57.901   0.457  29.783  0.00  0.00    -0.281 OA
BRANCH   7  12
ATOM     12  C   UNL d   1      58.513  -0.095  30.584  0.00  0.00     0.470 C 
ATOM     13  F   UNL d   1      58.811   0.679  30.634  0.00  0.00    -0.164 F 
ATOM     14  F   UNL d   1      58.214  -0.871  30.519  0.00  0.00    -0.164 F 
ATOM     15  F   UNL d   1      58.509  -0.160  31.421  0.00  0.00    -0.164 F 
ENDBRANCH   7  12
ENDBRANCH   1   7
BRANCH   4  16
ATOM     16  C   UNL d   1      60.539  -0.762  29.255  0.00  0.00     0.058 A 
ATOM     17  C   UNL d   1      60.611  -0.082  28.794  0.00  0.00     0.005 A 
ATOM     18  C   UNL d   1      60.792   0.645  29.135  0.00  0.00     0.000 A 
ATOM     19  C   UNL d   1      60.901   0.682  29.957  0.00  0.00     0.000 A 
ATOM     20  C   UNL d   1      60.830   0.004  30.421  0.00  0.00     0.000 A 
ATOM     21  C   UNL d   1      60.652  -0.708  30.073  0.00  0.00     0.005 A 
ENDBRANCH   4  16
TORSDOF 3
ENDMDL
MODEL 2
REMARK VINA RESULT:      -1.1      1.379      2.594
REMARK  3 active torsions:
REMARK  status: ('A' for Active; 'I' for Inactive)
REMARK    1  A    between atoms: N_2  and  C_1 
REMARK    2  A    between atoms: C_4  and  C_1 
REMARK       I    between atoms: C_3  and  N_2 
REMARK       I    between atoms: N_5  and  C_3 
REMARK       I    between atoms: C_6  and  N_5 
REMARK    3  A    between atoms: C_11  and  C_6 
ROOT
ATOM      1  N   UNL d   1      58.861  -1.193  29.623  0.00  0.00    -0.159 NA
ATOM      2  C   UNL d   1      58.252  -1.431  30.142  0.00  0.00     0.371 C 
ATOM      3  N   UNL d   1      57.742  -0.868  30.470  0.00  0.00    -0.152 NA
ATOM      4  C   UNL d   1      57.836  -0.060  30.283  0.00  0.00     0.283 C 
ATOM      5  O   UNL d   1      58.180  -2.208  30.309  0.00  0.00    -0.243 OA
ATOM      6  O   UNL d   1      57.336   0.494  30.604  0.00  0.00    -0.265 OA
ENDROOT
BRANCH   1   7
ATOM      7  C   UNL d   1      59.372  -1.753  29.294  0.00  0.00     0.386 A 
ATOM      8  O   UNL d   1      58.553  -1.700  29.157  0.00  0.00    -0.281 OA
ATOM      9  C   UNL d   1      58.343  -2.301  28.639  0.00  0.00     0.147 A 
ATOM     10  C   UNL d   1      59.013  -2.721  28.455  0.00  0.00     0.147 A 
ATOM     11  O   UNL d   1      59.646  -2.363  28.875  0.00  0.00    -0.281 OA
BRANCH   7  12
ATOM     12  C   UNL d   1      60.134  -1.599  29.582  0.00  0.00     0.470 C 
ATOM     13  F   UNL d   1      60.343  -1.272  28.848  0.00  0.00    -0.164 F 
ATOM     14  F   UNL d   1      59.908  -1.930  30.314  0.00  0.00    -0.164 F 
ATOM     15  F   UNL d   1      60.902  -1.447  29.882  0.00  0.00    -0.164 F 
ENDBRANCH   7  12
ENDBRANCH   1   7
BRANCH   4  16
ATOM     16  C   UNL d   1      58.429   0.185  29.774  0.00  0.00     0.058 A 
ATOM     17  C   UNL d   1      59.174   0.381  30.069  0.00  0.00     0.005 A 
ATOM     18  C   UNL d   1      59.778   0.628  29.567  0.00  0.00     0.000 A 
ATOM     19  C   UNL d   1      59.622   0.677  28.753  0.00  0.00     0.000 A 
ATOM     20  C   UNL d   1      58.879   0.482  28.455  0.00  0.00     0.000 A 
ATOM     21  C   UNL d   1      58.291   0.240  28.961  0.00  0.00     0.005 A 
ENDBRANCH   4  16
TORSDOF 3
ENDMDL
MODEL 3
REMARK VINA RESULT:      -1.0      0.912      1.877
REMARK  3 active torsions:
REMARK  status: ('A' for Active; 'I' for Inactive)
REMARK    1  A    between atoms: N_2  and  C_1 
REMARK    2  A    between atoms: C_4  and  C_1 
REMARK       I    between atoms: C_3  and  N_2 
REMARK       I    between atoms: N_5  and  C_3 
REMARK       I    between atoms: C_6  and  N_5 
REMARK    3  A    between atoms: C_11  and  C_6 
ROOT
ATOM      1  N   UNL d   1      59.043  -0.651  29.593  0.00  0.00    -0.159 NA
ATOM      2  C   UNL d   1      59.770  -0.241  29.602  0.00  0.00     0.371 C 
ATOM      3  N   UNL d   1      60.467  -0.626  29.378  0.00  0.00    -0.152 NA
ATOM      4  C   UNL d   1      60.445  -1.426  29.143  0.00  0.00     0.283 C 
ATOM      5  O   UNL d   1      59.769   0.524  29.829  0.00  0.00    -0.243 OA
ATOM      6  O   UNL d   1      61.129  -1.805  28.923  0.00  0.00    -0.265 OA
ENDROOT
BRANCH   1   7
ATOM      7  C   UNL d   1      58.345  -0.269  29.816  0.00  0.00     0.386 A 
ATOM      8  O   UNL d   1      58.778  -0.126  29.120  0.00  0.00    -0.281 OA
ATOM      9  C   UNL d   1      58.390   0.460  28.697  0.00  0.00     0.147 A 
ATOM     10  C   UNL d   1      57.730   0.680  29.115  0.00  0.00     0.147 A 
ATOM     11  O   UNL d   1      57.720   0.213  29.812  0.00  0.00    -0.281 OA
BRANCH   7  12
ATOM     12  C   UNL d   1      58.107  -0.584  30.545  0.00  0.00     0.470 C 
ATOM     13  F   UNL d   1      57.519  -1.026  30.161  0.00  0.00    -0.164 F 
ATOM     14  F   UNL d   1      58.702  -0.133  30.918  0.00  0.00    -0.164 F 
ATOM     15  F   UNL d   1      57.874  -0.897  31.288  0.00  0.00    -0.164 F 
ENDBRANCH   7  12
ENDBRANCH   1   7
BRANCH   4  16
ATOM     16  C   UNL d   1      59.738  -1.839  29.131  0.00  0.00     0.058 A 
ATOM     17  C   UNL d   1      59.238  -1.788  28.477  0.00  0.00     0.005 A 
ATOM     18  C   UNL d   1      58.525  -2.198  28.455  0.00  0.00     0.000 A 
ATOM     19  C   UNL d   1      58.316  -2.668  29.107  0.00  0.00     0.000 A 
ATOM     20  C   UNL d   1      58.814  -2.722  29.762  0.00  0.00     0.000 A 
ATOM     21  C   UNL d   1      59.515  -2.312  29.772  0.00  0.00     0.005 A 
ENDBRANCH   4  16
TORSDOF 3
ENDMDL
MODEL 4
REMARK VINA RESULT:      -0.8      1.151      2.288
REMARK  3 active torsions:
REMARK  status: ('A' for Active; 'I' for Inactive)
REMARK    1  A    between atoms: N_2  and  C_1 
REMARK    2  A    between atoms: C_4  and  C_1 
REMARK       I    between atoms: C_3  and  N_2 
REMARK       I    between atoms: N_5  and  C_3 
REMARK       I    between atoms: C_6  and  N_5 
REMARK    3  A    between atoms: C_11  and  C_6 
ROOT
ATOM      1  N   UNL d   1      59.842  -0.573  29.618  0.00  0.00    -0.159 NA
ATOM      2  C   UNL d   1      60.028  -1.331  29.323  0.00  0.00     0.371 C 
ATOM      3  N   UNL d   1      59.427  -1.879  29.175  0.00  0.00    -0.152 NA
ATOM      4  C   UNL d   1      58.630  -1.675  29.320  0.00  0.00     0.283 C 
ATOM      5  O   UNL d   1      60.796  -1.507  29.190  0.00  0.00    -0.243 OA
ATOM      6  O   UNL d   1      58.039  -2.212  29.175  0.00  0.00    -0.265 OA
ENDROOT
BRANCH   1   7
ATOM      7  C   UNL d   1      60.441  -0.024  29.766  0.00  0.00     0.386 A 
ATOM      8  O   UNL d   1      60.141  -0.227  29.018  0.00  0.00    -0.281 OA
ATOM      9  C   UNL d   1      60.544   0.213  28.455  0.00  0.00     0.147 A 
ATOM     10  C   UNL d   1      61.084   0.682  28.840  0.00  0.00     0.147 A 
ATOM     11  O   UNL d   1      61.004   0.519  29.660  0.00  0.00    -0.281 OA
BRANCH   7  12
ATOM     12  C   UNL d   1      60.561   0.003  30.586  0.00  0.00     0.470 C 
ATOM     13  F   UNL d   1      60.085   0.682  30.633  0.00  0.00    -0.164 F 
ATOM     14  F   UNL d   1      61.036  -0.681  30.524  0.00  0.00    -0.164 F 
ATOM     15  F   UNL d   1      60.688   0.020  31.416  0.00  0.00    -0.164 F 
ENDBRANCH   7  12
ENDBRANCH   1   7
BRANCH   4  16
ATOM     16  C   UNL d   1      58.435  -0.934  29.610  0.00  0.00     0.058 A 
ATOM     17  C   UNL d   1      58.358  -0.295  29.095  0.00  0.00     0.005 A 
ATOM     18  C   UNL d   1      58.162   0.454  29.376  0.00  0.00     0.000 A 
ATOM     19  C   UNL d   1      58.043   0.554  30.192  0.00  0.00     0.000 A 
ATOM     20  C   UNL d   1      58.120  -0.083  30.708  0.00  0.00     0.000 A 
ATOM     21  C   UNL d   1      58.314  -0.817  30.420  0.00  0.00     0.005 A 
ENDBRANCH   4  16
TORSDOF 3
ENDMDL
MODEL 5
REMARK VINA RESULT:      -0.6      1.496      2.176
REMARK  3 active torsions:
REMARK  status: ('A' for Active; 'I' for Inactive)
REMARK    1  A    between atoms: N_2  and  C_1 
REMARK    2  A    between atoms: C_4  and  C_1 
REMARK       I    between atoms: C_3  and  N_2 
REMARK       I    between atoms: N_5  and  C_3 
REMARK       I    between atoms: C_6  and  N_5 
REMARK    3  A    between atoms: C_11  and  C_6 
ROOT
ATOM      1  N   UNL d   1      59.265  -0.700  29.415  0.00  0.00    -0.159 NA
ATOM      2  C   UNL d   1      58.452  -0.804  29.256  0.00  0.00     0.371 C 
ATOM      3  N   UNL d   1      58.168  -1.541  29.012  0.00  0.00    -0.152 NA
ATOM      4  C   UNL d   1      58.693  -2.184  28.924  0.00  0.00     0.283 C 
ATOM      5  O   UNL d   1      57.966  -0.177  29.346  0.00  0.00    -0.243 OA
ATOM      6  O   UNL d   1      58.415  -2.908  28.684  0.00  0.00    -0.265 OA
ENDROOT
BRANCH   1   7
ATOM      7  C   UNL d   1      59.552   0.035  29.659  0.00  0.00     0.386 A 
ATOM      8  O   UNL d   1      59.039  -0.456  30.092  0.00  0.00    -0.281 OA
ATOM      9  C   UNL d   1      58.869  -0.081  30.802  0.00  0.00     0.147 A 
ATOM     10  C   UNL d   1      59.265   0.627  30.815  0.00  0.00     0.147 A 
ATOM     11  O   UNL d   1      59.687   0.682  30.092  0.00  0.00    -0.281 OA
BRANCH   7  12
ATOM     12  C   UNL d   1      60.043   0.327  29.058  0.00  0.00     0.470 C 
ATOM     13  F   UNL d   1      59.375   0.472  28.586  0.00  0.00    -0.164 F 
ATOM     14  F   UNL d   1      60.704   0.175  29.544  0.00  0.00    -0.164 F 
ATOM     15  F   UNL d   1      60.548   0.620  28.455  0.00  0.00    -0.164 F 
ENDBRANCH   7  12
ENDBRANCH   1   7
BRANCH   4  16
ATOM     16  C   UNL d   1      59.493  -2.094  29.077  0.00  0.00     0.058 A 
ATOM     17  C   UNL d   1      59.791  -2.248  29.830  0.00  0.00     0.005 A 
ATOM     18  C   UNL d   1      60.593  -2.160  29.995  0.00  0.00     0.000 A 
ATOM     19  C   UNL d   1      61.099  -1.912  29.385  0.00  0.00     0.000 A 
ATOM     20  C   UNL d   1      60.804  -1.758  28.631  0.00  0.00     0.000 A 
ATOM     21  C   UNL d   1      60.011  -1.848  28.481  0.00  0.00     0.005 A 
ENDBRANCH   4  16
TORSDOF 3
ENDMDL
MODEL 6
REMARK VINA RESULT:      -0.5      3.337      4.853
REMARK  3 active torsions:
REMARK  status: ('A' for Active; 'I' for Inactive)
REMARK    1  A    between atoms: N_2  and  C_1 
REMARK    2  A    between atoms: C_4  and  C_1 
REMARK       I    between atoms: C_3  and  N_2 
REMARK       I    between atoms: N_5  and  C_3 
REMARK       I    between atoms: C_6  and  N_5 
REMARK    3  A    between atoms: C_11  and  C_6 
ROOT
ATOM      1  N   UNL d   1      57.018  -0.179  32.568  0.00  0.00    -0.159 NA
ATOM      2  C   UNL d   1      57.760   0.084  32.846  0.00  0.00     0.371 C 
ATOM      3  N   UNL d   1      57.837   0.371  33.618  0.00  0.00    -0.152 NA
ATOM      4  C   UNL d   1      57.171   0.399  34.122  0.00  0.00     0.283 C 
ATOM      5  O   UNL d   1      58.384   0.049  32.349  0.00  0.00    -0.243 OA
ATOM      6  O   UNL d   1      57.246   0.681  34.880  0.00  0.00    -0.265 OA
ENDROOT
BRANCH   1   7
ATOM      7  C   UNL d   1      56.938  -0.466  31.798  0.00  0.00     0.386 A 
ATOM      8  O   UNL d   1      57.234   0.282  32.011  0.00  0.00    -0.281 OA
ATOM      9  C   UNL d   1      57.433   0.681  31.323  0.00  0.00     0.147 A 
ATOM     10  C   UNL d   1      57.265   0.197  30.692  0.00  0.00     0.147 A 
ATOM     11  O   UNL d   1      56.957  -0.515  31.010  0.00  0.00    -0.281 OA
BRANCH   7  12
ATOM     12  C   UNL d   1      56.622  -1.231  31.845  0.00  0.00     0.470 C 
ATOM     13  F   UNL d   1      57.366  -1.523  32.070  0.00  0.00    -0.164 F 
ATOM     14  F   UNL d   1      55.880  -0.922  31.619  0.00  0.00    -0.164 F 
ATOM     15  F   UNL d   1      56.292  -2.001  31.891  0.00  0.00    -0.164 F 
ENDBRANCH   7  12
ENDBRANCH   1   7
BRANCH   4  16
ATOM     16  C   UNL d   1      56.438   0.144  33.860  0.00  0.00     0.058 A 
ATOM     17  C   UNL d   1      55.905   0.681  33.532  0.00  0.00     0.005 A 
ATOM     18  C   UNL d   1      55.166   0.435  33.266  0.00  0.00     0.000 A 
ATOM     19  C   UNL d   1      54.965  -0.368  33.334  0.00  0.00     0.000 A 
ATOM     20  C   UNL d   1      55.496  -0.906  33.662  0.00  0.00     0.000 A 
ATOM     21  C   UNL d   1      56.223  -0.652  33.921  0.00  0.00     0.005 A 
ENDBRANCH   4  16
TORSDOF 3
ENDMDL
MODEL 7
REMARK VINA RESULT:      -0.5      1.234      2.213
REMARK  3 active torsions:
REMARK  status: ('A' for Active; 'I' for Inactive)
REMARK    1  A    between atoms: N_2  and  C_1 
REMARK    2  A    between atoms: C_4  and  C_1 
REMARK       I    between atoms: C_3  and  N_2 
REMARK       I    between atoms: N_5  and  C_3 
REMARK       I    between atoms: C_6  and  N_5 
REMARK    3  A    between atoms: C_11  and  C_6 
ROOT
ATOM      1  N   UNL d   1      59.460  -1.243  29.421  0.00  0.00    -0.159 NA
ATOM      2  C   UNL d   1      60.278  -1.393  29.493  0.00  0.00     0.371 C 
ATOM      3  N   UNL d   1      60.820  -0.768  29.459  0.00  0.00    -0.152 NA
ATOM      4  C   UNL d   1      60.549   0.014  29.351  0.00  0.00     0.283 C 
ATOM      5  O   UNL d   1      60.517  -2.148  29.595  0.00  0.00    -0.243 OA
ATOM      6  O   UNL d   1      61.079   0.627  29.318  0.00  0.00    -0.265 OA
ENDROOT
BRANCH   1   7
ATOM      7  C   UNL d   1      58.917  -1.866  29.454  0.00  0.00     0.386 A 
ATOM      8  O   UNL d   1      59.561  -1.808  28.930  0.00  0.00    -0.281 OA
ATOM      9  C   UNL d   1      59.561  -2.477  28.455  0.00  0.00     0.147 A 
ATOM     10  C   UNL d   1      58.933  -2.943  28.675  0.00  0.00     0.147 A 
ATOM     11  O   UNL d   1      58.543  -2.543  29.301  0.00  0.00    -0.281 OA
BRANCH   7  12
ATOM     12  C   UNL d   1      58.373  -1.692  30.055  0.00  0.00     0.470 C 
ATOM     13  F   UNL d   1      57.778  -1.589  29.485  0.00  0.00    -0.164 F 
ATOM     14  F   UNL d   1      58.981  -1.799  30.617  0.00  0.00    -0.164 F 
ATOM     15  F   UNL d   1      57.830  -1.518  30.671  0.00  0.00    -0.164 F 
ENDBRANCH   7  12
ENDBRANCH   1   7
BRANCH   4  16
ATOM     16  C   UNL d   1      59.749   0.173  29.279  0.00  0.00     0.058 A 
ATOM     17  C   UNL d   1      59.386   0.151  28.539  0.00  0.00     0.005 A 
ATOM     18  C   UNL d   1      58.583   0.309  28.455  0.00  0.00     0.000 A 
ATOM     19  C   UNL d   1      58.141   0.492  29.134  0.00  0.00     0.000 A 
ATOM     20  C   UNL d   1      58.500   0.514  29.875  0.00  0.00     0.000 A 
ATOM     21  C   UNL d   1      59.294   0.356  29.945  0.00  0.00     0.005 A 
ENDBRANCH   4  16
TORSDOF 3
ENDMDL
MODEL 8
REMARK VINA RESULT:       0.6      3.593      4.543
REMARK  3 active torsions:
REMARK  status: ('A' for Active; 'I' for Inactive)
REMARK    1  A    between atoms: N_2  and  C_1 
REMARK    2  A    between atoms: C_4  and  C_1 
REMARK       I    between atoms: C_3  and  N_2 
REMARK       I    between atoms: N_5  and  C_3 
REMARK       I    between atoms: C_6  and  N_5 
REMARK    3  A    between atoms: C_11  and  C_6 
ROOT
ATOM      1  N   UNL d   1      56.273  -0.515  32.974  0.00  0.00    -0.159 NA
ATOM      2  C   UNL d   1      55.879  -1.241  32.857  0.00  0.00     0.371 C 
ATOM      3  N   UNL d   1      56.058  -1.710  32.199  0.00  0.00    -0.152 NA
ATOM      4  C   UNL d   1      56.634  -1.457  31.651  0.00  0.00     0.283 C 
ATOM      5  O   UNL d   1      55.331  -1.465  33.393  0.00  0.00    -0.243 OA
ATOM      6  O   UNL d   1      56.811  -1.916  31.005  0.00  0.00    -0.265 OA
ENDROOT
BRANCH   1   7
ATOM      7  C   UNL d   1      56.096  -0.045  33.631  0.00  0.00     0.386 A 
ATOM      8  O   UNL d   1      55.609  -0.157  32.966  0.00  0.00    -0.281 OA
ATOM      9  C   UNL d   1      54.923   0.280  33.078  0.00  0.00     0.147 A 
ATOM     10  C   UNL d   1      54.979   0.657  33.794  0.00  0.00     0.147 A 
ATOM     11  O   UNL d   1      55.719   0.442  34.125  0.00  0.00    -0.281 OA
BRANCH   7  12
ATOM     12  C   UNL d   1      56.736  -0.094  34.156  0.00  0.00     0.470 C 
ATOM     13  F   UNL d   1      56.506  -0.866  34.360  0.00  0.00    -0.164 F 
ATOM     14  F   UNL d   1      56.954   0.682  33.941  0.00  0.00    -0.164 F 
ATOM     15  F   UNL d   1      57.386  -0.135  34.685  0.00  0.00    -0.164 F 
ENDBRANCH   7  12
ENDBRANCH   1   7
BRANCH   4  16
ATOM     16  C   UNL d   1      57.027  -0.746  31.755  0.00  0.00     0.058 A 
ATOM     17  C   UNL d   1      56.713  -0.049  31.447  0.00  0.00     0.005 A 
ATOM     18  C   UNL d   1      57.100   0.671  31.547  0.00  0.00     0.000 A 
ATOM     19  C   UNL d   1      57.817   0.682  31.966  0.00  0.00     0.000 A 
ATOM     20  C   UNL d   1      58.134  -0.014  32.275  0.00  0.00     0.000 A 
ATOM     21  C   UNL d   1      57.742  -0.718  32.170  0.00  0.00     0.005 A 
ENDBRANCH   4  16
TORSDOF 3
ENDMDL
MODEL 9
REMARK VINA RESULT:       0.9      1.456      2.899
REMARK  3 active torsions:
REMARK  status: ('A' for Active; 'I' for Inactive)
REMARK    1  A    between atoms: N_2  and  C_1 
REMARK    2  A    between atoms: C_4  and  C_1 
REMARK       I    between atoms: C_3  and  N_2 
REMARK       I    between atoms: N_5  and  C_3 
REMARK       I    between atoms: C_6  and  N_5 
REMARK    3  A    between atoms: C_11  and  C_6 
ROOT
ATOM      1  N   UNL d   1      58.905  -0.158  29.982  0.00  0.00    -0.159 NA
ATOM      2  C   UNL d   1      59.665   0.105  30.209  0.00  0.00     0.371 C 
ATOM      3  N   UNL d   1      59.797   0.380  30.978  0.00  0.00    -0.152 NA
ATOM      4  C   UNL d   1      59.171   0.395  31.530  0.00  0.00     0.283 C 
ATOM      5  O   UNL d   1      60.250   0.082  29.667  0.00  0.00    -0.243 OA
ATOM      6  O   UNL d   1      59.300   0.665  32.285  0.00  0.00    -0.265 OA
ENDROOT
BRANCH   1   7
ATOM      7  C   UNL d   1      58.770  -0.433  29.215  0.00  0.00     0.386 A 
ATOM      8  O   UNL d   1      59.243  -0.804  29.790  0.00  0.00    -0.281 OA
ATOM      9  C   UNL d   1      59.550  -1.490  29.461  0.00  0.00     0.147 A 
ATOM     10  C   UNL d   1      59.277  -1.548  28.698  0.00  0.00     0.147 A 
ATOM     11  O   UNL d   1      58.792  -0.877  28.563  0.00  0.00    -0.281 OA
BRANCH   7  12
ATOM     12  C   UNL d   1      58.269   0.109  28.838  0.00  0.00     0.470 C 
ATOM     13  F   UNL d   1      57.639  -0.427  28.908  0.00  0.00    -0.164 F 
ATOM     14  F   UNL d   1      58.912   0.638  28.775  0.00  0.00    -0.164 F 
ATOM     15  F   UNL d   1      57.770   0.665  28.455  0.00  0.00    -0.164 F 
ENDBRANCH   7  12
ENDBRANCH   1   7
BRANCH   4  16
ATOM     16  C   UNL d   1      58.422   0.140  31.319  0.00  0.00     0.058 A 
ATOM     17  C   UNL d   1      57.856   0.682  31.061  0.00  0.00     0.005 A 
ATOM     18  C   UNL d   1      57.100   0.436  30.847  0.00  0.00     0.000 A 
ATOM     19  C   UNL d   1      56.916  -0.372  30.895  0.00  0.00     0.000 A 
ATOM     20  C   UNL d   1      57.480  -0.916  31.152  0.00  0.00     0.000 A 
ATOM     21  C   UNL d   1      58.222  -0.662  31.361  0.00  0.00     0.005 A 
ENDBRANCH   4  16
TORSDOF 3
ENDMDL
