MODEL 1
REMARK VINA RESULT:      -5.5      0.000      0.000
REMARK  6 active torsions:
REMARK  status: ('A' for Active; 'I' for Inactive)
REMARK    1  A    between atoms: S_6  and  C_1 
REMARK    2  A    between atoms: C_13  and  S_6 
REMARK    3  A    between atoms: C_7  and  O_9 
REMARK    4  A    between atoms: O_9  and  C_14 
REMARK    5  A    between atoms: C_10  and  C_13 
REMARK    6  A    between atoms: C_14  and  C_10 
ROOT
ATOM      1  C   UNL d   1     -41.483-122.673 -51.440  0.00  0.00     0.040 C 
ENDROOT
BRANCH   1   2
ATOM      2  C   UNL d   1     -41.434-122.512 -50.634  0.00  0.00     0.034 C 
BRANCH   2   3
ATOM      3  C   UNL d   1     -41.500-123.128 -50.088  0.00  0.00     0.123 C 
BRANCH   3   4
ATOM      4  O   UNL d   1     -42.128-123.123 -49.557  0.00  0.00    -0.305 OA
BRANCH   4   5
ATOM      5  C   UNL d   1     -41.999-123.298 -48.765  0.00  0.00     0.100 A 
ATOM      6  C   UNL d   1     -42.601-123.629 -48.313  0.00  0.00     0.023 A 
ATOM      7  C   UNL d   1     -43.339-123.790 -48.648  0.00  0.00     0.002 C 
ATOM      8  C   UNL d   1     -42.465-123.804 -47.511  0.00  0.00     0.002 A 
ATOM      9  C   UNL d   1     -41.731-123.646 -47.173  0.00  0.00     0.000 A 
ATOM     10  C   UNL d   1     -41.127-123.311 -47.637  0.00  0.00     0.002 A 
ATOM     11  C   UNL d   1     -41.259-123.136 -48.432  0.00  0.00     0.025 A 
ENDBRANCH   4   5
ENDBRANCH   3   4
ENDBRANCH   2   3
ENDBRANCH   1   2
BRANCH   1  12
ATOM     12  S   UNL d   1     -41.181-122.130 -51.980  0.00  0.00    -0.048 SA
BRANCH  12  13
ATOM     13  C   UNL d   1     -41.369-122.190 -52.779  0.00  0.00     0.194 A 
ATOM     14  N   UNL d   1     -41.123-122.783 -53.303  0.00  0.00    -0.220 NA
ATOM     15  C   UNL d   1     -41.446-122.617 -54.049  0.00  0.00     0.101 A 
ATOM     16  C   UNL d   1     -41.387-123.015 -54.768  0.00  0.00     0.021 A 
ATOM     17  C   UNL d   1     -41.895-121.920 -53.995  0.00  0.00     0.101 A 
ATOM     18  C   UNL d   1     -41.772-122.721 -55.432  0.00  0.00     0.002 A 
ATOM     19  C   UNL d   1     -42.216-122.030 -55.379  0.00  0.00     0.002 A 
ATOM     20  C   UNL d   1     -42.276-121.634 -54.662  0.00  0.00     0.021 A 
ATOM     21  N   UNL d   1     -41.847-121.652 -53.203  0.00  0.00    -0.220 NA
ENDBRANCH  12  13
ENDBRANCH   1  12
TORSDOF 6
ENDMDL
MODEL 2
REMARK VINA RESULT:      -5.3      1.695      5.744
REMARK  6 active torsions:
REMARK  status: ('A' for Active; 'I' for Inactive)
REMARK    1  A    between atoms: S_6  and  C_1 
REMARK    2  A    between atoms: C_13  and  S_6 
REMARK    3  A    between atoms: C_7  and  O_9 
REMARK    4  A    between atoms: O_9  and  C_14 
REMARK    5  A    between atoms: C_10  and  C_13 
REMARK    6  A    between atoms: C_14  and  C_10 
ROOT
ATOM      1  C   UNL d   1     -41.319-123.095 -50.990  0.00  0.00     0.040 C 
ENDROOT
BRANCH   1   2
ATOM      2  C   UNL d   1     -41.123-123.309 -51.760  0.00  0.00     0.034 C 
BRANCH   2   3
ATOM      3  C   UNL d   1     -41.467-122.912 -52.397  0.00  0.00     0.123 C 
BRANCH   3   4
ATOM      4  O   UNL d   1     -41.238-123.114 -53.161  0.00  0.00    -0.305 OA
BRANCH   4   5
ATOM      5  C   UNL d   1     -41.576-122.732 -53.805  0.00  0.00     0.100 A 
ATOM      6  C   UNL d   1     -41.539-123.074 -54.553  0.00  0.00     0.023 A 
ATOM      7  C   UNL d   1     -41.165-123.802 -54.664  0.00  0.00     0.002 C 
ATOM      8  C   UNL d   1     -41.883-122.683 -55.202  0.00  0.00     0.002 A 
ATOM      9  C   UNL d   1     -42.257-121.957 -55.095  0.00  0.00     0.000 A 
ATOM     10  C   UNL d   1     -42.290-121.617 -54.337  0.00  0.00     0.002 A 
ATOM     11  C   UNL d   1     -41.950-122.002 -53.691  0.00  0.00     0.025 A 
ENDBRANCH   4   5
ENDBRANCH   3   4
ENDBRANCH   2   3
ENDBRANCH   1   2
BRANCH   1  12
ATOM     12  S   UNL d   1     -41.766-123.610 -50.527  0.00  0.00    -0.048 SA
BRANCH  12  13
ATOM     13  C   UNL d   1     -41.793-123.517 -49.710  0.00  0.00     0.194 A 
ATOM     14  N   UNL d   1     -41.213-123.752 -49.165  0.00  0.00    -0.220 NA
ATOM     15  C   UNL d   1     -41.478-123.547 -48.406  0.00  0.00     0.101 A 
ATOM     16  C   UNL d   1     -41.133-123.646 -47.664  0.00  0.00     0.021 A 
ATOM     17  C   UNL d   1     -42.223-123.184 -48.472  0.00  0.00     0.101 A 
ATOM     18  C   UNL d   1     -41.525-123.386 -46.991  0.00  0.00     0.002 A 
ATOM     19  C   UNL d   1     -42.263-123.027 -47.056  0.00  0.00     0.002 A 
ATOM     20  C   UNL d   1     -42.607-122.927 -47.795  0.00  0.00     0.021 A 
ATOM     21  N   UNL d   1     -42.420-123.165 -49.286  0.00  0.00    -0.220 NA
ENDBRANCH  12  13
ENDBRANCH   1  12
TORSDOF 6
ENDMDL
