MODEL 1
REMARK VINA RESULT:      -3.1      0.000      0.000
REMARK  4 active torsions:
REMARK  status: ('A' for Active; 'I' for Inactive)
REMARK       I    between atoms: N_3  and  C_1 
REMARK       I    between atoms: N_7  and  C_1 
REMARK    1  A    between atoms: C_2  and  N_3 
REMARK    2  A    between atoms: C_4  and  C_5 
REMARK    3  A    between atoms: O_13  and  C_4 
REMARK    4  A    between atoms: C_15  and  N_7 
ROOT
ATOM      1  C   UNL d   1     -42.299-122.111 -50.743  0.00  0.00     0.097 A 
ATOM      2  C   UNL d   1     -42.105-122.800 -49.508  0.00  0.00     0.065 A 
ATOM      3  C   UNL d   1     -41.804-122.511 -50.220  0.00  0.00     0.025 A 
ATOM      4  C   UNL d   1     -43.095-122.000 -50.555  0.00  0.00     0.075 A 
ATOM      5  C   UNL d   1     -42.909-122.687 -49.319  0.00  0.00     0.006 A 
ATOM      6  C   UNL d   1     -43.397-122.288 -49.845  0.00  0.00     0.013 A 
ATOM      7 CL   UNL d   1     -43.591-121.597 -51.083  0.00  0.00    -0.081 Cl
ENDROOT
BRANCH   1   8
ATOM      8  N   UNL d   1     -41.998-121.823 -51.454  0.00  0.00    -0.190 NA
ATOM      9  C   UNL d   1     -41.941-122.321 -52.108  0.00  0.00     0.369 C 
ATOM     10  N   UNL d   1     -41.639-122.028 -52.820  0.00  0.00    -0.191 NA
ATOM     11  O   UNL d   1     -42.186-123.107 -52.052  0.00  0.00    -0.242 OA
BRANCH  10  12
ATOM     12  C   UNL d   1     -41.582-122.526 -53.478  0.00  0.00     0.086 A 
ATOM     13  C   UNL d   1     -41.934-122.299 -54.194  0.00  0.00     0.019 A 
ATOM     14  C   UNL d   1     -41.871-122.804 -54.844  0.00  0.00     0.002 A 
ATOM     15  C   UNL d   1     -41.465-123.521 -54.784  0.00  0.00     0.000 A 
ATOM     16  C   UNL d   1     -41.123-123.734 -54.074  0.00  0.00     0.002 A 
ATOM     17  C   UNL d   1     -41.176-123.244 -53.418  0.00  0.00     0.019 A 
ENDBRANCH  10  12
ENDBRANCH   1   8
BRANCH   2  18
ATOM     18  C   UNL d   1     -41.608-123.205 -48.977  0.00  0.00     0.296 C 
ATOM     19  O   UNL d   1     -41.127-123.817 -49.252  0.00  0.00    -0.259 OA
BRANCH  18  20
ATOM     20  O   UNL d   1     -41.596-122.995 -48.181  0.00  0.00    -0.296 OA
ATOM     21  C   UNL d   1     -41.241-123.494 -47.626  0.00  0.00     0.185 C 
ENDBRANCH  18  20
ENDBRANCH   2  18
TORSDOF 4
ENDMDL
MODEL 2
REMARK VINA RESULT:      -2.6      1.407      4.486
REMARK  4 active torsions:
REMARK  status: ('A' for Active; 'I' for Inactive)
REMARK       I    between atoms: N_3  and  C_1 
REMARK       I    between atoms: N_7  and  C_1 
REMARK    1  A    between atoms: C_2  and  N_3 
REMARK    2  A    between atoms: C_4  and  C_5 
REMARK    3  A    between atoms: O_13  and  C_4 
REMARK    4  A    between atoms: C_15  and  N_7 
ROOT
ATOM      1  C   UNL d   1     -41.293-122.414 -51.997  0.00  0.00     0.097 A 
ATOM      2  C   UNL d   1     -41.619-122.489 -53.384  0.00  0.00     0.065 A 
ATOM      3  C   UNL d   1     -41.456-122.864 -52.668  0.00  0.00     0.025 A 
ATOM      4  C   UNL d   1     -41.292-121.589 -52.041  0.00  0.00     0.075 A 
ATOM      5  C   UNL d   1     -41.619-121.656 -53.429  0.00  0.00     0.006 A 
ATOM      6  C   UNL d   1     -41.455-121.214 -52.757  0.00  0.00     0.013 A 
ATOM      7 CL   UNL d   1     -41.128-121.139 -51.366  0.00  0.00    -0.081 Cl
ENDROOT
BRANCH   1   8
ATOM      8  N   UNL d   1     -41.130-122.789 -51.280  0.00  0.00    -0.190 NA
ATOM      9  C   UNL d   1     -41.725-122.872 -50.716  0.00  0.00     0.369 C 
ATOM     10  N   UNL d   1     -41.558-123.249 -49.999  0.00  0.00    -0.191 NA
ATOM     11  O   UNL d   1     -42.483-122.581 -50.868  0.00  0.00    -0.242 OA
BRANCH  10  12
ATOM     12  C   UNL d   1     -42.154-123.334 -49.432  0.00  0.00     0.086 A 
ATOM     13  C   UNL d   1     -42.851-123.739 -49.629  0.00  0.00     0.019 A 
ATOM     14  C   UNL d   1     -43.439-123.817 -49.055  0.00  0.00     0.002 A 
ATOM     15  C   UNL d   1     -43.336-123.500 -48.299  0.00  0.00     0.000 A 
ATOM     16  C   UNL d   1     -42.647-123.103 -48.117  0.00  0.00     0.002 A 
ATOM     17  C   UNL d   1     -42.052-123.016 -48.676  0.00  0.00     0.019 A 
ENDBRANCH  10  12
ENDBRANCH   1   8
BRANCH   2  18
ATOM     18  C   UNL d   1     -41.784-122.939 -54.064  0.00  0.00     0.296 C 
ATOM     19  O   UNL d   1     -41.275-123.551 -54.284  0.00  0.00    -0.259 OA
BRANCH  18  20
ATOM     20  O   UNL d   1     -42.454-122.776 -54.516  0.00  0.00    -0.296 OA
ATOM     21  C   UNL d   1     -42.490-123.019 -55.304  0.00  0.00     0.185 C 
ENDBRANCH  18  20
ENDBRANCH   2  18
TORSDOF 4
ENDMDL
