MODEL 1
REMARK VINA RESULT:      19.6      0.000      0.000
REMARK  3 active torsions:
REMARK  status: ('A' for Active; 'I' for Inactive)
REMARK    1  A    between atoms: C_9  and  C_1 
REMARK       I    between atoms: C_4  and  N_8 
REMARK    2  A    between atoms: C_5  and  C_4 
REMARK    3  A    between atoms: N_8  and  C_17 
ROOT
ATOM      1  C   UNL d   1      46.110 -17.044  43.616  0.00  0.00     0.036 A 
ATOM      2  C   UNL d   1      46.159 -16.394  43.129  0.00  0.00     0.005 A 
ATOM      3  C   UNL d   1      45.946 -16.966  44.407  0.00  0.00     0.005 A 
ATOM      4  C   UNL d   1      45.873 -15.558  44.244  0.00  0.00     0.085 A 
ATOM      5  C   UNL d   1      46.037 -15.636  43.454  0.00  0.00     0.019 A 
ATOM      6  C   UNL d   1      45.823 -16.237  44.747  0.00  0.00     0.019 A 
ENDROOT
BRANCH   1   7
ATOM      7  C   UNL d   1      46.232 -17.801  43.292  0.00  0.00     0.162 A 
ATOM      8  N   UNL d   1      46.366 -18.535  43.668  0.00  0.00    -0.225 NA
ATOM      9  C   UNL d   1      46.446 -19.086  43.080  0.00  0.00     0.101 A 
ATOM     10  C   UNL d   1      46.587 -19.908  43.092  0.00  0.00     0.021 A 
ATOM     11  C   UNL d   1      46.362 -18.695  42.355  0.00  0.00     0.101 A 
ATOM     12  C   UNL d   1      46.642 -20.330  42.386  0.00  0.00     0.002 A 
ATOM     13  C   UNL d   1      46.558 -19.939  41.661  0.00  0.00     0.002 A 
ATOM     14  C   UNL d   1      46.419 -19.126  41.642  0.00  0.00     0.021 A 
ATOM     15  N   UNL d   1      46.231 -17.907  42.504  0.00  0.00    -0.225 NA
ENDBRANCH   1   7
BRANCH   4  16
ATOM     16  N   UNL d   1      45.751 -14.801  44.569  0.00  0.00    -0.206 NA
ATOM     17  C   UNL d   1      45.769 -14.121  44.093  0.00  0.00     0.302 C 
ATOM     18  O   UNL d   1      45.907 -14.201  43.298  0.00  0.00    -0.263 OA
BRANCH  17  19
ATOM     19  C   UNL d   1      45.651 -13.375  44.396  0.00  0.00     0.158 A 
ATOM     20  O   UNL d   1      44.942 -12.983  44.482  0.00  0.00    -0.300 OA
ATOM     21  C   UNL d   1      45.103 -12.231  44.819  0.00  0.00     0.123 A 
ATOM     22  C   UNL d   1      45.878 -12.166  44.935  0.00  0.00     0.029 A 
ATOM     23  C   UNL d   1      46.241 -12.847  44.687  0.00  0.00     0.032 A 
ENDBRANCH  17  19
ENDBRANCH   4  16
TORSDOF 3
ENDMDL
