MODEL 1
REMARK VINA RESULT:      -3.1      0.000      0.000
REMARK  8 active torsions:
REMARK  status: ('A' for Active; 'I' for Inactive)
REMARK    1  A    between atoms: N_5  and  C_1 
REMARK    2  A    between atoms: C_2  and  N_5 
REMARK    3  A    between atoms: N_3  and  C_2 
REMARK       I    between atoms: C_6  and  N_3 
REMARK    4  A    between atoms: C_13  and  C_6 
REMARK    5  A    between atoms: C_9  and  C_7 
REMARK    6  A    between atoms: C_11  and  C_9 
REMARK    7  A    between atoms: O_21  and  C_11 
REMARK    8  A    between atoms: C_23  and  O_21 
ROOT
ATOM      1  C   UNL d   1      32.608  18.123 -23.802  0.00  0.00     0.225 C 
ATOM      2  S   UNL d   1      33.137  18.105 -24.419  0.00  0.00    -0.037 SA
ENDROOT
BRANCH   1   3
ATOM      3  N   UNL d   1      32.871  18.315 -23.044  0.00  0.00    -0.192 NA
BRANCH   3   4
ATOM      4  C   UNL d   1      33.006  19.116 -22.842  0.00  0.00     0.196 A 
ATOM      5  N   UNL d   1      33.028  19.430 -22.099  0.00  0.00    -0.220 NA
ATOM      6  C   UNL d   1      33.174  20.217 -22.176  0.00  0.00     0.095 A 
ATOM      7  C   UNL d   1      33.241  20.384 -22.981  0.00  0.00     0.058 A 
ATOM      8  S   UNL d   1      33.135  19.697 -23.380  0.00  0.00    -0.046 SA
BRANCH   6   9
ATOM      9  C   UNL d   1      33.241  20.754 -21.534  0.00  0.00     0.088 C 
BRANCH   9  10
ATOM     10  C   UNL d   1      32.600  21.150 -21.240  0.00  0.00     0.302 C 
ATOM     11  O   UNL d   1      31.853  20.817 -21.218  0.00  0.00    -0.259 OA
BRANCH  10  12
ATOM     12  O   UNL d   1      32.695  21.931 -20.946  0.00  0.00    -0.271 OA
BRANCH  12  13
ATOM     13  C   UNL d   1      32.061  22.287 -20.551  0.00  0.00     0.126 C 
ATOM     14  C   UNL d   1      32.017  23.108 -20.573  0.00  0.00     0.029 C 
ENDBRANCH  12  13
ENDBRANCH  10  12
ENDBRANCH   9  10
ENDBRANCH   6   9
ENDBRANCH   3   4
ENDBRANCH   1   3
BRANCH   1  15
ATOM     15  N   UNL d   1      31.826  17.955 -23.917  0.00  0.00    -0.179 NA
ATOM     16  C   UNL d   1      31.596  17.169 -24.064  0.00  0.00     0.281 C 
ATOM     17  O   UNL d   1      32.158  16.575 -24.090  0.00  0.00    -0.265 OA
BRANCH  16  18
ATOM     18  C   UNL d   1      30.793  16.988 -24.183  0.00  0.00     0.058 A 
ATOM     19  C   UNL d   1      30.372  16.539 -23.624  0.00  0.00     0.007 A 
ATOM     20  C   UNL d   1      29.573  16.372 -23.764  0.00  0.00     0.030 A 
ATOM     21  C   UNL d   1      29.197  16.647 -24.454  0.00  0.00     0.140 A 
ATOM     22  C   UNL d   1      29.621  17.087 -24.995  0.00  0.00     0.030 A 
ATOM     23  F   UNL d   1      28.419  16.484 -24.591  0.00  0.00    -0.204 F 
ATOM     24  C   UNL d   1      30.413  17.261 -24.870  0.00  0.00     0.007 A 
ENDBRANCH  16  18
ENDBRANCH   1  15
TORSDOF 8
ENDMDL
MODEL 2
REMARK VINA RESULT:      -2.8      1.295      1.899
REMARK  8 active torsions:
REMARK  status: ('A' for Active; 'I' for Inactive)
REMARK    1  A    between atoms: N_5  and  C_1 
REMARK    2  A    between atoms: C_2  and  N_5 
REMARK    3  A    between atoms: N_3  and  C_2 
REMARK       I    between atoms: C_6  and  N_3 
REMARK    4  A    between atoms: C_13  and  C_6 
REMARK    5  A    between atoms: C_9  and  C_7 
REMARK    6  A    between atoms: C_11  and  C_9 
REMARK    7  A    between atoms: O_21  and  C_11 
REMARK    8  A    between atoms: C_23  and  O_21 
ROOT
ATOM      1  C   UNL d   1      31.276  17.666 -24.627  0.00  0.00     0.225 C 
ATOM      2  S   UNL d   1      31.071  18.297 -25.097  0.00  0.00    -0.037 SA
ENDROOT
BRANCH   1   3
ATOM      3  N   UNL d   1      32.073  17.485 -24.513  0.00  0.00    -0.192 NA
BRANCH   3   4
ATOM      4  C   UNL d   1      32.493  17.837 -23.881  0.00  0.00     0.196 A 
ATOM      5  N   UNL d   1      32.560  18.626 -23.723  0.00  0.00    -0.220 NA
ATOM      6  C   UNL d   1      33.014  18.701 -23.064  0.00  0.00     0.095 A 
ATOM      7  C   UNL d   1      33.227  17.944 -22.817  0.00  0.00     0.058 A 
ATOM      8  S   UNL d   1      32.900  17.420 -23.328  0.00  0.00    -0.046 SA
BRANCH   6   9
ATOM      9  C   UNL d   1      33.220  19.433 -22.710  0.00  0.00     0.088 C 
BRANCH   9  10
ATOM     10  C   UNL d   1      32.993  19.623 -21.957  0.00  0.00     0.302 C 
ATOM     11  O   UNL d   1      33.241  19.196 -21.305  0.00  0.00    -0.259 OA
BRANCH  10  12
ATOM     12  O   UNL d   1      32.484  20.279 -21.832  0.00  0.00    -0.271 OA
BRANCH  12  13
ATOM     13  C   UNL d   1      32.703  20.850 -21.273  0.00  0.00     0.126 C 
ATOM     14  C   UNL d   1      32.617  21.639 -21.490  0.00  0.00     0.029 C 
ENDBRANCH  12  13
ENDBRANCH  10  12
ENDBRANCH   9  10
ENDBRANCH   6   9
ENDBRANCH   3   4
ENDBRANCH   1   3
BRANCH   1  15
ATOM     15  N   UNL d   1      30.713  17.212 -24.268  0.00  0.00    -0.179 NA
ATOM     16  C   UNL d   1      29.919  17.285 -24.504  0.00  0.00     0.281 C 
ATOM     17  O   UNL d   1      29.715  17.814 -25.095  0.00  0.00    -0.265 OA
BRANCH  16  18
ATOM     18  C   UNL d   1      29.333  16.821 -24.139  0.00  0.00     0.058 A 
ATOM     19  C   UNL d   1      29.398  15.992 -24.125  0.00  0.00     0.007 A 
ATOM     20  C   UNL d   1      28.803  15.550 -23.756  0.00  0.00     0.030 A 
ATOM     21  C   UNL d   1      28.150  15.929 -23.405  0.00  0.00     0.140 A 
ATOM     22  C   UNL d   1      28.098  16.743 -23.426  0.00  0.00     0.030 A 
ATOM     23  F   UNL d   1      27.569  15.499 -23.046  0.00  0.00    -0.204 F 
ATOM     24  C   UNL d   1      28.679  17.194 -23.788  0.00  0.00     0.007 A 
ENDBRANCH  16  18
ENDBRANCH   1  15
TORSDOF 8
ENDMDL
MODEL 3
REMARK VINA RESULT:      -2.3      2.029      5.275
REMARK  8 active torsions:
REMARK  status: ('A' for Active; 'I' for Inactive)
REMARK    1  A    between atoms: N_5  and  C_1 
REMARK    2  A    between atoms: C_2  and  N_5 
REMARK    3  A    between atoms: N_3  and  C_2 
REMARK       I    between atoms: C_6  and  N_3 
REMARK    4  A    between atoms: C_13  and  C_6 
REMARK    5  A    between atoms: C_9  and  C_7 
REMARK    6  A    between atoms: C_11  and  C_9 
REMARK    7  A    between atoms: O_21  and  C_11 
REMARK    8  A    between atoms: C_23  and  O_21 
ROOT
ATOM      1  C   UNL d   1      33.048  19.313 -22.925  0.00  0.00     0.225 C 
ATOM      2  S   UNL d   1      33.241  19.596 -23.663  0.00  0.00    -0.037 SA
ENDROOT
BRANCH   1   3
ATOM      3  N   UNL d   1      33.013  18.498 -22.798  0.00  0.00    -0.192 NA
BRANCH   3   4
ATOM      4  C   UNL d   1      32.719  17.996 -23.400  0.00  0.00     0.196 A 
ATOM      5  N   UNL d   1      32.018  18.069 -23.792  0.00  0.00    -0.220 NA
ATOM      6  C   UNL d   1      31.974  17.462 -24.318  0.00  0.00     0.095 A 
ATOM      7  C   UNL d   1      32.660  17.013 -24.243  0.00  0.00     0.058 A 
ATOM      8  S   UNL d   1      33.111  17.351 -23.674  0.00  0.00    -0.046 SA
BRANCH   6   9
ATOM      9  C   UNL d   1      31.330  17.333 -24.841  0.00  0.00     0.088 C 
BRANCH   9  10
ATOM     10  C   UNL d   1      30.724  16.829 -24.655  0.00  0.00     0.302 C 
ATOM     11  O   UNL d   1      30.756  16.028 -24.821  0.00  0.00    -0.259 OA
BRANCH  10  12
ATOM     12  O   UNL d   1      30.035  17.129 -24.281  0.00  0.00    -0.271 OA
BRANCH  12  13
ATOM     13  C   UNL d   1      29.295  16.874 -24.548  0.00  0.00     0.126 C 
ATOM     14  C   UNL d   1      28.644  17.052 -24.077  0.00  0.00     0.029 C 
ENDBRANCH  12  13
ENDBRANCH  10  12
ENDBRANCH   9  10
ENDBRANCH   6   9
ENDBRANCH   3   4
ENDBRANCH   1   3
BRANCH   1  15
ATOM     15  N   UNL d   1      32.890  19.815 -22.313  0.00  0.00    -0.179 NA
ATOM     16  C   UNL d   1      32.986  20.634 -22.422  0.00  0.00     0.281 C 
ATOM     17  O   UNL d   1      33.239  20.923 -23.144  0.00  0.00    -0.265 OA
BRANCH  16  18
ATOM     18  C   UNL d   1      32.825  21.157 -21.796  0.00  0.00     0.058 A 
ATOM     19  C   UNL d   1      32.357  20.916 -21.152  0.00  0.00     0.007 A 
ATOM     20  C   UNL d   1      32.211  21.454 -20.540  0.00  0.00     0.030 A 
ATOM     21  C   UNL d   1      32.526  22.224 -20.569  0.00  0.00     0.140 A 
ATOM     22  C   UNL d   1      32.983  22.448 -21.206  0.00  0.00     0.030 A 
ATOM     23  F   UNL d   1      32.383  22.749 -19.972  0.00  0.00    -0.204 F 
ATOM     24  C   UNL d   1      33.138  21.927 -21.820  0.00  0.00     0.007 A 
ENDBRANCH  16  18
ENDBRANCH   1  15
TORSDOF 8
ENDMDL
MODEL 4
REMARK VINA RESULT:      -1.1      2.639      5.982
REMARK  8 active torsions:
REMARK  status: ('A' for Active; 'I' for Inactive)
REMARK    1  A    between atoms: N_5  and  C_1 
REMARK    2  A    between atoms: C_2  and  N_5 
REMARK    3  A    between atoms: N_3  and  C_2 
REMARK       I    between atoms: C_6  and  N_3 
REMARK    4  A    between atoms: C_13  and  C_6 
REMARK    5  A    between atoms: C_9  and  C_7 
REMARK    6  A    between atoms: C_11  and  C_9 
REMARK    7  A    between atoms: O_21  and  C_11 
REMARK    8  A    between atoms: C_23  and  O_21 
ROOT
ATOM      1  C   UNL d   1      33.033  20.679 -21.786  0.00  0.00     0.225 C 
ATOM      2  S   UNL d   1      32.670  20.917 -22.474  0.00  0.00    -0.037 SA
ENDROOT
BRANCH   1   3
ATOM      3  N   UNL d   1      33.234  19.885 -21.684  0.00  0.00    -0.192 NA
BRANCH   3   4
ATOM      4  C   UNL d   1      33.228  19.367 -22.342  0.00  0.00     0.196 A 
ATOM      5  N   UNL d   1      33.209  18.560 -22.322  0.00  0.00    -0.220 NA
ATOM      6  C   UNL d   1      33.210  18.302 -23.084  0.00  0.00     0.095 A 
ATOM      7  C   UNL d   1      33.230  18.965 -23.574  0.00  0.00     0.058 A 
ATOM      8  S   UNL d   1      33.241  19.614 -23.106  0.00  0.00    -0.046 SA
BRANCH   6   9
ATOM      9  C   UNL d   1      33.194  17.495 -23.312  0.00  0.00     0.088 C 
BRANCH   9  10
ATOM     10  C   UNL d   1      32.519  17.142 -23.584  0.00  0.00     0.302 C 
ATOM     11  O   UNL d   1      31.790  17.265 -23.234  0.00  0.00    -0.259 OA
BRANCH  10  12
ATOM     12  O   UNL d   1      32.558  16.629 -24.248  0.00  0.00    -0.271 OA
BRANCH  12  13
ATOM     13  C   UNL d   1      32.139  15.916 -24.225  0.00  0.00     0.126 C 
ATOM     14  C   UNL d   1      31.920  15.585 -24.945  0.00  0.00     0.029 C 
ENDBRANCH  12  13
ENDBRANCH  10  12
ENDBRANCH   9  10
ENDBRANCH   6   9
ENDBRANCH   3   4
ENDBRANCH   1   3
BRANCH   1  15
ATOM     15  N   UNL d   1      33.202  21.207 -21.198  0.00  0.00    -0.179 NA
ATOM     16  C   UNL d   1      32.579  21.589 -20.803  0.00  0.00     0.281 C 
ATOM     17  O   UNL d   1      31.804  21.429 -21.009  0.00  0.00    -0.265 OA
BRANCH  16  18
ATOM     18  C   UNL d   1      32.745  22.134 -20.196  0.00  0.00     0.058 A 
ATOM     19  C   UNL d   1      32.915  22.928 -20.376  0.00  0.00     0.007 A 
ATOM     20  C   UNL d   1      33.077  23.452 -19.756  0.00  0.00     0.030 A 
ATOM     21  C   UNL d   1      33.070  23.189 -18.966  0.00  0.00     0.140 A 
ATOM     22  C   UNL d   1      32.902  22.408 -18.803  0.00  0.00     0.030 A 
ATOM     23  F   UNL d   1      33.229  23.701 -18.362  0.00  0.00    -0.204 F 
ATOM     24  C   UNL d   1      32.739  21.877 -19.406  0.00  0.00     0.007 A 
ENDBRANCH  16  18
ENDBRANCH   1  15
TORSDOF 8
ENDMDL
