MODEL 1
REMARK VINA RESULT:      12.6      0.000      0.000
REMARK  3 active torsions:
REMARK  status: ('A' for Active; 'I' for Inactive)
REMARK    1  A    between atoms: C_6  and  C_3 
REMARK    2  A    between atoms: C_9  and  C_6 
REMARK    3  A    between atoms: O_15  and  C_10 
ROOT
ATOM      1  C   UNL d   1      45.299 -13.638  44.306  0.00  0.00     0.001 A 
ATOM      2  C   UNL d   1      45.186 -12.602  43.019  0.00  0.00     0.094 A 
ATOM      3  C   UNL d   1      44.562 -13.335  44.096  0.00  0.00     0.002 A 
ATOM      4  C   UNL d   1      45.976 -13.430  43.883  0.00  0.00     0.002 A 
ATOM      5  C   UNL d   1      44.509 -12.810  43.442  0.00  0.00     0.024 A 
ATOM      6  C   UNL d   1      45.931 -12.929  43.258  0.00  0.00     0.024 A 
ENDROOT
BRANCH   1   7
ATOM      7  C   UNL d   1      45.303 -14.150  44.955  0.00  0.00     0.011 C 
BRANCH   7   8
ATOM      8  C   UNL d   1      45.234 -14.982  44.894  0.00  0.00     0.092 A 
ATOM      9  C   UNL d   1      44.572 -15.428  44.887  0.00  0.00     0.288 A 
ATOM     10  N   UNL d   1      44.777 -16.197  44.820  0.00  0.00    -0.163 NA
ATOM     11  O   UNL d   1      43.772 -15.111  44.943  0.00  0.00    -0.265 OA
ATOM     12  C   UNL d   1      45.617 -16.205  44.786  0.00  0.00     0.313 A 
ATOM     13  S   UNL d   1      45.860 -15.440  44.834  0.00  0.00    -0.021 SA
ATOM     14  O   UNL d   1      46.092 -16.900  44.714  0.00  0.00    -0.258 OA
ENDBRANCH   7   8
ENDBRANCH   1   7
BRANCH   2  15
ATOM     15  O   UNL d   1      45.121 -12.084  42.377  0.00  0.00    -0.328 OA
ATOM     16  C   UNL d   1      44.473 -12.118  41.896  0.00  0.00     0.181 C 
ENDBRANCH   2  15
TORSDOF 3
ENDMDL
MODEL 2
REMARK VINA RESULT:      13.5      1.626      3.531
REMARK  3 active torsions:
REMARK  status: ('A' for Active; 'I' for Inactive)
REMARK    1  A    between atoms: C_6  and  C_3 
REMARK    2  A    between atoms: C_9  and  C_6 
REMARK    3  A    between atoms: O_15  and  C_10 
ROOT
ATOM      1  C   UNL d   1      45.136 -15.025  44.247  0.00  0.00     0.001 A 
ATOM      2  C   UNL d   1      45.899 -16.496  44.225  0.00  0.00     0.094 A 
ATOM      3  C   UNL d   1      45.357 -15.354  43.524  0.00  0.00     0.002 A 
ATOM      4  C   UNL d   1      45.291 -15.420  44.954  0.00  0.00     0.002 A 
ATOM      5  C   UNL d   1      45.744 -16.101  43.517  0.00  0.00     0.024 A 
ATOM      6  C   UNL d   1      45.660 -16.134  44.953  0.00  0.00     0.024 A 
ENDROOT
BRANCH   1   7
ATOM      7  C   UNL d   1      44.759 -14.291  44.206  0.00  0.00     0.011 C 
BRANCH   7   8
ATOM      8  C   UNL d   1      45.163 -13.559  44.183  0.00  0.00     0.092 A 
ATOM      9  C   UNL d   1      45.072 -12.955  43.669  0.00  0.00     0.288 A 
ATOM     10  N   UNL d   1      45.579 -12.368  43.864  0.00  0.00    -0.163 NA
ATOM     11  O   UNL d   1      44.511 -12.955  43.013  0.00  0.00    -0.265 OA
ATOM     12  C   UNL d   1      45.996 -12.646  44.540  0.00  0.00     0.313 A 
ATOM     13  S   UNL d   1      45.712 -13.380  44.704  0.00  0.00    -0.021 SA
ATOM     14  O   UNL d   1      46.596 -12.214  44.949  0.00  0.00    -0.258 OA
ENDBRANCH   7   8
ENDBRANCH   1   7
BRANCH   2  15
ATOM     15  O   UNL d   1      46.280 -17.229  44.205  0.00  0.00    -0.328 OA
ATOM     16  C   UNL d   1      46.134 -17.743  43.598  0.00  0.00     0.181 C 
ENDBRANCH   2  15
TORSDOF 3
ENDMDL
