MODEL 1
REMARK VINA RESULT:      19.6      0.000      0.000
REMARK  6 active torsions:
REMARK  status: ('A' for Active; 'I' for Inactive)
REMARK    1  A    between atoms: C_2  and  S_1 
REMARK    2  A    between atoms: N_3  and  S_1 
REMARK    3  A    between atoms: C_10  and  N_3 
REMARK    4  A    between atoms: O_15  and  C_5 
REMARK    5  A    between atoms: C_13  and  C_10 
REMARK    6  A    between atoms: C_17  and  O_15 
ROOT
ATOM      1  S   UNL d   1      13.547  12.055  -2.667  0.00  0.00     0.285 S 
ATOM      2  O   UNL d   1      14.325  12.329  -2.763  0.00  0.00    -0.198 OA
ATOM      3  O   UNL d   1      12.775  11.784  -2.571  0.00  0.00    -0.198 OA
ENDROOT
BRANCH   1   4
ATOM      4  C   UNL d   1      13.361  12.317  -3.427  0.00  0.00     0.107 A 
ATOM      5  C   UNL d   1      13.430  13.119  -3.616  0.00  0.00     0.038 A 
ATOM      6  C   UNL d   1      13.242  13.383  -4.383  0.00  0.00     0.111 A 
ATOM      7  C   UNL d   1      12.986  12.842  -4.955  0.00  0.00     0.081 A 
ATOM      8  C   UNL d   1      12.917  12.044  -4.764  0.00  0.00     0.014 A 
ATOM      9 CL   UNL d   1      12.799  13.103  -5.715  0.00  0.00    -0.080 Cl
ATOM     10  C   UNL d   1      13.106  11.781  -3.997  0.00  0.00     0.014 A 
BRANCH   6  11
ATOM     11  O   UNL d   1      13.311  14.182  -4.574  0.00  0.00    -0.304 OA
BRANCH  11  12
ATOM     12  C   UNL d   1      13.309  14.747  -3.976  0.00  0.00     0.123 C 
ATOM     13  C   UNL d   1      13.063  15.516  -4.140  0.00  0.00     0.029 C 
ENDBRANCH  11  12
ENDBRANCH   6  11
ENDBRANCH   1   4
BRANCH   1  14
ATOM     14  N   UNL d   1      13.734  11.794  -1.907  0.00  0.00    -0.155 NA
BRANCH  14  15
ATOM     15  C   UNL d   1      14.512  11.849  -1.631  0.00  0.00     0.131 C 
BRANCH  15  16
ATOM     16  C   UNL d   1      14.716  12.439  -1.093  0.00  0.00     0.101 A 
ATOM     17  N   UNL d   1      15.485  12.737  -1.078  0.00  0.00    -0.242 NA
ATOM     18  C   UNL d   1      15.690  13.327  -0.539  0.00  0.00     0.099 A 
ATOM     19  C   UNL d   1      15.126  13.620  -0.015  0.00  0.00     0.021 A 
ATOM     20  C   UNL d   1      14.354  13.324  -0.028  0.00  0.00     0.003 A 
ATOM     21  C   UNL d   1      14.149  12.733  -0.567  0.00  0.00     0.021 A 
ENDBRANCH  15  16
ENDBRANCH  14  15
ENDBRANCH   1  14
TORSDOF 6
ENDMDL
MODEL 2
REMARK VINA RESULT:      20.9      1.884      3.947
REMARK  6 active torsions:
REMARK  status: ('A' for Active; 'I' for Inactive)
REMARK    1  A    between atoms: C_2  and  S_1 
REMARK    2  A    between atoms: N_3  and  S_1 
REMARK    3  A    between atoms: C_10  and  N_3 
REMARK    4  A    between atoms: O_15  and  C_5 
REMARK    5  A    between atoms: C_13  and  C_10 
REMARK    6  A    between atoms: C_17  and  O_15 
ROOT
ATOM      1  S   UNL d   1      13.800  12.175  -2.299  0.00  0.00     0.285 S 
ATOM      2  O   UNL d   1      13.374  11.780  -1.707  0.00  0.00    -0.198 OA
ATOM      3  O   UNL d   1      14.224  12.568  -2.887  0.00  0.00    -0.198 OA
ENDROOT
BRANCH   1   4
ATOM      4  C   UNL d   1      14.322  12.465  -1.730  0.00  0.00     0.107 A 
ATOM      5  C   UNL d   1      14.580  13.250  -1.767  0.00  0.00     0.038 A 
ATOM      6  C   UNL d   1      15.106  13.543  -1.192  0.00  0.00     0.111 A 
ATOM      7  C   UNL d   1      15.371  13.047  -0.584  0.00  0.00     0.081 A 
ATOM      8  C   UNL d   1      15.114  12.266  -0.549  0.00  0.00     0.014 A 
ATOM      9 CL   UNL d   1      15.893  13.337  -0.015  0.00  0.00    -0.080 Cl
ATOM     10  C   UNL d   1      14.587  11.974  -1.125  0.00  0.00     0.014 A 
BRANCH   6  11
ATOM     11  O   UNL d   1      15.364  14.325  -1.227  0.00  0.00    -0.304 OA
BRANCH  11  12
ATOM     12  C   UNL d   1      15.075  14.875  -0.687  0.00  0.00     0.123 C 
ATOM     13  C   UNL d   1      14.950  15.654  -0.924  0.00  0.00     0.029 C 
ENDBRANCH  11  12
ENDBRANCH   6  11
ENDBRANCH   1   4
BRANCH   1  14
ATOM     14  N   UNL d   1      13.279  11.886  -2.869  0.00  0.00    -0.155 NA
BRANCH  14  15
ATOM     15  C   UNL d   1      12.818  12.411  -3.311  0.00  0.00     0.131 C 
BRANCH  15  16
ATOM     16  C   UNL d   1      12.926  12.465  -4.128  0.00  0.00     0.101 A 
ATOM     17  N   UNL d   1      12.986  11.780  -4.582  0.00  0.00    -0.242 NA
ATOM     18  C   UNL d   1      13.093  11.834  -5.398  0.00  0.00     0.099 A 
ATOM     19  C   UNL d   1      13.141  12.572  -5.760  0.00  0.00     0.021 A 
ATOM     20  C   UNL d   1      13.081  13.261  -5.306  0.00  0.00     0.003 A 
ATOM     21  C   UNL d   1      12.973  13.207  -4.490  0.00  0.00     0.021 A 
ENDBRANCH  15  16
ENDBRANCH  14  15
ENDBRANCH   1  14
TORSDOF 6
ENDMDL
