MODEL 1
REMARK VINA RESULT:      -8.4      0.000      0.000
REMARK  4 active torsions:
REMARK  status: ('A' for Active; 'I' for Inactive)
REMARK    1  A    between atoms: C_6  and  N_1 
REMARK    2  A    between atoms: C_10  and  C_4 
REMARK    3  A    between atoms: C_8  and  C_6 
REMARK    4  A    between atoms: C_9  and  C_8 
ROOT
ATOM      1  N   UNL d   1     -48.468  13.391  22.816  0.00  0.00    -0.305 N 
ATOM      2  C   UNL d   1     -47.528  14.341  22.699  0.00  0.00     0.057 A 
ATOM      3  C   UNL d   1     -47.655  13.517  22.751  0.00  0.00     0.067 A 
ATOM      4  C   UNL d   1     -48.841  14.113  22.805  0.00  0.00     0.064 A 
ATOM      5  C   UNL d   1     -48.266  14.709  22.732  0.00  0.00     0.022 A 
ATOM      6  C   UNL d   1     -46.763  14.637  22.629  0.00  0.00     0.197 A 
ATOM      7  O   UNL d   1     -46.637  15.461  22.577  0.00  0.00    -0.286 OA
ATOM      8  C   UNL d   1     -47.014  13.001  22.733  0.00  0.00     0.018 A 
ATOM      9  C   UNL d   1     -46.123  14.120  22.611  0.00  0.00     0.042 A 
ATOM     10  C   UNL d   1     -46.247  13.311  22.662  0.00  0.00     0.005 A 
ENDROOT
BRANCH   4  11
ATOM     11  C   UNL d   1     -49.593  14.486  22.839  0.00  0.00     0.016 A 
ATOM     12  C   UNL d   1     -50.092  14.463  22.187  0.00  0.00     0.001 A 
ATOM     13  C   UNL d   1     -50.828  14.827  22.218  0.00  0.00     0.000 A 
ATOM     14  C   UNL d   1     -51.054  15.214  22.915  0.00  0.00     0.000 A 
ATOM     15  C   UNL d   1     -50.561  15.240  23.570  0.00  0.00     0.000 A 
ATOM     16  C   UNL d   1     -49.824  14.875  23.535  0.00  0.00     0.001 A 
ENDBRANCH   4  11
BRANCH   1  17
ATOM     17  C   UNL d   1     -48.864  12.662  22.883  0.00  0.00     0.086 C 
BRANCH  17  18
ATOM     18  C   UNL d   1     -48.748  12.203  23.566  0.00  0.00     0.089 C 
BRANCH  18  19
ATOM     19  C   UNL d   1     -49.114  11.469  23.653  0.00  0.00     0.213 C 
ATOM     20  O   UNL d   1     -48.661  10.787  23.698  0.00  0.00    -0.644 OA
ATOM     21  O   UNL d   1     -49.930  11.394  23.698  0.00  0.00    -0.644 OA
ENDBRANCH  18  19
ENDBRANCH  17  18
ENDBRANCH   1  17
TORSDOF 4
ENDMDL
MODEL 2
REMARK VINA RESULT:      -8.2      1.263      3.785
REMARK  4 active torsions:
REMARK  status: ('A' for Active; 'I' for Inactive)
REMARK    1  A    between atoms: C_6  and  N_1 
REMARK    2  A    between atoms: C_10  and  C_4 
REMARK    3  A    between atoms: C_8  and  C_6 
REMARK    4  A    between atoms: C_9  and  C_8 
ROOT
ATOM      1  N   UNL d   1     -48.928  13.370  22.828  0.00  0.00    -0.305 N 
ATOM      2  C   UNL d   1     -49.011  12.100  23.254  0.00  0.00     0.057 A 
ATOM      3  C   UNL d   1     -49.456  12.782  23.070  0.00  0.00     0.067 A 
ATOM      4  C   UNL d   1     -48.175  13.065  22.859  0.00  0.00     0.064 A 
ATOM      5  C   UNL d   1     -48.216  12.278  23.122  0.00  0.00     0.022 A 
ATOM      6  C   UNL d   1     -49.391  11.418  23.514  0.00  0.00     0.197 A 
ATOM      7  O   UNL d   1     -48.946  10.736  23.698  0.00  0.00    -0.286 OA
ATOM      8  C   UNL d   1     -50.275  12.773  23.148  0.00  0.00     0.018 A 
ATOM      9  C   UNL d   1     -50.210  11.409  23.592  0.00  0.00     0.042 A 
ATOM     10  C   UNL d   1     -50.647  12.079  23.411  0.00  0.00     0.005 A 
ENDROOT
BRANCH   4  11
ATOM     11  C   UNL d   1     -47.366  13.248  22.725  0.00  0.00     0.016 A 
ATOM     12  C   UNL d   1     -47.029  13.102  21.991  0.00  0.00     0.001 A 
ATOM     13  C   UNL d   1     -46.238  13.280  21.856  0.00  0.00     0.000 A 
ATOM     14  C   UNL d   1     -45.792  13.608  22.473  0.00  0.00     0.000 A 
ATOM     15  C   UNL d   1     -46.122  13.757  23.209  0.00  0.00     0.000 A 
ATOM     16  C   UNL d   1     -46.915  13.577  23.339  0.00  0.00     0.001 A 
ENDBRANCH   4  11
BRANCH   1  17
ATOM     17  C   UNL d   1     -49.108  14.146  22.588  0.00  0.00     0.086 C 
BRANCH  17  18
ATOM     18  C   UNL d   1     -49.426  14.674  23.146  0.00  0.00     0.089 C 
BRANCH  18  19
ATOM     19  C   UNL d   1     -49.690  15.422  22.921  0.00  0.00     0.213 C 
ATOM     20  O   UNL d   1     -49.554  15.695  22.160  0.00  0.00    -0.644 OA
ATOM     21  O   UNL d   1     -50.091  15.915  23.442  0.00  0.00    -0.644 OA
ENDBRANCH  18  19
ENDBRANCH  17  18
ENDBRANCH   1  17
TORSDOF 4
ENDMDL
MODEL 3
REMARK VINA RESULT:      -7.8      0.981      2.921
REMARK  4 active torsions:
REMARK  status: ('A' for Active; 'I' for Inactive)
REMARK    1  A    between atoms: C_6  and  N_1 
REMARK    2  A    between atoms: C_10  and  C_4 
REMARK    3  A    between atoms: C_8  and  C_6 
REMARK    4  A    between atoms: C_9  and  C_8 
ROOT
ATOM      1  N   UNL d   1     -47.726  13.249  23.208  0.00  0.00    -0.305 N 
ATOM      2  C   UNL d   1     -48.549  12.204  23.374  0.00  0.00     0.057 A 
ATOM      3  C   UNL d   1     -47.749  12.443  23.381  0.00  0.00     0.067 A 
ATOM      4  C   UNL d   1     -48.488  13.509  23.096  0.00  0.00     0.064 A 
ATOM      5  C   UNL d   1     -49.006  12.867  23.197  0.00  0.00     0.022 A 
ATOM      6  C   UNL d   1     -48.746  11.419  23.530  0.00  0.00     0.197 A 
ATOM      7  O   UNL d   1     -49.546  11.180  23.523  0.00  0.00    -0.286 OA
ATOM      8  C   UNL d   1     -47.156  11.894  23.543  0.00  0.00     0.018 A 
ATOM      9  C   UNL d   1     -48.154  10.872  23.692  0.00  0.00     0.042 A 
ATOM     10  C   UNL d   1     -47.368  11.107  23.698  0.00  0.00     0.005 A 
ENDROOT
BRANCH   4  11
ATOM     11  C   UNL d   1     -48.952  14.186  22.915  0.00  0.00     0.016 A 
ATOM     12  C   UNL d   1     -49.136  14.726  23.505  0.00  0.00     0.001 A 
ATOM     13  C   UNL d   1     -49.590  15.389  23.331  0.00  0.00     0.000 A 
ATOM     14  C   UNL d   1     -49.855  15.499  22.553  0.00  0.00     0.000 A 
ATOM     15  C   UNL d   1     -49.675  14.963  21.959  0.00  0.00     0.000 A 
ATOM     16  C   UNL d   1     -49.220  14.301  22.138  0.00  0.00     0.001 A 
ENDBRANCH   4  11
BRANCH   1  17
ATOM     17  C   UNL d   1     -47.054  13.737  23.151  0.00  0.00     0.086 C 
BRANCH  17  18
ATOM     18  C   UNL d   1     -46.490  13.576  22.562  0.00  0.00     0.089 C 
BRANCH  18  19
ATOM     19  C   UNL d   1     -45.794  14.016  22.507  0.00  0.00     0.213 C 
ATOM     20  O   UNL d   1     -45.092  13.649  22.295  0.00  0.00    -0.644 OA
ATOM     21  O   UNL d   1     -45.779  14.823  22.660  0.00  0.00    -0.644 OA
ENDBRANCH  18  19
ENDBRANCH  17  18
ENDBRANCH   1  17
TORSDOF 4
ENDMDL
MODEL 4
REMARK VINA RESULT:      -7.6      1.469      1.964
REMARK  4 active torsions:
REMARK  status: ('A' for Active; 'I' for Inactive)
REMARK    1  A    between atoms: C_6  and  N_1 
REMARK    2  A    between atoms: C_10  and  C_4 
REMARK    3  A    between atoms: C_8  and  C_6 
REMARK    4  A    between atoms: C_9  and  C_8 
ROOT
ATOM      1  N   UNL d   1     -47.872  13.043  23.195  0.00  0.00    -0.305 N 
ATOM      2  C   UNL d   1     -47.948  14.285  22.695  0.00  0.00     0.057 A 
ATOM      3  C   UNL d   1     -47.428  13.713  23.008  0.00  0.00     0.067 A 
ATOM      4  C   UNL d   1     -48.649  13.190  23.004  0.00  0.00     0.064 A 
ATOM      5  C   UNL d   1     -48.705  13.959  22.693  0.00  0.00     0.022 A 
ATOM      6  C   UNL d   1     -47.659  15.019  22.457  0.00  0.00     0.197 A 
ATOM      7  O   UNL d   1     -48.180  15.591  22.144  0.00  0.00    -0.286 OA
ATOM      8  C   UNL d   1     -46.625  13.881  23.080  0.00  0.00     0.018 A 
ATOM      9  C   UNL d   1     -46.857  15.187  22.529  0.00  0.00     0.042 A 
ATOM     10  C   UNL d   1     -46.346  14.625  22.837  0.00  0.00     0.005 A 
ENDROOT
BRANCH   4  11
ATOM     11  C   UNL d   1     -49.420  12.856  23.003  0.00  0.00     0.016 A 
ATOM     12  C   UNL d   1     -49.858  12.833  23.696  0.00  0.00     0.001 A 
ATOM     13  C   UNL d   1     -50.612  12.507  23.698  0.00  0.00     0.000 A 
ATOM     14  C   UNL d   1     -50.918  12.203  22.990  0.00  0.00     0.000 A 
ATOM     15  C   UNL d   1     -50.485  12.223  22.293  0.00  0.00     0.000 A 
ATOM     16  C   UNL d   1     -49.730  12.551  22.296  0.00  0.00     0.001 A 
ENDBRANCH   4  11
BRANCH   1  17
ATOM     17  C   UNL d   1     -47.600  12.327  23.521  0.00  0.00     0.086 C 
BRANCH  17  18
ATOM     18  C   UNL d   1     -46.908  11.984  23.214  0.00  0.00     0.089 C 
BRANCH  18  19
ATOM     19  C   UNL d   1     -46.647  11.246  23.475  0.00  0.00     0.213 C 
ATOM     20  O   UNL d   1     -45.864  11.143  23.698  0.00  0.00    -0.644 OA
ATOM     21  O   UNL d   1     -47.151  10.599  23.521  0.00  0.00    -0.644 OA
ENDBRANCH  18  19
ENDBRANCH  17  18
ENDBRANCH   1  17
TORSDOF 4
ENDMDL
MODEL 5
REMARK VINA RESULT:      -6.6      1.449      3.389
REMARK  4 active torsions:
REMARK  status: ('A' for Active; 'I' for Inactive)
REMARK    1  A    between atoms: C_6  and  N_1 
REMARK    2  A    between atoms: C_10  and  C_4 
REMARK    3  A    between atoms: C_8  and  C_6 
REMARK    4  A    between atoms: C_9  and  C_8 
ROOT
ATOM      1  N   UNL d   1     -48.338  13.896  23.071  0.00  0.00    -0.305 N 
ATOM      2  C   UNL d   1     -49.568  14.269  22.689  0.00  0.00     0.057 A 
ATOM      3  C   UNL d   1     -48.816  14.551  22.915  0.00  0.00     0.067 A 
ATOM      4  C   UNL d   1     -48.777  13.223  22.947  0.00  0.00     0.064 A 
ATOM      5  C   UNL d   1     -49.542  13.445  22.709  0.00  0.00     0.022 A 
ATOM      6  C   UNL d   1     -50.167  14.801  22.498  0.00  0.00     0.197 A 
ATOM      7  O   UNL d   1     -50.920  14.519  22.272  0.00  0.00    -0.286 OA
ATOM      8  C   UNL d   1     -48.672  15.361  22.948  0.00  0.00     0.018 A 
ATOM      9  C   UNL d   1     -50.023  15.610  22.530  0.00  0.00     0.042 A 
ATOM     10  C   UNL d   1     -49.284  15.887  22.753  0.00  0.00     0.005 A 
ENDROOT
BRANCH   4  11
ATOM     11  C   UNL d   1     -48.748  12.384  22.968  0.00  0.00     0.016 A 
ATOM     12  C   UNL d   1     -48.543  11.963  22.294  0.00  0.00     0.001 A 
ATOM     13  C   UNL d   1     -48.514  11.142  22.311  0.00  0.00     0.000 A 
ATOM     14  C   UNL d   1     -48.695  10.751  23.019  0.00  0.00     0.000 A 
ATOM     15  C   UNL d   1     -48.901  11.165  23.697  0.00  0.00     0.000 A 
ATOM     16  C   UNL d   1     -48.929  11.988  23.674  0.00  0.00     0.001 A 
ENDBRANCH   4  11
BRANCH   1  17
ATOM     17  C   UNL d   1     -47.542  13.895  23.315  0.00  0.00     0.086 C 
BRANCH  17  18
ATOM     18  C   UNL d   1     -46.958  14.149  22.780  0.00  0.00     0.089 C 
BRANCH  18  19
ATOM     19  C   UNL d   1     -46.159  14.012  22.926  0.00  0.00     0.213 C 
ATOM     20  O   UNL d   1     -45.653  13.827  22.307  0.00  0.00    -0.644 OA
ATOM     21  O   UNL d   1     -45.842  14.055  23.683  0.00  0.00    -0.644 OA
ENDBRANCH  18  19
ENDBRANCH  17  18
ENDBRANCH   1  17
TORSDOF 4
ENDMDL
MODEL 6
REMARK VINA RESULT:      -6.4      8.638     10.323
REMARK  4 active torsions:
REMARK  status: ('A' for Active; 'I' for Inactive)
REMARK    1  A    between atoms: C_6  and  N_1 
REMARK    2  A    between atoms: C_10  and  C_4 
REMARK    3  A    between atoms: C_8  and  C_6 
REMARK    4  A    between atoms: C_9  and  C_8 
ROOT
ATOM      1  N   UNL d   1     -39.628  14.653  18.141  0.00  0.00    -0.305 N 
ATOM      2  C   UNL d   1     -38.795  13.659  18.483  0.00  0.00     0.057 A 
ATOM      3  C   UNL d   1     -39.108  14.087  17.839  0.00  0.00     0.067 A 
ATOM      4  C   UNL d   1     -39.640  14.581  18.951  0.00  0.00     0.064 A 
ATOM      5  C   UNL d   1     -39.127  13.967  19.172  0.00  0.00     0.022 A 
ATOM      6  C   UNL d   1     -38.255  13.051  18.351  0.00  0.00     0.197 A 
ATOM      7  O   UNL d   1     -37.941  12.623  18.995  0.00  0.00    -0.286 OA
ATOM      8  C   UNL d   1     -38.877  13.903  17.070  0.00  0.00     0.018 A 
ATOM      9  C   UNL d   1     -38.024  12.868  17.583  0.00  0.00     0.042 A 
ATOM     10  C   UNL d   1     -38.332  13.289  16.950  0.00  0.00     0.005 A 
ENDROOT
BRANCH   4  11
ATOM     11  C   UNL d   1     -39.980  14.897  19.652  0.00  0.00     0.016 A 
ATOM     12  C   UNL d   1     -40.595  14.501  20.024  0.00  0.00     0.001 A 
ATOM     13  C   UNL d   1     -40.928  14.808  20.710  0.00  0.00     0.000 A 
ATOM     14  C   UNL d   1     -40.632  15.520  21.015  0.00  0.00     0.000 A 
ATOM     15  C   UNL d   1     -40.017  15.920  20.648  0.00  0.00     0.000 A 
ATOM     16  C   UNL d   1     -39.686  15.609  19.961  0.00  0.00     0.001 A 
ENDBRANCH   4  11
BRANCH   1  17
ATOM     17  C   UNL d   1     -40.074  15.211  17.715  0.00  0.00     0.086 C 
BRANCH  17  18
ATOM     18  C   UNL d   1     -40.700  14.945  17.237  0.00  0.00     0.089 C 
BRANCH  18  19
ATOM     19  C   UNL d   1     -41.133  15.469  16.771  0.00  0.00     0.213 C 
ATOM     20  O   UNL d   1     -41.941  15.550  16.886  0.00  0.00    -0.644 OA
ATOM     21  O   UNL d   1     -40.779  15.922  16.185  0.00  0.00    -0.644 OA
ENDBRANCH  18  19
ENDBRANCH  17  18
ENDBRANCH   1  17
TORSDOF 4
ENDMDL
MODEL 7
REMARK VINA RESULT:      -5.8      8.687     10.468
REMARK  4 active torsions:
REMARK  status: ('A' for Active; 'I' for Inactive)
REMARK    1  A    between atoms: C_6  and  N_1 
REMARK    2  A    between atoms: C_10  and  C_4 
REMARK    3  A    between atoms: C_8  and  C_6 
REMARK    4  A    between atoms: C_9  and  C_8 
ROOT
ATOM      1  N   UNL d   1     -40.114  15.169  18.377  0.00  0.00    -0.305 N 
ATOM      2  C   UNL d   1     -39.961  14.868  19.675  0.00  0.00     0.057 A 
ATOM      3  C   UNL d   1     -40.383  15.347  19.137  0.00  0.00     0.067 A 
ATOM      4  C   UNL d   1     -39.540  14.596  18.437  0.00  0.00     0.064 A 
ATOM      5  C   UNL d   1     -39.439  14.403  19.239  0.00  0.00     0.022 A 
ATOM      6  C   UNL d   1     -40.113  14.923  20.483  0.00  0.00     0.197 A 
ATOM      7  O   UNL d   1     -39.691  14.444  21.021  0.00  0.00    -0.286 OA
ATOM      8  C   UNL d   1     -40.951  15.875  19.413  0.00  0.00     0.018 A 
ATOM      9  C   UNL d   1     -40.680  15.451  20.758  0.00  0.00     0.042 A 
ATOM     10  C   UNL d   1     -41.095  15.922  20.230  0.00  0.00     0.005 A 
ENDROOT
BRANCH   4  11
ATOM     11  C   UNL d   1     -39.008  14.123  17.990  0.00  0.00     0.016 A 
ATOM     12  C   UNL d   1     -39.030  13.305  18.058  0.00  0.00     0.001 A 
ATOM     13  C   UNL d   1     -38.511  12.841  17.623  0.00  0.00     0.000 A 
ATOM     14  C   UNL d   1     -37.970  13.212  17.117  0.00  0.00     0.000 A 
ATOM     15  C   UNL d   1     -37.943  14.029  17.043  0.00  0.00     0.000 A 
ATOM     16  C   UNL d   1     -38.465  14.491  17.482  0.00  0.00     0.001 A 
ENDBRANCH   4  11
BRANCH   1  17
ATOM     17  C   UNL d   1     -40.367  15.503  17.658  0.00  0.00     0.086 C 
BRANCH  17  18
ATOM     18  C   UNL d   1     -41.145  15.361  17.402  0.00  0.00     0.089 C 
BRANCH  18  19
ATOM     19  C   UNL d   1     -41.431  15.694  16.704  0.00  0.00     0.213 C 
ATOM     20  O   UNL d   1     -42.237  15.807  16.602  0.00  0.00    -0.644 OA
ATOM     21  O   UNL d   1     -40.929  15.922  16.095  0.00  0.00    -0.644 OA
ENDBRANCH  18  19
ENDBRANCH  17  18
ENDBRANCH   1  17
TORSDOF 4
ENDMDL
MODEL 8
REMARK VINA RESULT:      -5.5      9.414     10.354
REMARK  4 active torsions:
REMARK  status: ('A' for Active; 'I' for Inactive)
REMARK    1  A    between atoms: C_6  and  N_1 
REMARK    2  A    between atoms: C_10  and  C_4 
REMARK    3  A    between atoms: C_8  and  C_6 
REMARK    4  A    between atoms: C_9  and  C_8 
ROOT
ATOM      1  N   UNL d   1     -39.064  14.143  18.814  0.00  0.00    -0.305 N 
ATOM      2  C   UNL d   1     -39.558  14.612  19.969  0.00  0.00     0.057 A 
ATOM      3  C   UNL d   1     -38.984  14.107  19.635  0.00  0.00     0.067 A 
ATOM      4  C   UNL d   1     -39.670  14.656  18.639  0.00  0.00     0.064 A 
ATOM      5  C   UNL d   1     -39.983  14.952  19.349  0.00  0.00     0.022 A 
ATOM      6  C   UNL d   1     -39.612  14.691  20.787  0.00  0.00     0.197 A 
ATOM      7  O   UNL d   1     -40.187  15.196  21.122  0.00  0.00    -0.286 OA
ATOM      8  C   UNL d   1     -38.471  13.687  20.123  0.00  0.00     0.018 A 
ATOM      9  C   UNL d   1     -39.099  14.270  21.274  0.00  0.00     0.042 A 
ATOM     10  C   UNL d   1     -38.535  13.774  20.946  0.00  0.00     0.005 A 
ENDROOT
BRANCH   4  11
ATOM     11  C   UNL d   1     -40.102  15.001  18.005  0.00  0.00     0.016 A 
ATOM     12  C   UNL d   1     -40.872  14.761  17.856  0.00  0.00     0.001 A 
ATOM     13  C   UNL d   1     -41.296  15.096  17.237  0.00  0.00     0.000 A 
ATOM     14  C   UNL d   1     -40.932  15.678  16.772  0.00  0.00     0.000 A 
ATOM     15  C   UNL d   1     -40.162  15.922  16.916  0.00  0.00     0.000 A 
ATOM     16  C   UNL d   1     -39.741  15.583  17.537  0.00  0.00     0.001 A 
ENDBRANCH   4  11
BRANCH   1  17
ATOM     17  C   UNL d   1     -38.616  13.737  18.242  0.00  0.00     0.086 C 
BRANCH  17  18
ATOM     18  C   UNL d   1     -38.722  12.917  18.158  0.00  0.00     0.089 C 
BRANCH  18  19
ATOM     19  C   UNL d   1     -38.272  12.483  17.620  0.00  0.00     0.213 C 
ATOM     20  O   UNL d   1     -38.146  11.682  17.741  0.00  0.00    -0.644 OA
ATOM     21  O   UNL d   1     -37.940  12.830  16.954  0.00  0.00    -0.644 OA
ENDBRANCH  18  19
ENDBRANCH  17  18
ENDBRANCH   1  17
TORSDOF 4
ENDMDL
