MODEL 1
REMARK VINA RESULT:      93.1      0.000      0.000
REMARK  5 active torsions:
REMARK  status: ('A' for Active; 'I' for Inactive)
REMARK    1  A    between atoms: N_6  and  C_1 
REMARK    2  A    between atoms: C_8  and  C_2 
REMARK    3  A    between atoms: C_11  and  C_3 
REMARK       I    between atoms: C_7  and  N_6 
REMARK    4  A    between atoms: C_9  and  C_7 
REMARK    5  A    between atoms: C_20  and  C_11 
ROOT
ATOM      1  C   UNL d   1     -48.237  29.099  35.260  0.00  0.00     0.119 A 
ATOM      2  C   UNL d   1     -47.448  29.143  35.476  0.00  0.00     0.084 A 
ATOM      3  C   UNL d   1     -47.978  30.367  35.591  0.00  0.00     0.031 A 
ATOM      4  S   UNL d   1     -48.574  29.853  35.328  0.00  0.00    -0.068 SA
ATOM      5  C   UNL d   1     -47.287  29.929  35.682  0.00  0.00     0.013 A 
ATOM      6  C   UNL d   1     -46.560  30.232  35.935  0.00  0.00     0.001 C 
ENDROOT
BRANCH   1   7
ATOM      7  N   UNL d   1     -48.639  28.405  35.011  0.00  0.00    -0.201 NA
ATOM      8  C   UNL d   1     -48.980  28.371  34.251  0.00  0.00     0.280 C 
ATOM      9  O   UNL d   1     -48.926  29.015  33.740  0.00  0.00    -0.265 OA
BRANCH   8  10
ATOM     10  C   UNL d   1     -49.376  27.683  34.012  0.00  0.00     0.058 A 
ATOM     11  C   UNL d   1     -50.205  27.660  34.011  0.00  0.00     0.005 A 
ATOM     12  C   UNL d   1     -50.584  26.992  33.778  0.00  0.00     0.000 A 
ATOM     13  C   UNL d   1     -51.419  27.001  33.789  0.00  0.00     0.000 A 
ATOM     14  C   UNL d   1     -50.188  26.324  33.539  0.00  0.00     0.000 A 
ATOM     15  C   UNL d   1     -51.830  26.337  33.558  0.00  0.00     0.000 A 
ATOM     16  C   UNL d   1     -51.431  25.658  33.314  0.00  0.00     0.000 A 
ATOM     17  C   UNL d   1     -50.602  25.658  33.307  0.00  0.00     0.000 A 
ATOM     18  C   UNL d   1     -49.337  26.336  33.535  0.00  0.00     0.000 A 
ATOM     19  C   UNL d   1     -48.945  27.022  33.774  0.00  0.00     0.005 A 
ENDBRANCH   8  10
ENDBRANCH   1   7
BRANCH   2  20
ATOM     20  C   UNL d   1     -46.902  28.525  35.492  0.00  0.00     0.299 C 
ATOM     21  O   UNL d   1     -46.244  28.517  34.898  0.00  0.00    -0.264 OA
ATOM     22  N   UNL d   1     -46.955  27.962  36.010  0.00  0.00    -0.102 N 
ENDBRANCH   2  20
BRANCH   3  23
ATOM     23  C   UNL d   1     -47.983  31.184  35.758  0.00  0.00     0.007 C 
BRANCH  23  24
ATOM     24  C   UNL d   1     -47.983  31.733  35.132  0.00  0.00     0.003 A 
ATOM     25  C   UNL d   1     -47.265  32.063  34.879  0.00  0.00     0.026 A 
ATOM     26  C   UNL d   1     -47.255  32.606  34.261  0.00  0.00     0.119 A 
ATOM     27  O   UNL d   1     -46.643  33.014  33.902  0.00  0.00    -0.300 OA
ATOM     28  C   UNL d   1     -47.959  32.824  33.892  0.00  0.00     0.119 A 
ATOM     29  C   UNL d   1     -46.963  33.483  33.312  0.00  0.00     0.304 A 
ATOM     30  O   UNL d   1     -47.777  33.365  33.307  0.00  0.00    -0.300 OA
ATOM     31  C   UNL d   1     -48.672  32.498  34.140  0.00  0.00     0.026 A 
ATOM     32  C   UNL d   1     -48.686  31.950  34.763  0.00  0.00     0.002 A 
ENDBRANCH  23  24
ENDBRANCH   3  23
TORSDOF 5
ENDMDL
MODEL 2
REMARK VINA RESULT:      95.9      2.698      6.762
REMARK  5 active torsions:
REMARK  status: ('A' for Active; 'I' for Inactive)
REMARK    1  A    between atoms: N_6  and  C_1 
REMARK    2  A    between atoms: C_8  and  C_2 
REMARK    3  A    between atoms: C_11  and  C_3 
REMARK       I    between atoms: C_7  and  N_6 
REMARK    4  A    between atoms: C_9  and  C_7 
REMARK    5  A    between atoms: C_20  and  C_11 
ROOT
ATOM      1  C   UNL d   1     -49.996  26.578  33.808  0.00  0.00     0.119 A 
ATOM      2  C   UNL d   1     -50.806  26.668  33.728  0.00  0.00     0.084 A 
ATOM      3  C   UNL d   1     -50.506  25.384  33.497  0.00  0.00     0.031 A 
ATOM      4  S   UNL d   1     -49.800  25.785  33.667  0.00  0.00    -0.068 SA
ATOM      5  C   UNL d   1     -51.123  25.927  33.535  0.00  0.00     0.013 A 
ATOM      6  C   UNL d   1     -51.921  25.753  33.401  0.00  0.00     0.001 C 
ENDROOT
BRANCH   1   7
ATOM      7  N   UNL d   1     -49.451  27.188  34.001  0.00  0.00    -0.201 NA
ATOM      8  C   UNL d   1     -49.081  27.195  34.748  0.00  0.00     0.280 C 
ATOM      9  O   UNL d   1     -49.245  26.607  35.301  0.00  0.00    -0.265 OA
BRANCH   8  10
ATOM     10  C   UNL d   1     -48.545  27.800  34.932  0.00  0.00     0.058 A 
ATOM     11  C   UNL d   1     -48.754  28.387  35.479  0.00  0.00     0.005 A 
ATOM     12  C   UNL d   1     -48.231  28.971  35.654  0.00  0.00     0.000 A 
ATOM     13  C   UNL d   1     -48.472  29.547  36.209  0.00  0.00     0.000 A 
ATOM     14  C   UNL d   1     -47.494  29.016  35.315  0.00  0.00     0.000 A 
ATOM     15  C   UNL d   1     -47.962  30.151  36.406  0.00  0.00     0.000 A 
ATOM     16  C   UNL d   1     -47.214  30.199  36.064  0.00  0.00     0.000 A 
ATOM     17  C   UNL d   1     -46.984  29.623  35.515  0.00  0.00     0.000 A 
ATOM     18  C   UNL d   1     -47.269  28.419  34.753  0.00  0.00     0.000 A 
ATOM     19  C   UNL d   1     -47.805  27.817  34.570  0.00  0.00     0.005 A 
ENDBRANCH   8  10
ENDBRANCH   1   7
BRANCH   2  20
ATOM     20  C   UNL d   1     -51.241  27.363  33.819  0.00  0.00     0.299 C 
ATOM     21  O   UNL d   1     -51.771  27.449  34.524  0.00  0.00    -0.264 OA
ATOM     22  N   UNL d   1     -51.192  27.931  33.307  0.00  0.00    -0.102 N 
ENDBRANCH   2  20
BRANCH   3  23
ATOM     23  C   UNL d   1     -50.660  24.585  33.312  0.00  0.00     0.007 C 
BRANCH  23  24
ATOM     24  C   UNL d   1     -51.347  24.219  33.607  0.00  0.00     0.003 A 
ATOM     25  C   UNL d   1     -52.090  24.451  33.319  0.00  0.00     0.026 A 
ATOM     26  C   UNL d   1     -52.774  24.095  33.605  0.00  0.00     0.119 A 
ATOM     27  O   UNL d   1     -53.565  24.210  33.428  0.00  0.00    -0.300 OA
ATOM     28  C   UNL d   1     -52.723  23.506  34.179  0.00  0.00     0.119 A 
ATOM     29  C   UNL d   1     -54.005  23.694  33.888  0.00  0.00     0.304 A 
ATOM     30  O   UNL d   1     -53.483  23.260  34.352  0.00  0.00    -0.300 OA
ATOM     31  C   UNL d   1     -51.989  23.273  34.467  0.00  0.00     0.026 A 
ATOM     32  C   UNL d   1     -51.297  23.630  34.181  0.00  0.00     0.002 A 
ENDBRANCH  23  24
ENDBRANCH   3  23
TORSDOF 5
ENDMDL
