MODEL 1
REMARK VINA RESULT:      22.9      0.000      0.000
REMARK  2 active torsions:
REMARK  status: ('A' for Active; 'I' for Inactive)
REMARK       I    between atoms: C_2  and  N_1 
REMARK    1  A    between atoms: C_4  and  C_2 
REMARK    2  A    between atoms: C_6  and  C_7 
ROOT
ATOM      1  C   UNL d   1      45.243 -16.381  44.393  0.00  0.00     0.057 A 
ATOM      2  C   UNL d   1      45.947 -17.791  43.868  0.00  0.00    -0.023 A 
ATOM      3  C   UNL d   1      45.580 -16.903  44.947  0.00  0.00     0.004 A 
ATOM      4  C   UNL d   1      45.249 -16.544  43.595  0.00  0.00     0.004 A 
ATOM      5  C   UNL d   1      45.941 -17.628  44.667  0.00  0.00    -0.004 A 
ATOM      6  C   UNL d   1      45.609 -17.269  43.315  0.00  0.00    -0.004 A 
ENDROOT
BRANCH   1   7
ATOM      7  C   UNL d   1      44.896 -15.684  44.652  0.00  0.00     0.267 C 
ATOM      8  N   UNL d   1      45.327 -14.968  44.599  0.00  0.00    -0.240 N 
ATOM      9  C   UNL d   1      46.103 -14.954  44.288  0.00  0.00     0.267 A 
ATOM     10  C   UNL d   1      44.904 -14.313  44.881  0.00  0.00     0.086 A 
ATOM     11  O   UNL d   1      46.419 -15.739  44.027  0.00  0.00    -0.267 OA
ATOM     12  C   UNL d   1      46.630 -14.333  44.180  0.00  0.00     0.061 A 
ATOM     13  C   UNL d   1      46.490 -13.510  44.376  0.00  0.00     0.005 A 
ATOM     14  C   UNL d   1      45.864 -13.190  44.684  0.00  0.00     0.002 A 
ATOM     15  C   UNL d   1      45.142 -13.524  44.919  0.00  0.00     0.019 A 
ATOM     16  O   UNL d   1      44.146 -15.681  44.955  0.00  0.00    -0.267 OA
ENDBRANCH   1   7
BRANCH   2  17
ATOM     17  C   UNL d   1      46.296 -18.492  43.611  0.00  0.00     0.019 C 
ATOM     18  C   UNL d   1      46.142 -18.294  42.830  0.00  0.00     0.004 C 
ATOM     19  C   UNL d   1      46.647 -19.193  43.360  0.00  0.00     0.004 C 
ATOM     20  C   UNL d   1      46.452 -18.691  44.398  0.00  0.00     0.004 C 
ENDBRANCH   2  17
TORSDOF 2
ENDMDL
MODEL 2
REMARK VINA RESULT:      25.8      1.317      2.007
REMARK  2 active torsions:
REMARK  status: ('A' for Active; 'I' for Inactive)
REMARK       I    between atoms: C_2  and  N_1 
REMARK    1  A    between atoms: C_4  and  C_2 
REMARK    2  A    between atoms: C_6  and  C_7 
ROOT
ATOM      1  C   UNL d   1      45.996 -14.825  44.459  0.00  0.00     0.057 A 
ATOM      2  C   UNL d   1      45.834 -16.477  44.390  0.00  0.00    -0.023 A 
ATOM      3  C   UNL d   1      46.531 -15.273  44.004  0.00  0.00     0.004 A 
ATOM      4  C   UNL d   1      45.391 -15.178  44.875  0.00  0.00     0.004 A 
ATOM      5  C   UNL d   1      46.440 -16.124  43.974  0.00  0.00    -0.004 A 
ATOM      6  C   UNL d   1      45.300 -16.029  44.845  0.00  0.00    -0.004 A 
ENDROOT
BRANCH   1   7
ATOM      7  C   UNL d   1      46.076 -14.009  44.494  0.00  0.00     0.267 C 
ATOM      8  N   UNL d   1      45.559 -13.528  44.044  0.00  0.00    -0.240 N 
ATOM      9  C   UNL d   1      44.965 -13.867  43.563  0.00  0.00     0.267 A 
ATOM     10  C   UNL d   1      45.707 -12.718  44.135  0.00  0.00     0.086 A 
ATOM     11  O   UNL d   1      44.932 -14.752  43.571  0.00  0.00    -0.267 OA
ATOM     12  C   UNL d   1      44.399 -13.520  43.078  0.00  0.00     0.061 A 
ATOM     13  C   UNL d   1      44.288 -12.679  42.953  0.00  0.00     0.005 A 
ATOM     14  C   UNL d   1      44.679 -12.092  43.255  0.00  0.00     0.002 A 
ATOM     15  C   UNL d   1      45.317 -12.081  43.785  0.00  0.00     0.019 A 
ATOM     16  O   UNL d   1      46.646 -13.667  44.954  0.00  0.00    -0.267 OA
ENDBRANCH   1   7
BRANCH   2  17
ATOM     17  C   UNL d   1      45.756 -17.296  44.354  0.00  0.00     0.019 C 
ATOM     18  C   UNL d   1      46.320 -17.334  43.759  0.00  0.00     0.004 C 
ATOM     19  C   UNL d   1      45.674 -18.115  44.322  0.00  0.00     0.004 C 
ATOM     20  C   UNL d   1      45.188 -17.259  44.954  0.00  0.00     0.004 C 
ENDBRANCH   2  17
TORSDOF 2
ENDMDL
