MODEL 1
REMARK VINA RESULT:      19.5      0.000      0.000
REMARK  3 active torsions:
REMARK  status: ('A' for Active; 'I' for Inactive)
REMARK    1  A    between atoms: N_2  and  C_1 
REMARK    2  A    between atoms: C_3  and  C_1 
REMARK    3  A    between atoms: N_6  and  C_5 
ROOT
ATOM      1  C   UNL d   1      13.455  12.268  -3.101  0.00  0.00     0.027 A 
ATOM      2  C   UNL d   1      14.113  11.987  -1.609  0.00  0.00     0.064 A 
ATOM      3  C   UNL d   1      12.998  11.920  -2.500  0.00  0.00     0.004 A 
ATOM      4  C   UNL d   1      14.247  12.476  -2.951  0.00  0.00     0.004 A 
ATOM      5  C   UNL d   1      13.328  11.781  -1.758  0.00  0.00     0.018 A 
ATOM      6  C   UNL d   1      14.576  12.335  -2.201  0.00  0.00     0.018 A 
ENDROOT
BRANCH   1   7
ATOM      7  C   UNL d   1      13.125  12.408  -3.846  0.00  0.00     0.120 C 
ATOM      8  S   UNL d   1      12.788  11.779  -4.266  0.00  0.00    -0.059 SA
BRANCH   7   9
ATOM      9  N   UNL d   1      13.134  13.168  -4.164  0.00  0.00    -0.292 N 
ATOM     10  C   UNL d   1      12.770  13.782  -3.755  0.00  0.00     0.108 A 
ATOM     11  C   UNL d   1      12.778  14.543  -4.073  0.00  0.00     0.142 A 
ATOM     12  O   UNL d   1      13.148  14.684  -4.794  0.00  0.00    -0.300 OA
ATOM     13  C   UNL d   1      13.512  14.063  -5.201  0.00  0.00     0.142 A 
ATOM     14  C   UNL d   1      13.504  13.302  -4.883  0.00  0.00     0.108 A 
ENDBRANCH   7   9
ENDBRANCH   1   7
BRANCH   2  15
ATOM     15  N   UNL d   1      14.442  11.849  -0.868  0.00  0.00    -0.301 N 
ATOM     16  C   UNL d   1      13.954  11.780  -0.205  0.00  0.00     0.100 C 
ATOM     17  C   UNL d   1      15.259  11.779  -0.788  0.00  0.00     0.100 C 
ENDBRANCH   2  15
TORSDOF 3
ENDMDL
