MODEL 1
REMARK VINA RESULT:       2.5      0.000      0.000
REMARK  4 active torsions:
REMARK  status: ('A' for Active; 'I' for Inactive)
REMARK    1  A    between atoms: C_10  and  N_3 
REMARK    2  A    between atoms: C_11  and  C_6 
REMARK    3  A    between atoms: C_16  and  C_10 
REMARK    4  A    between atoms: N_17  and  C_16 
ROOT
ATOM      1  C   UNL d   1      32.868  21.986 -21.179  0.00  0.00     0.083 A 
ATOM      2  C   UNL d   1      33.038  21.343 -20.711  0.00  0.00     0.161 A 
ATOM      3  N   UNL d   1      32.920  20.925 -21.949  0.00  0.00    -0.270 N 
ATOM      4  C   UNL d   1      33.071  20.685 -21.188  0.00  0.00     0.288 A 
ATOM      5  C   UNL d   1      32.798  22.735 -20.852  0.00  0.00     0.201 A 
ATOM      6  C   UNL d   1      32.795  21.724 -21.944  0.00  0.00     0.072 A 
ATOM      7  O   UNL d   1      33.143  21.446 -19.899  0.00  0.00    -0.302 OA
ATOM      8  C   UNL d   1      32.904  22.827 -20.043  0.00  0.00     0.062 A 
ATOM      9  C   UNL d   1      33.076  22.180 -19.573  0.00  0.00     0.103 A 
ATOM     10  O   UNL d   1      33.230  19.910 -20.936  0.00  0.00    -0.264 OA
ATOM     11  O   UNL d   1      32.624  23.389 -21.328  0.00  0.00    -0.286 OA
ATOM     12  C   UNL d   1      32.836  23.578 -19.707  0.00  0.00     0.005 A 
ATOM     13  C   UNL d   1      33.181  22.282 -18.764  0.00  0.00     0.025 A 
ATOM     14  C   UNL d   1      32.942  23.662 -18.908  0.00  0.00     0.000 A 
ATOM     15  C   UNL d   1      33.114  23.015 -18.438  0.00  0.00     0.002 A 
ENDROOT
BRANCH   6  16
ATOM     16  C   UNL d   1      32.621  22.200 -22.607  0.00  0.00     0.017 A 
ATOM     17  C   UNL d   1      31.850  22.231 -22.899  0.00  0.00     0.004 A 
ATOM     18  C   UNL d   1      31.680  22.703 -23.556  0.00  0.00     0.030 A 
ATOM     19  C   UNL d   1      32.289  23.149 -23.926  0.00  0.00     0.140 A 
ATOM     20  C   UNL d   1      33.058  23.111 -23.626  0.00  0.00     0.030 A 
ATOM     21  F   UNL d   1      32.118  23.623 -24.587  0.00  0.00    -0.204 F 
ATOM     22  C   UNL d   1      33.229  22.636 -22.964  0.00  0.00     0.004 A 
ENDBRANCH   6  16
BRANCH   3  23
ATOM     23  C   UNL d   1      32.897  20.430 -22.622  0.00  0.00     0.102 C 
BRANCH  23  24
ATOM     24  C   UNL d   1      32.696  19.624 -22.533  0.00  0.00     0.100 C 
BRANCH  24  25
ATOM     25  N   UNL d   1      32.572  19.154 -23.211  0.00  0.00    -0.299 N 
ATOM     26  C   UNL d   1      31.802  18.908 -23.407  0.00  0.00     0.100 C 
ATOM     27  C   UNL d   1      33.216  18.936 -23.685  0.00  0.00     0.100 C 
ENDBRANCH  24  25
ENDBRANCH  23  24
ENDBRANCH   3  23
TORSDOF 4
ENDMDL
MODEL 2
REMARK VINA RESULT:       3.9      1.162      3.872
REMARK  4 active torsions:
REMARK  status: ('A' for Active; 'I' for Inactive)
REMARK    1  A    between atoms: C_10  and  N_3 
REMARK    2  A    between atoms: C_11  and  C_6 
REMARK    3  A    between atoms: C_16  and  C_10 
REMARK    4  A    between atoms: N_17  and  C_16 
ROOT
ATOM      1  C   UNL d   1      32.914  20.437 -22.862  0.00  0.00     0.083 A 
ATOM      2  C   UNL d   1      32.918  20.032 -22.157  0.00  0.00     0.161 A 
ATOM      3  N   UNL d   1      32.881  21.315 -21.888  0.00  0.00    -0.270 N 
ATOM      4  C   UNL d   1      32.898  20.576 -21.553  0.00  0.00     0.288 A 
ATOM      5  C   UNL d   1      32.931  20.035 -23.577  0.00  0.00     0.201 A 
ATOM      6  C   UNL d   1      32.891  21.231 -22.693  0.00  0.00     0.072 A 
ATOM      7  O   UNL d   1      32.940  19.207 -22.162  0.00  0.00    -0.302 OA
ATOM      8  C   UNL d   1      32.953  19.213 -23.571  0.00  0.00     0.062 A 
ATOM      9  C   UNL d   1      32.957  18.806 -22.861  0.00  0.00     0.103 A 
ATOM     10  O   UNL d   1      32.895  20.400 -20.741  0.00  0.00    -0.264 OA
ATOM     11  O   UNL d   1      32.927  20.447 -24.294  0.00  0.00    -0.286 OA
ATOM     12  C   UNL d   1      32.970  18.801 -24.286  0.00  0.00     0.005 A 
ATOM     13  C   UNL d   1      32.979  17.984 -22.864  0.00  0.00     0.025 A 
ATOM     14  C   UNL d   1      32.992  17.992 -24.272  0.00  0.00     0.000 A 
ATOM     15  C   UNL d   1      32.996  17.585 -23.563  0.00  0.00     0.002 A 
ENDROOT
BRANCH   6  16
ATOM     16  C   UNL d   1      32.880  21.849 -23.253  0.00  0.00     0.017 A 
ATOM     17  C   UNL d   1      33.241  21.743 -23.987  0.00  0.00     0.004 A 
ATOM     18  C   UNL d   1      33.228  22.357 -24.541  0.00  0.00     0.030 A 
ATOM     19  C   UNL d   1      32.850  23.085 -24.358  0.00  0.00     0.140 A 
ATOM     20  C   UNL d   1      32.491  23.180 -23.620  0.00  0.00     0.030 A 
ATOM     21  F   UNL d   1      32.838  23.702 -24.915  0.00  0.00    -0.204 F 
ATOM     22  C   UNL d   1      32.504  22.563 -23.062  0.00  0.00     0.004 A 
ENDBRANCH   6  16
BRANCH   3  23
ATOM     23  C   UNL d   1      32.858  22.039 -21.472  0.00  0.00     0.102 C 
BRANCH  23  24
ATOM     24  C   UNL d   1      32.734  22.035 -20.646  0.00  0.00     0.100 C 
BRANCH  24  25
ATOM     25  N   UNL d   1      32.621  22.758 -20.244  0.00  0.00    -0.299 N 
ATOM     26  C   UNL d   1      33.237  23.317 -20.219  0.00  0.00     0.100 C 
ATOM     27  C   UNL d   1      31.897  22.913 -19.872  0.00  0.00     0.100 C 
ENDBRANCH  24  25
ENDBRANCH  23  24
ENDBRANCH   3  23
TORSDOF 4
ENDMDL
