MODEL 1
REMARK VINA RESULT:      -1.9      0.000      0.000
REMARK  4 active torsions:
REMARK  status: ('A' for Active; 'I' for Inactive)
REMARK    1  A    between atoms: C_8  and  C_1 
REMARK    2  A    between atoms: C_3  and  C_2 
REMARK    3  A    between atoms: O_14  and  C_8 
REMARK    4  A    between atoms: C_16  and  O_14 
ROOT
ATOM      1  C   UNL d   1     -41.617-122.629 -51.849  0.00  0.00     0.091 A 
ATOM      2  C   UNL d   1     -41.396-123.119 -52.475  0.00  0.00     0.036 A 
ATOM      3  C   UNL d   1     -41.479-123.026 -51.136  0.00  0.00     0.138 A 
ATOM      4  C   UNL d   1     -41.123-123.817 -52.128  0.00  0.00     0.039 A 
ATOM      5  S   UNL d   1     -41.176-123.755 -51.328  0.00  0.00    -0.065 SA
ATOM      6  N   UNL d   1     -41.627-122.727 -50.368  0.00  0.00    -0.141 N 
ENDROOT
BRANCH   2   7
ATOM      7  C   UNL d   1     -41.467-122.880 -53.240  0.00  0.00     0.101 A 
ATOM      8  O   UNL d   1     -41.649-122.325 -53.787  0.00  0.00    -0.307 OA
ATOM      9  C   UNL d   1     -41.530-122.646 -54.505  0.00  0.00     0.100 A 
ATOM     10  C   UNL d   1     -41.659-122.241 -55.223  0.00  0.00     0.027 C 
ATOM     11  C   UNL d   1     -41.272-123.401 -54.443  0.00  0.00     0.027 A 
ATOM     12  C   UNL d   1     -41.237-123.536 -53.622  0.00  0.00     0.027 A 
ENDBRANCH   2   7
BRANCH   1  13
ATOM     13  C   UNL d   1     -41.922-121.876 -51.903  0.00  0.00     0.302 C 
ATOM     14  O   UNL d   1     -42.705-121.735 -51.968  0.00  0.00    -0.259 OA
BRANCH  13  15
ATOM     15  O   UNL d   1     -41.388-121.225 -51.890  0.00  0.00    -0.271 OA
BRANCH  15  16
ATOM     16  C   UNL d   1     -41.619-120.541 -51.545  0.00  0.00     0.126 C 
ATOM     17  C   UNL d   1     -41.123-119.864 -51.608  0.00  0.00     0.029 C 
ENDBRANCH  15  16
ENDBRANCH  13  15
ENDBRANCH   1  13
TORSDOF 4
ENDMDL
MODEL 2
REMARK VINA RESULT:      -0.3      1.478      2.952
REMARK  4 active torsions:
REMARK  status: ('A' for Active; 'I' for Inactive)
REMARK    1  A    between atoms: C_8  and  C_1 
REMARK    2  A    between atoms: C_3  and  C_2 
REMARK    3  A    between atoms: O_14  and  C_8 
REMARK    4  A    between atoms: C_16  and  O_14 
ROOT
ATOM      1  C   UNL d   1     -41.692-122.632 -53.826  0.00  0.00     0.091 A 
ATOM      2  C   UNL d   1     -41.352-122.523 -53.082  0.00  0.00     0.036 A 
ATOM      3  C   UNL d   1     -41.673-123.438 -54.015  0.00  0.00     0.138 A 
ATOM      4  C   UNL d   1     -41.128-123.276 -52.827  0.00  0.00     0.039 A 
ATOM      5  S   UNL d   1     -41.323-123.817 -53.389  0.00  0.00    -0.065 SA
ATOM      6  N   UNL d   1     -41.962-123.785 -54.720  0.00  0.00    -0.141 N 
ENDROOT
BRANCH   2   7
ATOM      7  C   UNL d   1     -41.293-121.794 -52.750  0.00  0.00     0.101 A 
ATOM      8  O   UNL d   1     -41.273-120.996 -52.810  0.00  0.00    -0.307 OA
ATOM      9  C   UNL d   1     -41.185-120.700 -52.076  0.00  0.00     0.100 A 
ATOM     10  C   UNL d   1     -41.140-119.886 -51.904  0.00  0.00     0.027 C 
ATOM     11  C   UNL d   1     -41.146-121.288 -51.533  0.00  0.00     0.027 A 
ATOM     12  C   UNL d   1     -41.217-121.984 -51.984  0.00  0.00     0.027 A 
ENDBRANCH   2   7
BRANCH   1  13
ATOM     13  C   UNL d   1     -42.001-122.054 -54.310  0.00  0.00     0.302 C 
ATOM     14  O   UNL d   1     -42.736-121.760 -54.209  0.00  0.00    -0.259 OA
BRANCH  13  15
ATOM     15  O   UNL d   1     -41.524-121.759 -54.938  0.00  0.00    -0.271 OA
BRANCH  15  16
ATOM     16  C   UNL d   1     -41.878-121.393 -55.554  0.00  0.00     0.126 C 
ATOM     17  C   UNL d   1     -41.426-121.227 -56.245  0.00  0.00     0.029 C 
ENDBRANCH  15  16
ENDBRANCH  13  15
ENDBRANCH   1  13
TORSDOF 4
ENDMDL
MODEL 3
REMARK VINA RESULT:       1.0      2.850      4.517
REMARK  4 active torsions:
REMARK  status: ('A' for Active; 'I' for Inactive)
REMARK    1  A    between atoms: C_8  and  C_1 
REMARK    2  A    between atoms: C_3  and  C_2 
REMARK    3  A    between atoms: O_14  and  C_8 
REMARK    4  A    between atoms: C_16  and  O_14 
ROOT
ATOM      1  C   UNL d   1     -42.355-123.403 -49.982  0.00  0.00     0.091 A 
ATOM      2  C   UNL d   1     -41.891-123.599 -49.328  0.00  0.00     0.036 A 
ATOM      3  C   UNL d   1     -41.877-123.396 -50.658  0.00  0.00     0.138 A 
ATOM      4  C   UNL d   1     -41.127-123.710 -49.622  0.00  0.00     0.039 A 
ATOM      5  S   UNL d   1     -41.126-123.588 -50.416  0.00  0.00    -0.065 SA
ATOM      6  N   UNL d   1     -42.130-123.224 -51.437  0.00  0.00    -0.141 N 
ENDROOT
BRANCH   2   7
ATOM      7  C   UNL d   1     -42.206-123.649 -48.590  0.00  0.00     0.101 A 
ATOM      8  O   UNL d   1     -42.833-123.728 -48.099  0.00  0.00    -0.307 OA
ATOM      9  C   UNL d   1     -42.559-123.712 -47.352  0.00  0.00     0.100 A 
ATOM     10  C   UNL d   1     -43.043-123.779 -46.677  0.00  0.00     0.027 C 
ATOM     11  C   UNL d   1     -41.763-123.624 -47.341  0.00  0.00     0.027 A 
ATOM     12  C   UNL d   1     -41.552-123.584 -48.145  0.00  0.00     0.027 A 
ENDBRANCH   2   7
BRANCH   1  13
ATOM     13  C   UNL d   1     -43.152-123.239 -49.982  0.00  0.00     0.302 C 
ATOM     14  O   UNL d   1     -43.707-123.812 -49.942  0.00  0.00    -0.259 OA
BRANCH  13  15
ATOM     15  O   UNL d   1     -43.398-122.435 -50.026  0.00  0.00    -0.271 OA
BRANCH  15  16
ATOM     16  C   UNL d   1     -44.156-122.270 -50.218  0.00  0.00     0.126 C 
ATOM     17  C   UNL d   1     -44.446-121.488 -50.104  0.00  0.00     0.029 C 
ENDBRANCH  15  16
ENDBRANCH  13  15
ENDBRANCH   1  13
TORSDOF 4
ENDMDL
MODEL 4
REMARK VINA RESULT:       1.1      2.126      2.954
REMARK  4 active torsions:
REMARK  status: ('A' for Active; 'I' for Inactive)
REMARK    1  A    between atoms: C_8  and  C_1 
REMARK    2  A    between atoms: C_3  and  C_2 
REMARK    3  A    between atoms: O_14  and  C_8 
REMARK    4  A    between atoms: C_16  and  O_14 
ROOT
ATOM      1  C   UNL d   1     -42.412-123.343 -49.364  0.00  0.00     0.091 A 
ATOM      2  C   UNL d   1     -41.680-123.334 -49.745  0.00  0.00     0.036 A 
ATOM      3  C   UNL d   1     -42.298-123.531 -48.566  0.00  0.00     0.138 A 
ATOM      4  C   UNL d   1     -41.123-123.519 -49.164  0.00  0.00     0.039 A 
ATOM      5  S   UNL d   1     -41.499-123.636 -48.463  0.00  0.00    -0.065 SA
ATOM      6  N   UNL d   1     -42.897-123.598 -47.986  0.00  0.00    -0.141 N 
ENDROOT
BRANCH   2   7
ATOM      7  C   UNL d   1     -41.616-123.167 -50.529  0.00  0.00     0.101 A 
ATOM      8  O   UNL d   1     -41.739-122.684 -51.156  0.00  0.00    -0.307 OA
ATOM      9  C   UNL d   1     -41.441-123.043 -51.800  0.00  0.00     0.100 A 
ATOM     10  C   UNL d   1     -41.461-122.716 -52.566  0.00  0.00     0.027 C 
ATOM     11  C   UNL d   1     -41.123-123.753 -51.611  0.00  0.00     0.027 A 
ATOM     12  C   UNL d   1     -41.244-123.817 -50.790  0.00  0.00     0.027 A 
ENDBRANCH   2   7
BRANCH   1  13
ATOM     13  C   UNL d   1     -43.138-123.194 -49.701  0.00  0.00     0.302 C 
ATOM     14  O   UNL d   1     -43.590-123.772 -50.017  0.00  0.00    -0.259 OA
BRANCH  13  15
ATOM     15  O   UNL d   1     -43.420-122.401 -49.715  0.00  0.00    -0.271 OA
BRANCH  15  16
ATOM     16  C   UNL d   1     -44.196-122.267 -49.854  0.00  0.00     0.126 C 
ATOM     17  C   UNL d   1     -44.423-121.566 -50.262  0.00  0.00     0.029 C 
ENDBRANCH  15  16
ENDBRANCH  13  15
ENDBRANCH   1  13
TORSDOF 4
ENDMDL
