MODEL 1
REMARK VINA RESULT:      -3.5      0.000      0.000
REMARK  5 active torsions:
REMARK  status: ('A' for Active; 'I' for Inactive)
REMARK       I    between atoms: C_3  and  N_1 
REMARK    1  A    between atoms: C_12  and  C_3 
REMARK    2  A    between atoms: C_7  and  O_10 
REMARK    3  A    between atoms: O_10  and  C_21 
REMARK    4  A    between atoms: C_22  and  C_12 
REMARK    5  A    between atoms: C_21  and  C_22 
ROOT
ATOM      1  N   UNL d   1      32.667  21.954 -20.948  0.00  0.00    -0.273 N 
ATOM      2  C   UNL d   1      32.780  22.372 -20.245  0.00  0.00     0.067 A 
ATOM      3  C   UNL d   1      32.896  21.163 -20.998  0.00  0.00     0.265 C 
ATOM      4  C   UNL d   1      32.551  23.164 -20.194  0.00  0.00     0.016 A 
ATOM      5  O   UNL d   1      33.239  20.791 -20.347  0.00  0.00    -0.267 OA
ATOM      6  C   UNL d   1      32.324  22.326 -21.598  0.00  0.00     0.083 A 
ATOM      7  C   UNL d   1      33.123  22.000 -19.595  0.00  0.00     0.018 A 
ATOM      8  C   UNL d   1      32.094  23.117 -21.546  0.00  0.00     0.019 A 
ATOM      9  C   UNL d   1      32.208  23.536 -20.845  0.00  0.00     0.003 A 
ATOM     10  C   UNL d   1      32.665  23.581 -19.492  0.00  0.00     0.001 A 
ATOM     11  C   UNL d   1      33.237  22.419 -18.892  0.00  0.00     0.002 A 
ATOM     12  C   UNL d   1      33.007  23.209 -18.842  0.00  0.00     0.000 A 
ENDROOT
BRANCH   3  13
ATOM     13  C   UNL d   1      32.782  20.745 -21.700  0.00  0.00     0.063 C 
BRANCH  13  14
ATOM     14  C   UNL d   1      32.987  19.946 -21.743  0.00  0.00     0.032 C 
BRANCH  14  15
ATOM     15  C   UNL d   1      32.898  19.535 -22.452  0.00  0.00     0.123 C 
BRANCH  15  16
ATOM     16  O   UNL d   1      33.077  18.730 -22.488  0.00  0.00    -0.305 OA
BRANCH  16  17
ATOM     17  C   UNL d   1      32.907  18.300 -23.171  0.00  0.00     0.100 A 
ATOM     18  C   UNL d   1      32.988  17.478 -23.171  0.00  0.00     0.023 A 
ATOM     19  C   UNL d   1      32.818  17.048 -23.854  0.00  0.00     0.002 A 
ATOM     20  C   UNL d   1      33.239  17.088 -22.490  0.00  0.00     0.002 C 
ATOM     21  C   UNL d   1      32.900  16.234 -23.850  0.00  0.00     0.000 C 
ATOM     22  C   UNL d   1      32.567  17.438 -24.535  0.00  0.00     0.000 A 
ATOM     23  C   UNL d   1      32.485  18.258 -24.534  0.00  0.00     0.002 A 
ATOM     24  C   UNL d   1      32.656  18.689 -23.852  0.00  0.00     0.025 A 
ENDBRANCH  16  17
ENDBRANCH  15  16
ENDBRANCH  14  15
ENDBRANCH  13  14
ENDBRANCH   3  13
TORSDOF 5
ENDMDL
MODEL 2
REMARK VINA RESULT:      -3.4      0.773      1.026
REMARK  5 active torsions:
REMARK  status: ('A' for Active; 'I' for Inactive)
REMARK       I    between atoms: C_3  and  N_1 
REMARK    1  A    between atoms: C_12  and  C_3 
REMARK    2  A    between atoms: C_7  and  O_10 
REMARK    3  A    between atoms: O_10  and  C_21 
REMARK    4  A    between atoms: C_22  and  C_12 
REMARK    5  A    between atoms: C_21  and  C_22 
ROOT
ATOM      1  N   UNL d   1      33.015  21.793 -21.905  0.00  0.00    -0.273 N 
ATOM      2  C   UNL d   1      32.824  22.334 -21.312  0.00  0.00     0.067 A 
ATOM      3  C   UNL d   1      32.998  20.984 -21.745  0.00  0.00     0.265 C 
ATOM      4  C   UNL d   1      32.841  23.144 -21.472  0.00  0.00     0.016 A 
ATOM      5  O   UNL d   1      32.791  20.716 -20.994  0.00  0.00    -0.267 OA
ATOM      6  C   UNL d   1      33.223  22.060 -22.656  0.00  0.00     0.083 A 
ATOM      7  C   UNL d   1      32.616  22.067 -20.561  0.00  0.00     0.018 A 
ATOM      8  C   UNL d   1      33.240  22.870 -22.816  0.00  0.00     0.019 A 
ATOM      9  C   UNL d   1      33.049  23.412 -22.223  0.00  0.00     0.003 A 
ATOM     10  C   UNL d   1      32.650  23.685 -20.880  0.00  0.00     0.001 A 
ATOM     11  C   UNL d   1      32.425  22.609 -19.968  0.00  0.00     0.002 A 
ATOM     12  C   UNL d   1      32.442  23.418 -20.128  0.00  0.00     0.000 A 
ENDROOT
BRANCH   3  13
ATOM     13  C   UNL d   1      33.189  20.442 -22.338  0.00  0.00     0.063 C 
BRANCH  13  14
ATOM     14  C   UNL d   1      33.016  19.641 -22.236  0.00  0.00     0.032 C 
BRANCH  14  15
ATOM     15  C   UNL d   1      32.866  19.166 -22.893  0.00  0.00     0.123 C 
BRANCH  15  16
ATOM     16  O   UNL d   1      32.964  18.347 -22.841  0.00  0.00    -0.305 OA
BRANCH  16  17
ATOM     17  C   UNL d   1      32.610  17.854 -23.399  0.00  0.00     0.100 A 
ATOM     18  C   UNL d   1      32.749  17.040 -23.377  0.00  0.00     0.023 A 
ATOM     19  C   UNL d   1      32.394  16.547 -23.935  0.00  0.00     0.002 A 
ATOM     20  C   UNL d   1      33.241  16.722 -22.798  0.00  0.00     0.002 C 
ATOM     21  C   UNL d   1      32.534  15.742 -23.910  0.00  0.00     0.000 C 
ATOM     22  C   UNL d   1      31.902  16.865 -24.514  0.00  0.00     0.000 A 
ATOM     23  C   UNL d   1      31.763  17.678 -24.536  0.00  0.00     0.002 A 
ATOM     24  C   UNL d   1      32.117  18.173 -23.978  0.00  0.00     0.025 A 
ENDBRANCH  16  17
ENDBRANCH  15  16
ENDBRANCH  14  15
ENDBRANCH  13  14
ENDBRANCH   3  13
TORSDOF 5
ENDMDL
