MODEL 1
REMARK VINA RESULT:      44.7      0.000      0.000
REMARK  6 active torsions:
REMARK  status: ('A' for Active; 'I' for Inactive)
REMARK    1  A    between atoms: N_3  and  C_1 
REMARK    2  A    between atoms: C_16  and  N_2 
REMARK       I    between atoms: C_7  and  N_3 
REMARK    3  A    between atoms: C_14  and  C_7 
REMARK    4  A    between atoms: C_10  and  S_11 
REMARK    5  A    between atoms: S_11  and  C_14 
REMARK    6  A    between atoms: O_18  and  C_15 
ROOT
ATOM      1  C   UNL d   1     -50.288  27.027  33.489  0.00  0.00     0.182 A 
ATOM      2  N   UNL d   1     -51.101  26.906  33.399  0.00  0.00    -0.285 N 
ATOM      3  S   UNL d   1     -49.922  26.283  33.530  0.00  0.00    -0.048 SA
ATOM      4  C   UNL d   1     -50.515  25.704  33.463  0.00  0.00     0.050 A 
ATOM      5  C   UNL d   1     -51.242  26.088  33.383  0.00  0.00     0.072 A 
ATOM      6  C   UNL d   1     -50.474  24.875  33.467  0.00  0.00     0.032 A 
ATOM      7  C   UNL d   1     -51.929  25.645  33.306  0.00  0.00     0.020 A 
ATOM      8  C   UNL d   1     -51.171  24.447  33.390  0.00  0.00     0.095 A 
ATOM      9  C   UNL d   1     -51.898  24.831  33.309  0.00  0.00     0.026 A 
ENDROOT
BRANCH   1  10
ATOM     10  N   UNL d   1     -49.905  27.759  33.532  0.00  0.00    -0.183 NA
ATOM     11  C   UNL d   1     -49.230  27.620  33.995  0.00  0.00     0.288 C 
ATOM     12  O   UNL d   1     -49.082  26.860  34.294  0.00  0.00    -0.265 OA
BRANCH  11  13
ATOM     13  C   UNL d   1     -48.706  28.229  34.160  0.00  0.00     0.101 C 
BRANCH  13  14
ATOM     14  S   UNL d   1     -48.391  28.318  34.923  0.00  0.00    -0.040 SA
BRANCH  14  15
ATOM     15  C   UNL d   1     -47.979  29.013  35.126  0.00  0.00     0.226 C 
ATOM     16  O   UNL d   1     -48.392  29.725  35.179  0.00  0.00    -0.279 OA
ATOM     17  C   UNL d   1     -47.175  28.982  35.271  0.00  0.00     0.053 C 
ENDBRANCH  14  15
ENDBRANCH  13  14
ENDBRANCH  11  13
ENDBRANCH   1  10
BRANCH   2  18
ATOM     18  C   UNL d   1     -51.665  27.497  33.337  0.00  0.00     0.082 C 
ATOM     19  C   UNL d   1     -51.832  27.989  33.977  0.00  0.00     0.021 C 
ENDBRANCH   2  18
BRANCH   8  20
ATOM     20  O   UNL d   1     -51.144  23.617  33.392  0.00  0.00    -0.328 OA
ATOM     21  C   UNL d   1     -51.761  23.188  33.717  0.00  0.00     0.181 C 
ENDBRANCH   8  20
TORSDOF 6
ENDMDL
