MODEL 1
REMARK VINA RESULT:      -6.3      0.000      0.000
REMARK  8 active torsions:
REMARK  status: ('A' for Active; 'I' for Inactive)
REMARK    1  A    between atoms: C_7  and  C_1 
REMARK    2  A    between atoms: C_2  and  O_5 
REMARK    3  A    between atoms: C_4  and  C_2 
REMARK    4  A    between atoms: O_5  and  C_3 
REMARK    5  A    between atoms: C_6  and  C_7 
REMARK    6  A    between atoms: C_8  and  C_6 
REMARK    7  A    between atoms: C_11  and  C_8 
REMARK    8  A    between atoms: O_22  and  C_18 
ROOT
ATOM      1  C   UNL d   1     -47.095  13.297  22.318  0.00  0.00     0.062 A 
ATOM      2  C   UNL d   1     -46.383  13.070  22.690  0.00  0.00     0.106 A 
ATOM      3  C   UNL d   1     -47.299  14.095  22.285  0.00  0.00     0.012 A 
ATOM      4  C   UNL d   1     -45.896  13.644  23.017  0.00  0.00     0.025 A 
ATOM      5  C   UNL d   1     -46.806  14.663  22.615  0.00  0.00     0.035 A 
ATOM      6  C   UNL d   1     -46.100  14.439  22.983  0.00  0.00     0.009 A 
ATOM      7 BR   UNL d   1     -47.012  15.462  22.580  0.00  0.00    -0.049 Br
ENDROOT
BRANCH   1   8
ATOM      8  C   UNL d   1     -47.589  12.724  21.988  0.00  0.00     0.198 C 
ATOM      9  O   UNL d   1     -47.447  12.453  21.220  0.00  0.00    -0.286 OA
BRANCH   8  10
ATOM     10  C   UNL d   1     -48.221  12.424  22.421  0.00  0.00     0.042 C 
BRANCH  10  11
ATOM     11  C   UNL d   1     -48.978  12.411  22.093  0.00  0.00     0.005 C 
BRANCH  11  12
ATOM     12  C   UNL d   1     -49.637  12.240  22.571  0.00  0.00     0.022 A 
ATOM     13  C   UNL d   1     -50.372  12.581  22.357  0.00  0.00     0.094 A 
ATOM     14  C   UNL d   1     -51.028  12.395  22.854  0.00  0.00     0.024 A 
ATOM     15  C   UNL d   1     -50.946  11.903  23.514  0.00  0.00     0.002 A 
ATOM     16  C   UNL d   1     -50.195  11.579  23.697  0.00  0.00     0.000 A 
ATOM     17  C   UNL d   1     -49.544  11.752  23.221  0.00  0.00     0.002 A 
BRANCH  13  18
ATOM     18  O   UNL d   1     -50.458  13.071  21.701  0.00  0.00    -0.328 OA
ATOM     19  C   UNL d   1     -51.027  13.671  21.701  0.00  0.00     0.181 C 
ENDBRANCH  13  18
ENDBRANCH  11  12
ENDBRANCH  10  11
ENDBRANCH   8  10
ENDBRANCH   1   8
BRANCH   2  20
ATOM     20  O   UNL d   1     -46.179  12.275  22.724  0.00  0.00    -0.271 OA
BRANCH  20  21
ATOM     21  C   UNL d   1     -45.380  12.059  22.735  0.00  0.00     0.323 C 
ATOM     22  O   UNL d   1     -44.808  12.541  22.376  0.00  0.00    -0.257 OA
BRANCH  21  23
ATOM     23  C   UNL d   1     -45.147  11.360  23.105  0.00  0.00     0.163 A 
ATOM     24  O   UNL d   1     -44.378  11.170  23.335  0.00  0.00    -0.300 OA
ATOM     25  C   UNL d   1     -44.398  10.412  23.686  0.00  0.00     0.123 A 
ATOM     26  C   UNL d   1     -45.177  10.142  23.669  0.00  0.00     0.029 A 
ATOM     27  C   UNL d   1     -45.640  10.728  23.310  0.00  0.00     0.032 A 
ENDBRANCH  21  23
ENDBRANCH  20  21
ENDBRANCH   2  20
TORSDOF 8
ENDMDL
MODEL 2
REMARK VINA RESULT:      -5.4      1.199      4.634
REMARK  8 active torsions:
REMARK  status: ('A' for Active; 'I' for Inactive)
REMARK    1  A    between atoms: C_7  and  C_1 
REMARK    2  A    between atoms: C_2  and  O_5 
REMARK    3  A    between atoms: C_4  and  C_2 
REMARK    4  A    between atoms: O_5  and  C_3 
REMARK    5  A    between atoms: C_6  and  C_7 
REMARK    6  A    between atoms: C_8  and  C_6 
REMARK    7  A    between atoms: C_11  and  C_8 
REMARK    8  A    between atoms: O_22  and  C_18 
ROOT
ATOM      1  C   UNL d   1     -47.418  13.779  22.710  0.00  0.00     0.062 A 
ATOM      2  C   UNL d   1     -48.204  13.540  22.561  0.00  0.00     0.106 A 
ATOM      3  C   UNL d   1     -47.207  14.569  22.601  0.00  0.00     0.012 A 
ATOM      4  C   UNL d   1     -48.755  14.093  22.309  0.00  0.00     0.025 A 
ATOM      5  C   UNL d   1     -47.765  15.116  22.349  0.00  0.00     0.035 A 
ATOM      6  C   UNL d   1     -48.544  14.879  22.202  0.00  0.00     0.009 A 
ATOM      7 BR   UNL d   1     -47.551  15.907  22.241  0.00  0.00    -0.049 Br
ENDROOT
BRANCH   1   8
ATOM      8  C   UNL d   1     -46.859  13.228  22.963  0.00  0.00     0.198 C 
ATOM      9  O   UNL d   1     -47.002  12.782  23.645  0.00  0.00    -0.286 OA
BRANCH   8  10
ATOM     10  C   UNL d   1     -46.161  13.122  22.540  0.00  0.00     0.042 C 
BRANCH  10  11
ATOM     11  C   UNL d   1     -45.647  12.508  22.736  0.00  0.00     0.005 C 
BRANCH  11  12
ATOM     12  C   UNL d   1     -44.885  12.478  22.403  0.00  0.00     0.022 A 
ATOM     13  C   UNL d   1     -44.371  11.870  22.662  0.00  0.00     0.094 A 
ATOM     14  C   UNL d   1     -43.603  11.857  22.312  0.00  0.00     0.024 A 
ATOM     15  C   UNL d   1     -43.376  12.414  21.745  0.00  0.00     0.002 A 
ATOM     16  C   UNL d   1     -43.918  13.009  21.509  0.00  0.00     0.000 A 
ATOM     17  C   UNL d   1     -44.672  13.035  21.843  0.00  0.00     0.002 A 
BRANCH  13  18
ATOM     18  O   UNL d   1     -44.592  11.313  23.226  0.00  0.00    -0.328 OA
ATOM     19  C   UNL d   1     -44.060  10.727  23.465  0.00  0.00     0.181 C 
ENDBRANCH  13  18
ENDBRANCH  11  12
ENDBRANCH  10  11
ENDBRANCH   8  10
ENDBRANCH   1   8
BRANCH   2  20
ATOM     20  O   UNL d   1     -48.415  12.754  22.669  0.00  0.00    -0.271 OA
BRANCH  20  21
ATOM     21  C   UNL d   1     -49.143  12.484  22.384  0.00  0.00     0.323 C 
ATOM     22  O   UNL d   1     -49.342  12.573  21.584  0.00  0.00    -0.257 OA
BRANCH  21  23
ATOM     23  C   UNL d   1     -49.679  12.124  22.897  0.00  0.00     0.163 A 
ATOM     24  O   UNL d   1     -49.626  11.353  23.186  0.00  0.00    -0.300 OA
ATOM     25  C   UNL d   1     -50.284  11.222  23.685  0.00  0.00     0.123 A 
ATOM     26  C   UNL d   1     -50.735  11.912  23.698  0.00  0.00     0.029 A 
ATOM     27  C   UNL d   1     -50.362  12.470  23.211  0.00  0.00     0.032 A 
ENDBRANCH  21  23
ENDBRANCH  20  21
ENDBRANCH   2  20
TORSDOF 8
ENDMDL
MODEL 3
REMARK VINA RESULT:      -4.1      1.903      2.739
REMARK  8 active torsions:
REMARK  status: ('A' for Active; 'I' for Inactive)
REMARK    1  A    between atoms: C_7  and  C_1 
REMARK    2  A    between atoms: C_2  and  O_5 
REMARK    3  A    between atoms: C_4  and  C_2 
REMARK    4  A    between atoms: O_5  and  C_3 
REMARK    5  A    between atoms: C_6  and  C_7 
REMARK    6  A    between atoms: C_8  and  C_6 
REMARK    7  A    between atoms: C_11  and  C_8 
REMARK    8  A    between atoms: O_22  and  C_18 
ROOT
ATOM      1  C   UNL d   1     -46.830  12.416  23.056  0.00  0.00     0.062 A 
ATOM      2  C   UNL d   1     -46.050  12.130  22.980  0.00  0.00     0.106 A 
ATOM      3  C   UNL d   1     -47.430  11.900  23.289  0.00  0.00     0.012 A 
ATOM      4  C   UNL d   1     -45.890  11.340  23.139  0.00  0.00     0.025 A 
ATOM      5  C   UNL d   1     -47.262  11.112  23.446  0.00  0.00     0.035 A 
ATOM      6  C   UNL d   1     -46.488  10.828  23.371  0.00  0.00     0.009 A 
ATOM      7 BR   UNL d   1     -47.865  10.597  23.680  0.00  0.00    -0.049 Br
ENDROOT
BRANCH   1   8
ATOM      8  C   UNL d   1     -46.997  13.208  22.897  0.00  0.00     0.198 C 
ATOM      9  O   UNL d   1     -46.524  13.801  23.227  0.00  0.00    -0.286 OA
BRANCH   8  10
ATOM     10  C   UNL d   1     -47.632  13.408  22.413  0.00  0.00     0.042 C 
BRANCH  10  11
ATOM     11  C   UNL d   1     -48.048  14.108  22.544  0.00  0.00     0.005 C 
BRANCH  11  12
ATOM     12  C   UNL d   1     -48.800  14.217  22.205  0.00  0.00     0.022 A 
ATOM     13  C   UNL d   1     -49.293  14.808  22.535  0.00  0.00     0.094 A 
ATOM     14  C   UNL d   1     -50.052  14.903  22.177  0.00  0.00     0.024 A 
ATOM     15  C   UNL d   1     -50.290  14.436  21.537  0.00  0.00     0.002 A 
ATOM     16  C   UNL d   1     -49.769  13.854  21.233  0.00  0.00     0.000 A 
ATOM     17  C   UNL d   1     -49.024  13.749  21.572  0.00  0.00     0.002 A 
BRANCH  13  18
ATOM     18  O   UNL d   1     -49.060  15.275  23.171  0.00  0.00    -0.328 OA
ATOM     19  C   UNL d   1     -49.520  15.921  23.405  0.00  0.00     0.181 C 
ENDBRANCH  13  18
ENDBRANCH  11  12
ENDBRANCH  10  11
ENDBRANCH   8  10
ENDBRANCH   1   8
BRANCH   2  20
ATOM     20  O   UNL d   1     -45.451  12.641  22.748  0.00  0.00    -0.271 OA
BRANCH  20  21
ATOM     21  C   UNL d   1     -44.679  12.357  22.666  0.00  0.00     0.323 C 
ATOM     22  O   UNL d   1     -44.411  11.726  23.133  0.00  0.00    -0.257 OA
BRANCH  21  23
ATOM     23  C   UNL d   1     -44.168  12.699  22.117  0.00  0.00     0.163 A 
ATOM     24  O   UNL d   1     -43.866  13.466  22.153  0.00  0.00    -0.300 OA
ATOM     25  C   UNL d   1     -43.375  13.577  21.485  0.00  0.00     0.123 A 
ATOM     26  C   UNL d   1     -43.380  12.880  21.045  0.00  0.00     0.029 A 
ATOM     27  C   UNL d   1     -43.870  12.337  21.435  0.00  0.00     0.032 A 
ENDBRANCH  21  23
ENDBRANCH  20  21
ENDBRANCH   2  20
TORSDOF 8
ENDMDL
MODEL 4
REMARK VINA RESULT:      -3.5      1.743      4.937
REMARK  8 active torsions:
REMARK  status: ('A' for Active; 'I' for Inactive)
REMARK    1  A    between atoms: C_7  and  C_1 
REMARK    2  A    between atoms: C_2  and  O_5 
REMARK    3  A    between atoms: C_4  and  C_2 
REMARK    4  A    between atoms: O_5  and  C_3 
REMARK    5  A    between atoms: C_6  and  C_7 
REMARK    6  A    between atoms: C_8  and  C_6 
REMARK    7  A    between atoms: C_11  and  C_8 
REMARK    8  A    between atoms: O_22  and  C_18 
ROOT
ATOM      1  C   UNL d   1     -48.030  12.975  22.192  0.00  0.00     0.062 A 
ATOM      2  C   UNL d   1     -48.783  13.319  22.302  0.00  0.00     0.106 A 
ATOM      3  C   UNL d   1     -47.899  12.489  21.539  0.00  0.00     0.012 A 
ATOM      4  C   UNL d   1     -49.381  13.169  21.759  0.00  0.00     0.025 A 
ATOM      5  C   UNL d   1     -48.502  12.344  21.001  0.00  0.00     0.035 A 
ATOM      6  C   UNL d   1     -49.247  12.685  21.110  0.00  0.00     0.009 A 
ATOM      7 BR   UNL d   1     -48.366  11.856  20.348  0.00  0.00    -0.049 Br
ENDROOT
BRANCH   1   8
ATOM      8  C   UNL d   1     -47.426  13.122  22.734  0.00  0.00     0.198 C 
ATOM      9  O   UNL d   1     -47.322  13.885  23.035  0.00  0.00    -0.286 OA
BRANCH   8  10
ATOM     10  C   UNL d   1     -46.928  12.512  22.973  0.00  0.00     0.042 C 
BRANCH  10  11
ATOM     11  C   UNL d   1     -46.116  12.641  23.036  0.00  0.00     0.005 C 
BRANCH  11  12
ATOM     12  C   UNL d   1     -45.598  11.998  23.138  0.00  0.00     0.022 A 
ATOM     13  C   UNL d   1     -44.849  12.039  22.765  0.00  0.00     0.094 A 
ATOM     14  C   UNL d   1     -44.338  11.377  22.881  0.00  0.00     0.024 A 
ATOM     15  C   UNL d   1     -44.568  10.728  23.339  0.00  0.00     0.002 A 
ATOM     16  C   UNL d   1     -45.326  10.722  23.698  0.00  0.00     0.000 A 
ATOM     17  C   UNL d   1     -45.837  11.362  23.593  0.00  0.00     0.002 A 
BRANCH  13  18
ATOM     18  O   UNL d   1     -44.616  12.683  22.308  0.00  0.00    -0.328 OA
ATOM     19  C   UNL d   1     -43.902  12.663  21.892  0.00  0.00     0.181 C 
ENDBRANCH  13  18
ENDBRANCH  11  12
ENDBRANCH  10  11
ENDBRANCH   8  10
ENDBRANCH   1   8
BRANCH   2  20
ATOM     20  O   UNL d   1     -48.916  13.803  22.951  0.00  0.00    -0.271 OA
BRANCH  20  21
ATOM     21  C   UNL d   1     -49.681  13.870  23.261  0.00  0.00     0.323 C 
ATOM     22  O   UNL d   1     -50.133  13.193  23.417  0.00  0.00    -0.257 OA
BRANCH  21  23
ATOM     23  C   UNL d   1     -49.999  14.615  23.417  0.00  0.00     0.163 A 
ATOM     24  O   UNL d   1     -49.568  15.300  23.571  0.00  0.00    -0.300 OA
ATOM     25  C   UNL d   1     -50.114  15.922  23.697  0.00  0.00     0.123 A 
ATOM     26  C   UNL d   1     -50.874  15.613  23.619  0.00  0.00     0.029 A 
ATOM     27  C   UNL d   1     -50.804  14.805  23.446  0.00  0.00     0.032 A 
ENDBRANCH  21  23
ENDBRANCH  20  21
ENDBRANCH   2  20
TORSDOF 8
ENDMDL
