MODEL 1
REMARK VINA RESULT:      -2.5      0.000      0.000
REMARK  2 active torsions:
REMARK  status: ('A' for Active; 'I' for Inactive)
REMARK    1  A    between atoms: C_2  and  S_1 
REMARK    2  A    between atoms: N_4  and  S_1 
ROOT
ATOM      1  S   UNL d   1      30.394  16.216 -24.055  0.00  0.00     0.275 S 
ATOM      2  O   UNL d   1      30.220  15.558 -24.514  0.00  0.00    -0.199 OA
ATOM      3  O   UNL d   1      30.573  16.873 -23.597  0.00  0.00    -0.199 OA
ENDROOT
BRANCH   1   4
ATOM      4  C   UNL d   1      29.596  16.356 -23.923  0.00  0.00     0.143 A 
ATOM      5  C   UNL d   1      29.126  16.879 -24.357  0.00  0.00     0.117 A 
ATOM      6  N   UNL d   1      28.365  16.850 -24.042  0.00  0.00    -0.147 NA
ATOM      7  C   UNL d   1      29.369  17.347 -24.991  0.00  0.00     0.023 C 
ATOM      8  N   UNL d   1      28.370  16.309 -23.415  0.00  0.00    -0.147 NA
ATOM      9  C   UNL d   1      29.131  16.010 -23.349  0.00  0.00     0.117 A 
ATOM     10  C   UNL d   1      29.381  15.454 -22.795  0.00  0.00     0.023 C 
ENDBRANCH   1   4
BRANCH   1  11
ATOM     11  N   UNL d   1      31.207  16.102 -24.168  0.00  0.00    -0.225 N 
ATOM     12  C   UNL d   1      31.754  16.531 -23.707  0.00  0.00     0.118 A 
ATOM     13  C   UNL d   1      32.566  16.418 -23.821  0.00  0.00     0.142 A 
ATOM     14  O   UNL d   1      32.835  15.883 -24.386  0.00  0.00    -0.300 OA
ATOM     15  C   UNL d   1      32.294  15.458 -24.842  0.00  0.00     0.142 A 
ATOM     16  C   UNL d   1      31.479  15.566 -24.735  0.00  0.00     0.118 A 
ENDBRANCH   1  11
TORSDOF 2
ENDMDL
MODEL 2
REMARK VINA RESULT:      -2.2      1.765      2.583
REMARK  2 active torsions:
REMARK  status: ('A' for Active; 'I' for Inactive)
REMARK    1  A    between atoms: C_2  and  S_1 
REMARK    2  A    between atoms: N_4  and  S_1 
ROOT
ATOM      1  S   UNL d   1      31.746  17.278 -24.271  0.00  0.00     0.275 S 
ATOM      2  O   UNL d   1      31.756  17.564 -25.040  0.00  0.00    -0.199 OA
ATOM      3  O   UNL d   1      31.739  16.995 -23.500  0.00  0.00    -0.199 OA
ENDROOT
BRANCH   1   4
ATOM      4  C   UNL d   1      31.253  16.659 -24.489  0.00  0.00     0.143 A 
ATOM      5  C   UNL d   1      31.504  15.905 -24.711  0.00  0.00     0.117 A 
ATOM      6  N   UNL d   1      30.833  15.459 -24.884  0.00  0.00    -0.147 NA
ATOM      7  C   UNL d   1      32.284  15.639 -24.754  0.00  0.00     0.023 C 
ATOM      8  N   UNL d   1      30.171  15.942 -24.768  0.00  0.00    -0.147 NA
ATOM      9  C   UNL d   1      30.437  16.678 -24.525  0.00  0.00     0.117 A 
ATOM     10  C   UNL d   1      29.961  17.326 -24.347  0.00  0.00     0.023 C 
ENDBRANCH   1   4
BRANCH   1  11
ATOM     11  N   UNL d   1      32.243  17.890 -24.017  0.00  0.00    -0.225 N 
ATOM     12  C   UNL d   1      32.527  18.450 -24.567  0.00  0.00     0.118 A 
ATOM     13  C   UNL d   1      33.024  19.061 -24.312  0.00  0.00     0.142 A 
ATOM     14  O   UNL d   1      33.239  19.118 -23.520  0.00  0.00    -0.300 OA
ATOM     15  C   UNL d   1      32.960  18.564 -22.975  0.00  0.00     0.142 A 
ATOM     16  C   UNL d   1      32.461  17.948 -23.222  0.00  0.00     0.118 A 
ENDBRANCH   1  11
TORSDOF 2
ENDMDL
