MODEL 1
REMARK VINA RESULT:      68.0      0.000      0.000
REMARK  5 active torsions:
REMARK  status: ('A' for Active; 'I' for Inactive)
REMARK    1  A    between atoms: C_10  and  N_6 
REMARK    2  A    between atoms: S_13  and  C_9 
REMARK    3  A    between atoms: C_14  and  C_10 
REMARK    4  A    between atoms: C_22  and  S_13 
REMARK    5  A    between atoms: C_24  and  C_22 
ROOT
ATOM      1  C   UNL d   1     -51.623  25.737  33.317  0.00  0.00     0.174 A 
ATOM      2  C   UNL d   1     -50.799  25.717  33.327  0.00  0.00     0.158 A 
ATOM      3  N   UNL d   1     -51.857  26.517  33.308  0.00  0.00    -0.203 NA
ATOM      4  N   UNL d   1     -52.044  25.031  33.316  0.00  0.00    -0.240 N 
ATOM      5  N   UNL d   1     -50.835  24.268  33.338  0.00  0.00    -0.223 N 
ATOM      6  N   UNL d   1     -50.458  26.540  33.326  0.00  0.00    -0.279 N 
ATOM      7  C   UNL d   1     -51.659  24.288  33.327  0.00  0.00     0.343 A 
ATOM      8  C   UNL d   1     -50.397  24.991  33.338  0.00  0.00     0.287 A 
ATOM      9  C   UNL d   1     -51.159  26.974  33.313  0.00  0.00     0.181 A 
ATOM     10  O   UNL d   1     -52.080  23.571  33.327  0.00  0.00    -0.245 OA
ATOM     11  O   UNL d   1     -49.572  24.970  33.349  0.00  0.00    -0.265 OA
ATOM     12  C   UNL d   1     -52.868  25.052  33.306  0.00  0.00     0.105 C 
ATOM     13  C   UNL d   1     -50.433  23.542  33.348  0.00  0.00     0.107 C 
ENDROOT
BRANCH   6  14
ATOM     14  C   UNL d   1     -49.673  26.788  33.334  0.00  0.00     0.082 C 
BRANCH  14  15
ATOM     15  C   UNL d   1     -49.355  27.103  34.027  0.00  0.00     0.018 A 
ATOM     16  C   UNL d   1     -49.011  27.849  34.019  0.00  0.00     0.002 A 
ATOM     17  C   UNL d   1     -48.691  28.170  34.707  0.00  0.00     0.000 A 
ATOM     18  C   UNL d   1     -48.361  28.924  34.633  0.00  0.00     0.000 C 
ATOM     19  C   UNL d   1     -48.718  27.732  35.414  0.00  0.00     0.000 A 
ATOM     20  C   UNL d   1     -49.064  26.982  35.419  0.00  0.00     0.000 A 
ATOM     21  C   UNL d   1     -49.382  26.667  34.729  0.00  0.00     0.002 A 
ENDBRANCH  14  15
ENDBRANCH   6  14
BRANCH   9  22
ATOM     22  S   UNL d   1     -51.138  27.799  33.308  0.00  0.00    -0.046 SA
BRANCH  22  23
ATOM     23  C   UNL d   1     -51.428  28.519  33.577  0.00  0.00     0.084 C 
BRANCH  23  24
ATOM     24  C   UNL d   1     -52.154  28.795  33.307  0.00  0.00     0.241 C 
ATOM     25  O   UNL d   1     -52.547  29.388  33.721  0.00  0.00    -0.283 OA
ENDBRANCH  23  24
ENDBRANCH  22  23
ENDBRANCH   9  22
TORSDOF 5
ENDMDL
