MODEL 1
REMARK VINA RESULT:      48.5      0.000      0.000
REMARK  4 active torsions:
REMARK  status: ('A' for Active; 'I' for Inactive)
REMARK    1  A    between atoms: C_5  and  C_3 
REMARK    2  A    between atoms: S_7  and  C_4 
REMARK    3  A    between atoms: C_10  and  S_7 
REMARK    4  A    between atoms: C_11  and  C_10 
ROOT
ATOM      1  N   UNL d   1     -51.326  26.065  34.103  0.00  0.00    -0.146 NA
ATOM      2  N   UNL d   1     -50.811  26.699  34.218  0.00  0.00    -0.141 NA
ATOM      3  C   UNL d   1     -51.088  25.414  33.649  0.00  0.00     0.121 A 
ATOM      4  C   UNL d   1     -50.062  26.693  33.887  0.00  0.00     0.132 A 
ATOM      5  C   UNL d   1     -50.332  25.405  33.313  0.00  0.00     0.025 A 
ATOM      6  C   UNL d   1     -49.821  26.039  33.430  0.00  0.00     0.029 A 
ENDROOT
BRANCH   4   7
ATOM      7  S   UNL d   1     -49.546  27.327  34.002  0.00  0.00    -0.066 SA
BRANCH   7   8
ATOM      8  C   UNL d   1     -49.084  27.369  34.679  0.00  0.00     0.037 C 
BRANCH   8   9
ATOM      9  C   UNL d   1     -48.681  28.069  34.855  0.00  0.00     0.006 A 
ATOM     10  C   UNL d   1     -48.233  28.428  34.286  0.00  0.00     0.001 A 
ATOM     11  C   UNL d   1     -47.829  29.127  34.458  0.00  0.00     0.000 A 
ATOM     12  C   UNL d   1     -47.881  29.458  35.204  0.00  0.00     0.000 A 
ATOM     13  C   UNL d   1     -48.342  29.088  35.789  0.00  0.00     0.000 A 
ATOM     14  C   UNL d   1     -48.738  28.396  35.608  0.00  0.00     0.001 A 
ENDBRANCH   8   9
ENDBRANCH   7   8
ENDBRANCH   4   7
BRANCH   3  15
ATOM     15  C   UNL d   1     -51.603  24.780  33.534  0.00  0.00     0.101 A 
ATOM     16  N   UNL d   1     -51.303  24.032  33.421  0.00  0.00    -0.242 NA
ATOM     17  C   UNL d   1     -51.810  23.400  33.307  0.00  0.00     0.099 A 
ATOM     18  C   UNL d   1     -52.633  23.525  33.306  0.00  0.00     0.021 A 
ATOM     19  C   UNL d   1     -52.930  24.279  33.419  0.00  0.00     0.003 A 
ATOM     20  C   UNL d   1     -52.422  24.919  33.535  0.00  0.00     0.021 A 
ENDBRANCH   3  15
TORSDOF 4
ENDMDL
MODEL 2
REMARK VINA RESULT:      50.0      1.089      5.074
REMARK  4 active torsions:
REMARK  status: ('A' for Active; 'I' for Inactive)
REMARK    1  A    between atoms: C_5  and  C_3 
REMARK    2  A    between atoms: S_7  and  C_4 
REMARK    3  A    between atoms: C_10  and  S_7 
REMARK    4  A    between atoms: C_11  and  C_10 
ROOT
ATOM      1  N   UNL d   1     -48.894  26.911  34.203  0.00  0.00    -0.146 NA
ATOM      2  N   UNL d   1     -49.350  26.379  33.768  0.00  0.00    -0.141 NA
ATOM      3  C   UNL d   1     -49.260  27.521  34.629  0.00  0.00     0.121 A 
ATOM      4  C   UNL d   1     -50.166  26.446  33.752  0.00  0.00     0.132 A 
ATOM      5  C   UNL d   1     -50.084  27.590  34.614  0.00  0.00     0.025 A 
ATOM      6  C   UNL d   1     -50.536  27.058  34.180  0.00  0.00     0.029 A 
ENDROOT
BRANCH   4   7
ATOM      7  S   UNL d   1     -50.622  25.913  33.317  0.00  0.00    -0.066 SA
BRANCH   7   8
ATOM      8  C   UNL d   1     -50.433  25.115  33.308  0.00  0.00     0.037 C 
BRANCH   8   9
ATOM      9  C   UNL d   1     -51.039  24.552  33.316  0.00  0.00     0.006 A 
ATOM     10  C   UNL d   1     -51.810  24.793  33.311  0.00  0.00     0.001 A 
ATOM     11  C   UNL d   1     -52.418  24.234  33.318  0.00  0.00     0.000 A 
ATOM     12  C   UNL d   1     -52.242  23.435  33.331  0.00  0.00     0.000 A 
ATOM     13  C   UNL d   1     -51.447  23.188  33.337  0.00  0.00     0.000 A 
ATOM     14  C   UNL d   1     -50.853  23.750  33.329  0.00  0.00     0.001 A 
ENDBRANCH   8   9
ENDBRANCH   7   8
ENDBRANCH   4   7
BRANCH   3  15
ATOM     15  C   UNL d   1     -48.804  28.053  35.064  0.00  0.00     0.101 A 
ATOM     16  N   UNL d   1     -48.994  28.207  35.840  0.00  0.00    -0.242 NA
ATOM     17  C   UNL d   1     -48.545  28.734  36.276  0.00  0.00     0.099 A 
ATOM     18  C   UNL d   1     -47.893  29.112  35.922  0.00  0.00     0.021 A 
ATOM     19  C   UNL d   1     -47.706  28.955  35.141  0.00  0.00     0.003 A 
ATOM     20  C   UNL d   1     -48.157  28.423  34.698  0.00  0.00     0.021 A 
ENDBRANCH   3  15
TORSDOF 4
ENDMDL
MODEL 3
REMARK VINA RESULT:      51.3      0.777      1.321
REMARK  4 active torsions:
REMARK  status: ('A' for Active; 'I' for Inactive)
REMARK    1  A    between atoms: C_5  and  C_3 
REMARK    2  A    between atoms: S_7  and  C_4 
REMARK    3  A    between atoms: C_10  and  S_7 
REMARK    4  A    between atoms: C_11  and  C_10 
ROOT
ATOM      1  N   UNL d   1     -50.429  26.577  34.682  0.00  0.00    -0.146 NA
ATOM      2  N   UNL d   1     -49.949  27.218  34.878  0.00  0.00    -0.141 NA
ATOM      3  C   UNL d   1     -50.493  26.332  33.893  0.00  0.00     0.121 A 
ATOM      4  C   UNL d   1     -49.532  27.619  34.299  0.00  0.00     0.132 A 
ATOM      5  C   UNL d   1     -50.073  26.735  33.306  0.00  0.00     0.025 A 
ATOM      6  C   UNL d   1     -49.595  27.374  33.504  0.00  0.00     0.029 A 
ENDROOT
BRANCH   4   7
ATOM      7  S   UNL d   1     -49.052  28.261  34.495  0.00  0.00    -0.066 SA
BRANCH   7   8
ATOM      8  C   UNL d   1     -48.499  28.197  35.098  0.00  0.00     0.037 C 
BRANCH   8   9
ATOM      9  C   UNL d   1     -48.080  28.867  35.341  0.00  0.00     0.006 A 
ATOM     10  C   UNL d   1     -48.051  29.060  36.125  0.00  0.00     0.001 A 
ATOM     11  C   UNL d   1     -47.634  29.729  36.371  0.00  0.00     0.000 A 
ATOM     12  C   UNL d   1     -47.250  30.198  35.823  0.00  0.00     0.000 A 
ATOM     13  C   UNL d   1     -47.281  29.999  35.015  0.00  0.00     0.000 A 
ATOM     14  C   UNL d   1     -47.697  29.334  34.783  0.00  0.00     0.001 A 
ENDBRANCH   8   9
ENDBRANCH   7   8
ENDBRANCH   4   7
BRANCH   3  15
ATOM     15  C   UNL d   1     -50.973  25.690  33.697  0.00  0.00     0.101 A 
ATOM     16  N   UNL d   1     -50.634  24.968  33.532  0.00  0.00    -0.242 NA
ATOM     17  C   UNL d   1     -51.107  24.329  33.337  0.00  0.00     0.099 A 
ATOM     18  C   UNL d   1     -51.934  24.419  33.308  0.00  0.00     0.021 A 
ATOM     19  C   UNL d   1     -52.269  25.147  33.474  0.00  0.00     0.003 A 
ATOM     20  C   UNL d   1     -51.797  25.795  33.671  0.00  0.00     0.021 A 
ENDBRANCH   3  15
TORSDOF 4
ENDMDL
