MODEL 1
REMARK VINA RESULT:      -7.2      0.000      0.000
REMARK  6 active torsions:
REMARK  status: ('A' for Active; 'I' for Inactive)
REMARK    1  A    between atoms: C_11  and  N_4 
REMARK    2  A    between atoms: C_19  and  C_7 
REMARK    3  A    between atoms: C_17  and  C_11 
REMARK    4  A    between atoms: O_21  and  C_16 
REMARK    5  A    between atoms: C_20  and  C_17 
REMARK    6  A    between atoms: C_25  and  C_19 
ROOT
ATOM      1  C   UNL d   1     -46.825  12.760  22.756  0.00  0.00     0.137 A 
ATOM      2  C   UNL d   1     -47.027  12.099  23.211  0.00  0.00     0.192 A 
ATOM      3  C   UNL d   1     -47.398  13.320  22.561  0.00  0.00     0.272 A 
ATOM      4  N   UNL d   1     -48.172  13.221  22.820  0.00  0.00    -0.258 N 
ATOM      5  N   UNL d   1     -47.798  11.998  23.469  0.00  0.00    -0.204 NA
ATOM      6  C   UNL d   1     -46.047  12.858  22.497  0.00  0.00     0.205 A 
ATOM      7  C   UNL d   1     -48.378  12.561  23.274  0.00  0.00     0.152 A 
ATOM      8  C   UNL d   1     -45.480  12.306  22.689  0.00  0.00     0.062 A 
ATOM      9  O   UNL d   1     -46.452  11.545  23.402  0.00  0.00    -0.289 OA
ATOM     10  C   UNL d   1     -45.677  11.648  23.141  0.00  0.00     0.107 A 
ATOM     11  C   UNL d   1     -45.097  11.085  23.336  0.00  0.00     0.049 A 
ATOM     12  C   UNL d   1     -44.702  12.409  22.427  0.00  0.00     0.007 A 
ATOM     13  O   UNL d   1     -47.194  13.976  22.108  0.00  0.00    -0.266 OA
ATOM     14  O   UNL d   1     -45.851  13.516  22.045  0.00  0.00    -0.286 OA
ATOM     15  C   UNL d   1     -44.325  11.189  23.075  0.00  0.00     0.096 A 
ATOM     16  C   UNL d   1     -44.129  11.848  22.623  0.00  0.00     0.024 A 
ENDROOT
BRANCH   4  17
ATOM     17  C   UNL d   1     -48.745  13.781  22.624  0.00  0.00     0.084 C 
BRANCH  17  18
ATOM     18  C   UNL d   1     -48.787  14.504  23.040  0.00  0.00     0.019 C 
BRANCH  18  19
ATOM     19  C   UNL d   1     -49.484  14.948  23.024  0.00  0.00     0.002 A 
ATOM     20  C   UNL d   1     -49.704  15.382  23.698  0.00  0.00     0.000 A 
ATOM     21  C   UNL d   1     -50.407  15.832  23.687  0.00  0.00     0.000 A 
ATOM     22  C   UNL d   1     -50.882  15.846  23.007  0.00  0.00     0.000 A 
ATOM     23  C   UNL d   1     -50.652  15.408  22.334  0.00  0.00     0.000 A 
ATOM     24  C   UNL d   1     -49.955  14.963  22.349  0.00  0.00     0.000 A 
ENDBRANCH  18  19
ENDBRANCH  17  18
ENDBRANCH   4  17
BRANCH   7  25
ATOM     25  C   UNL d   1     -49.153  12.458  23.535  0.00  0.00     0.038 C 
BRANCH  25  26
ATOM     26  C   UNL d   1     -49.447  11.705  23.682  0.00  0.00     0.003 C 
ATOM     27  C   UNL d   1     -50.255  11.578  23.687  0.00  0.00     0.000 C 
ENDBRANCH  25  26
ENDBRANCH   7  25
BRANCH  15  28
ATOM     28  O   UNL d   1     -43.749  10.642  23.261  0.00  0.00    -0.328 OA
ATOM     29  C   UNL d   1     -43.968   9.878  23.475  0.00  0.00     0.181 C 
ENDBRANCH  15  28
TORSDOF 6
ENDMDL
MODEL 2
REMARK VINA RESULT:      -6.8      1.053      1.374
REMARK  6 active torsions:
REMARK  status: ('A' for Active; 'I' for Inactive)
REMARK    1  A    between atoms: C_11  and  N_4 
REMARK    2  A    between atoms: C_19  and  C_7 
REMARK    3  A    between atoms: C_17  and  C_11 
REMARK    4  A    between atoms: O_21  and  C_16 
REMARK    5  A    between atoms: C_20  and  C_17 
REMARK    6  A    between atoms: C_25  and  C_19 
ROOT
ATOM      1  C   UNL d   1     -46.526  13.482  22.675  0.00  0.00     0.137 A 
ATOM      2  C   UNL d   1     -46.509  12.662  22.785  0.00  0.00     0.192 A 
ATOM      3  C   UNL d   1     -47.201  13.913  22.869  0.00  0.00     0.272 A 
ATOM      4  N   UNL d   1     -47.860  13.526  23.173  0.00  0.00    -0.258 N 
ATOM      5  N   UNL d   1     -47.164  12.275  23.088  0.00  0.00    -0.204 NA
ATOM      6  C   UNL d   1     -45.863  13.869  22.370  0.00  0.00     0.205 A 
ATOM      7  C   UNL d   1     -47.847  12.707  23.284  0.00  0.00     0.152 A 
ATOM      8  C   UNL d   1     -45.195  13.445  22.178  0.00  0.00     0.062 A 
ATOM      9  O   UNL d   1     -45.834  12.239  22.590  0.00  0.00    -0.289 OA
ATOM     10  C   UNL d   1     -45.174  12.630  22.286  0.00  0.00     0.107 A 
ATOM     11  C   UNL d   1     -44.492  12.198  22.089  0.00  0.00     0.049 A 
ATOM     12  C   UNL d   1     -44.533  13.837  21.872  0.00  0.00     0.007 A 
ATOM     13  O   UNL d   1     -47.214  14.729  22.758  0.00  0.00    -0.266 OA
ATOM     14  O   UNL d   1     -45.884  14.684  22.262  0.00  0.00    -0.286 OA
ATOM     15  C   UNL d   1     -43.836  12.590  21.786  0.00  0.00     0.096 A 
ATOM     16  C   UNL d   1     -43.857  13.405  21.678  0.00  0.00     0.024 A 
ENDROOT
BRANCH   4  17
ATOM     17  C   UNL d   1     -48.536  13.958  23.367  0.00  0.00     0.084 C 
BRANCH  17  18
ATOM     18  C   UNL d   1     -48.902  14.446  22.796  0.00  0.00     0.019 C 
BRANCH  18  19
ATOM     19  C   UNL d   1     -49.615  14.825  22.976  0.00  0.00     0.002 A 
ATOM     20  C   UNL d   1     -50.328  14.498  22.702  0.00  0.00     0.000 A 
ATOM     21  C   UNL d   1     -51.051  14.876  22.880  0.00  0.00     0.000 A 
ATOM     22  C   UNL d   1     -51.055  15.575  23.328  0.00  0.00     0.000 A 
ATOM     23  C   UNL d   1     -50.334  15.897  23.599  0.00  0.00     0.000 A 
ATOM     24  C   UNL d   1     -49.620  15.518  23.420  0.00  0.00     0.000 A 
ENDBRANCH  18  19
ENDBRANCH  17  18
ENDBRANCH   4  17
BRANCH   7  25
ATOM     25  C   UNL d   1     -48.506  12.316  23.589  0.00  0.00     0.038 C 
BRANCH  25  26
ATOM     26  C   UNL d   1     -48.523  11.495  23.627  0.00  0.00     0.003 C 
ATOM     27  C   UNL d   1     -49.239  11.106  23.697  0.00  0.00     0.000 C 
ENDBRANCH  25  26
ENDBRANCH   7  25
BRANCH  15  28
ATOM     28  O   UNL d   1     -43.161  12.175  21.590  0.00  0.00    -0.328 OA
ATOM     29  C   UNL d   1     -42.456  12.580  21.465  0.00  0.00     0.181 C 
ENDBRANCH  15  28
TORSDOF 6
ENDMDL
MODEL 3
REMARK VINA RESULT:      -6.4      1.563      5.147
REMARK  6 active torsions:
REMARK  status: ('A' for Active; 'I' for Inactive)
REMARK    1  A    between atoms: C_11  and  N_4 
REMARK    2  A    between atoms: C_19  and  C_7 
REMARK    3  A    between atoms: C_17  and  C_11 
REMARK    4  A    between atoms: O_21  and  C_16 
REMARK    5  A    between atoms: C_20  and  C_17 
REMARK    6  A    between atoms: C_25  and  C_19 
ROOT
ATOM      1  C   UNL d   1     -47.094  13.934  22.764  0.00  0.00     0.137 A 
ATOM      2  C   UNL d   1     -47.565  13.325  23.065  0.00  0.00     0.192 A 
ATOM      3  C   UNL d   1     -46.294  13.804  22.611  0.00  0.00     0.272 A 
ATOM      4  N   UNL d   1     -45.964  13.065  22.758  0.00  0.00    -0.258 N 
ATOM      5  N   UNL d   1     -47.238  12.588  23.213  0.00  0.00    -0.204 NA
ATOM      6  C   UNL d   1     -47.427  14.676  22.616  0.00  0.00     0.205 A 
ATOM      7  C   UNL d   1     -46.432  12.453  23.060  0.00  0.00     0.152 A 
ATOM      8  C   UNL d   1     -48.216  14.806  22.767  0.00  0.00     0.062 A 
ATOM      9  O   UNL d   1     -48.360  13.460  23.216  0.00  0.00    -0.289 OA
ATOM     10  C   UNL d   1     -48.687  14.202  23.066  0.00  0.00     0.107 A 
ATOM     11  C   UNL d   1     -49.494  14.336  23.220  0.00  0.00     0.049 A 
ATOM     12  C   UNL d   1     -48.546  15.550  22.617  0.00  0.00     0.007 A 
ATOM     13  O   UNL d   1     -45.829  14.413  22.311  0.00  0.00    -0.266 OA
ATOM     14  O   UNL d   1     -46.956  15.279  22.317  0.00  0.00    -0.286 OA
ATOM     15  C   UNL d   1     -49.818  15.077  23.071  0.00  0.00     0.096 A 
ATOM     16  C   UNL d   1     -49.347  15.680  22.771  0.00  0.00     0.024 A 
ENDROOT
BRANCH   4  17
ATOM     17  C   UNL d   1     -45.164  12.936  22.605  0.00  0.00     0.084 C 
BRANCH  17  18
ATOM     18  C   UNL d   1     -44.892  12.864  21.819  0.00  0.00     0.019 C 
BRANCH  18  19
ATOM     19  C   UNL d   1     -44.080  12.831  21.666  0.00  0.00     0.002 A 
ATOM     20  C   UNL d   1     -43.735  13.409  21.179  0.00  0.00     0.000 A 
ATOM     21  C   UNL d   1     -42.915  13.380  21.021  0.00  0.00     0.000 A 
ATOM     22  C   UNL d   1     -42.450  12.777  21.349  0.00  0.00     0.000 A 
ATOM     23  C   UNL d   1     -42.805  12.199  21.837  0.00  0.00     0.000 A 
ATOM     24  C   UNL d   1     -43.617  12.232  21.990  0.00  0.00     0.000 A 
ENDBRANCH  18  19
ENDBRANCH  17  18
ENDBRANCH   4  17
BRANCH   7  25
ATOM     25  C   UNL d   1     -46.104  11.711  23.209  0.00  0.00     0.038 C 
BRANCH  25  26
ATOM     26  C   UNL d   1     -46.523  11.150  23.640  0.00  0.00     0.003 C 
ATOM     27  C   UNL d   1     -46.246  10.382  23.683  0.00  0.00     0.000 C 
ENDBRANCH  25  26
ENDBRANCH   7  25
BRANCH  15  28
ATOM     28  O   UNL d   1     -50.608  15.218  23.218  0.00  0.00    -0.328 OA
ATOM     29  C   UNL d   1     -51.063  14.638  23.584  0.00  0.00     0.181 C 
ENDBRANCH  15  28
TORSDOF 6
ENDMDL
MODEL 4
REMARK VINA RESULT:      -5.7      1.298      2.221
REMARK  6 active torsions:
REMARK  status: ('A' for Active; 'I' for Inactive)
REMARK    1  A    between atoms: C_11  and  N_4 
REMARK    2  A    between atoms: C_19  and  C_7 
REMARK    3  A    between atoms: C_17  and  C_11 
REMARK    4  A    between atoms: O_21  and  C_16 
REMARK    5  A    between atoms: C_20  and  C_17 
REMARK    6  A    between atoms: C_25  and  C_19 
ROOT
ATOM      1  C   UNL d   1     -46.858  11.930  23.436  0.00  0.00     0.137 A 
ATOM      2  C   UNL d   1     -46.281  12.508  23.305  0.00  0.00     0.192 A 
ATOM      3  C   UNL d   1     -47.657  12.134  23.436  0.00  0.00     0.272 A 
ATOM      4  N   UNL d   1     -47.880  12.915  23.306  0.00  0.00    -0.258 N 
ATOM      5  N   UNL d   1     -46.501  13.286  23.175  0.00  0.00    -0.204 NA
ATOM      6  C   UNL d   1     -46.633  11.146  23.566  0.00  0.00     0.205 A 
ATOM      7  C   UNL d   1     -47.306  13.495  23.175  0.00  0.00     0.152 A 
ATOM      8  C   UNL d   1     -45.844  10.943  23.566  0.00  0.00     0.062 A 
ATOM      9  O   UNL d   1     -45.488  12.299  23.306  0.00  0.00    -0.289 OA
ATOM     10  C   UNL d   1     -45.268  11.515  23.437  0.00  0.00     0.107 A 
ATOM     11  C   UNL d   1     -44.462  11.306  23.437  0.00  0.00     0.049 A 
ATOM     12  C   UNL d   1     -45.623  10.157  23.697  0.00  0.00     0.007 A 
ATOM     13  O   UNL d   1     -48.229  11.556  23.566  0.00  0.00    -0.266 OA
ATOM     14  O   UNL d   1     -47.209  10.575  23.695  0.00  0.00    -0.286 OA
ATOM     15  C   UNL d   1     -44.246  10.524  23.568  0.00  0.00     0.096 A 
ATOM     16  C   UNL d   1     -44.822   9.953  23.697  0.00  0.00     0.024 A 
ENDROOT
BRANCH   4  17
ATOM     17  C   UNL d   1     -48.680  13.118  23.306  0.00  0.00     0.084 C 
BRANCH  17  18
ATOM     18  C   UNL d   1     -49.214  12.729  22.795  0.00  0.00     0.019 C 
BRANCH  18  19
ATOM     19  C   UNL d   1     -49.830  13.153  22.444  0.00  0.00     0.002 A 
ATOM     20  C   UNL d   1     -49.921  13.129  21.618  0.00  0.00     0.000 A 
ATOM     21  C   UNL d   1     -50.542  13.555  21.258  0.00  0.00     0.000 A 
ATOM     22  C   UNL d   1     -51.064  14.001  21.723  0.00  0.00     0.000 A 
ATOM     23  C   UNL d   1     -50.966  14.020  22.552  0.00  0.00     0.000 A 
ATOM     24  C   UNL d   1     -50.350  13.596  22.904  0.00  0.00     0.000 A 
ENDBRANCH  18  19
ENDBRANCH  17  18
ENDBRANCH   4  17
BRANCH   7  25
ATOM     25  C   UNL d   1     -47.526  14.279  23.044  0.00  0.00     0.038 C 
BRANCH  25  26
ATOM     26  C   UNL d   1     -47.048  14.778  22.598  0.00  0.00     0.003 C 
ATOM     27  C   UNL d   1     -47.328  15.511  22.369  0.00  0.00     0.000 C 
ENDBRANCH  25  26
ENDBRANCH   7  25
BRANCH  15  28
ATOM     28  O   UNL d   1     -43.458  10.310  23.570  0.00  0.00    -0.328 OA
ATOM     29  C   UNL d   1     -43.072  10.174  22.856  0.00  0.00     0.181 C 
ENDBRANCH  15  28
TORSDOF 6
ENDMDL
MODEL 5
REMARK VINA RESULT:      -5.0      8.903      9.512
REMARK  6 active torsions:
REMARK  status: ('A' for Active; 'I' for Inactive)
REMARK    1  A    between atoms: C_11  and  N_4 
REMARK    2  A    between atoms: C_19  and  C_7 
REMARK    3  A    between atoms: C_17  and  C_11 
REMARK    4  A    between atoms: O_21  and  C_16 
REMARK    5  A    between atoms: C_20  and  C_17 
REMARK    6  A    between atoms: C_25  and  C_19 
ROOT
ATOM      1  C   UNL d   1     -39.003  14.580  20.115  0.00  0.00     0.137 A 
ATOM      2  C   UNL d   1     -38.587  13.866  20.084  0.00  0.00     0.192 A 
ATOM      3  C   UNL d   1     -39.296  14.921  19.424  0.00  0.00     0.272 A 
ATOM      4  N   UNL d   1     -39.173  14.549  18.700  0.00  0.00    -0.258 N 
ATOM      5  N   UNL d   1     -38.464  13.494  19.365  0.00  0.00    -0.204 NA
ATOM      6  C   UNL d   1     -39.126  14.953  20.842  0.00  0.00     0.205 A 
ATOM      7  C   UNL d   1     -38.757  13.834  18.665  0.00  0.00     0.152 A 
ATOM      8  C   UNL d   1     -38.837  14.618  21.526  0.00  0.00     0.062 A 
ATOM      9  O   UNL d   1     -38.298  13.532  20.775  0.00  0.00    -0.289 OA
ATOM     10  C   UNL d   1     -38.423  13.908  21.499  0.00  0.00     0.107 A 
ATOM     11  C   UNL d   1     -38.129  13.567  22.198  0.00  0.00     0.049 A 
ATOM     12  C   UNL d   1     -38.962  14.994  22.252  0.00  0.00     0.007 A 
ATOM     13  O   UNL d   1     -39.710  15.631  19.459  0.00  0.00    -0.266 OA
ATOM     14  O   UNL d   1     -39.540  15.662  20.869  0.00  0.00    -0.286 OA
ATOM     15  C   UNL d   1     -38.255  13.943  22.917  0.00  0.00     0.096 A 
ATOM     16  C   UNL d   1     -38.669  14.653  22.944  0.00  0.00     0.024 A 
ENDROOT
BRANCH   4  17
ATOM     17  C   UNL d   1     -39.466  14.890  18.009  0.00  0.00     0.084 C 
BRANCH  17  18
ATOM     18  C   UNL d   1     -40.128  15.399  18.038  0.00  0.00     0.019 C 
BRANCH  18  19
ATOM     19  C   UNL d   1     -40.561  15.550  17.350  0.00  0.00     0.002 A 
ATOM     20  C   UNL d   1     -41.389  15.478  17.367  0.00  0.00     0.000 A 
ATOM     21  C   UNL d   1     -41.830  15.630  16.675  0.00  0.00     0.000 A 
ATOM     22  C   UNL d   1     -41.444  15.852  15.975  0.00  0.00     0.000 A 
ATOM     23  C   UNL d   1     -40.612  15.922  15.967  0.00  0.00     0.000 A 
ATOM     24  C   UNL d   1     -40.178  15.770  16.655  0.00  0.00     0.000 A 
ENDBRANCH  18  19
ENDBRANCH  17  18
ENDBRANCH   4  17
BRANCH   7  25
ATOM     25  C   UNL d   1     -38.632  13.459  17.942  0.00  0.00     0.038 C 
BRANCH  25  26
ATOM     26  C   UNL d   1     -38.440  12.660  17.915  0.00  0.00     0.003 C 
ATOM     27  C   UNL d   1     -38.190  12.326  17.211  0.00  0.00     0.000 C 
ENDBRANCH  25  26
ENDBRANCH   7  25
BRANCH  15  28
ATOM     28  O   UNL d   1     -37.970  13.616  23.609  0.00  0.00    -0.328 OA
ATOM     29  C   UNL d   1     -37.945  12.798  23.692  0.00  0.00     0.181 C 
ENDBRANCH  15  28
TORSDOF 6
ENDMDL
MODEL 6
REMARK VINA RESULT:      -5.0      7.391      9.777
REMARK  6 active torsions:
REMARK  status: ('A' for Active; 'I' for Inactive)
REMARK    1  A    between atoms: C_11  and  N_4 
REMARK    2  A    between atoms: C_19  and  C_7 
REMARK    3  A    between atoms: C_17  and  C_11 
REMARK    4  A    between atoms: O_21  and  C_16 
REMARK    5  A    between atoms: C_20  and  C_17 
REMARK    6  A    between atoms: C_25  and  C_19 
ROOT
ATOM      1  C   UNL d   1     -39.156  14.821  18.728  0.00  0.00     0.137 A 
ATOM      2  C   UNL d   1     -39.808  14.373  18.485  0.00  0.00     0.192 A 
ATOM      3  C   UNL d   1     -39.073  15.040  19.518  0.00  0.00     0.272 A 
ATOM      4  N   UNL d   1     -39.642  14.811  20.067  0.00  0.00    -0.258 N 
ATOM      5  N   UNL d   1     -40.375  14.145  19.031  0.00  0.00    -0.204 NA
ATOM      6  C   UNL d   1     -38.586  15.049  18.175  0.00  0.00     0.205 A 
ATOM      7  C   UNL d   1     -40.295  14.364  19.829  0.00  0.00     0.152 A 
ATOM      8  C   UNL d   1     -38.666  14.834  17.394  0.00  0.00     0.062 A 
ATOM      9  O   UNL d   1     -39.884  14.158  17.697  0.00  0.00    -0.289 OA
ATOM     10  C   UNL d   1     -39.312  14.389  17.149  0.00  0.00     0.107 A 
ATOM     11  C   UNL d   1     -39.393  14.169  16.351  0.00  0.00     0.049 A 
ATOM     12  C   UNL d   1     -38.092  15.065  16.844  0.00  0.00     0.007 A 
ATOM     13  O   UNL d   1     -38.423  15.485  19.756  0.00  0.00    -0.266 OA
ATOM     14  O   UNL d   1     -37.940  15.494  18.420  0.00  0.00    -0.286 OA
ATOM     15  C   UNL d   1     -38.822  14.400  15.807  0.00  0.00     0.096 A 
ATOM     16  C   UNL d   1     -38.175  14.845  16.052  0.00  0.00     0.024 A 
ENDROOT
BRANCH   4  17
ATOM     17  C   UNL d   1     -39.558  15.031  20.858  0.00  0.00     0.084 C 
BRANCH  17  18
ATOM     18  C   UNL d   1     -38.985  14.662  21.340  0.00  0.00     0.019 C 
BRANCH  18  19
ATOM     19  C   UNL d   1     -38.889  14.904  22.125  0.00  0.00     0.002 A 
ATOM     20  C   UNL d   1     -39.127  15.669  22.345  0.00  0.00     0.000 A 
ATOM     21  C   UNL d   1     -39.032  15.919  23.136  0.00  0.00     0.000 A 
ATOM     22  C   UNL d   1     -38.702  15.406  23.698  0.00  0.00     0.000 A 
ATOM     23  C   UNL d   1     -38.465  14.639  23.468  0.00  0.00     0.000 A 
ATOM     24  C   UNL d   1     -38.561  14.395  22.683  0.00  0.00     0.000 A 
ENDBRANCH  18  19
ENDBRANCH  17  18
ENDBRANCH   4  17
BRANCH   7  25
ATOM     25  C   UNL d   1     -40.867  14.133  20.377  0.00  0.00     0.038 C 
BRANCH  25  26
ATOM     26  C   UNL d   1     -41.499  13.662  20.145  0.00  0.00     0.003 C 
ATOM     27  C   UNL d   1     -42.127  13.546  20.657  0.00  0.00     0.000 C 
ENDBRANCH  25  26
ENDBRANCH   7  25
BRANCH  15  28
ATOM     28  O   UNL d   1     -38.892  14.190  15.021  0.00  0.00    -0.328 OA
ATOM     29  C   UNL d   1     -38.274  13.792  14.650  0.00  0.00     0.181 C 
ENDBRANCH  15  28
TORSDOF 6
ENDMDL
MODEL 7
REMARK VINA RESULT:      -4.9      1.247      5.502
REMARK  6 active torsions:
REMARK  status: ('A' for Active; 'I' for Inactive)
REMARK    1  A    between atoms: C_11  and  N_4 
REMARK    2  A    between atoms: C_19  and  C_7 
REMARK    3  A    between atoms: C_17  and  C_11 
REMARK    4  A    between atoms: O_21  and  C_16 
REMARK    5  A    between atoms: C_20  and  C_17 
REMARK    6  A    between atoms: C_25  and  C_19 
ROOT
ATOM      1  C   UNL d   1     -47.744  12.548  23.019  0.00  0.00     0.137 A 
ATOM      2  C   UNL d   1     -47.608  13.285  22.669  0.00  0.00     0.192 A 
ATOM      3  C   UNL d   1     -47.109  12.076  23.252  0.00  0.00     0.272 A 
ATOM      4  N   UNL d   1     -46.339  12.340  23.136  0.00  0.00    -0.258 N 
ATOM      5  N   UNL d   1     -46.842  13.550  22.553  0.00  0.00    -0.204 NA
ATOM      6  C   UNL d   1     -48.518  12.284  23.135  0.00  0.00     0.205 A 
ATOM      7  C   UNL d   1     -46.200  13.077  22.787  0.00  0.00     0.152 A 
ATOM      8  C   UNL d   1     -49.146  12.749  22.905  0.00  0.00     0.062 A 
ATOM      9  O   UNL d   1     -48.244  13.750  22.440  0.00  0.00    -0.289 OA
ATOM     10  C   UNL d   1     -49.015  13.482  22.557  0.00  0.00     0.107 A 
ATOM     11  C   UNL d   1     -49.658  13.956  22.323  0.00  0.00     0.049 A 
ATOM     12  C   UNL d   1     -49.920  12.481  23.023  0.00  0.00     0.007 A 
ATOM     13  O   UNL d   1     -47.248  11.343  23.600  0.00  0.00    -0.266 OA
ATOM     14  O   UNL d   1     -48.648  11.551  23.483  0.00  0.00    -0.286 OA
ATOM     15  C   UNL d   1     -50.425  13.687  22.441  0.00  0.00     0.096 A 
ATOM     16  C   UNL d   1     -50.555  12.954  22.789  0.00  0.00     0.024 A 
ENDROOT
BRANCH   4  17
ATOM     17  C   UNL d   1     -45.704  11.868  23.370  0.00  0.00     0.084 C 
BRANCH  17  18
ATOM     18  C   UNL d   1     -45.535  11.158  22.964  0.00  0.00     0.019 C 
BRANCH  18  19
ATOM     19  C   UNL d   1     -44.873  10.710  23.175  0.00  0.00     0.002 A 
ATOM     20  C   UNL d   1     -44.981   9.945  23.480  0.00  0.00     0.000 A 
ATOM     21  C   UNL d   1     -44.316   9.489  23.696  0.00  0.00     0.000 A 
ATOM     22  C   UNL d   1     -43.552   9.798  23.605  0.00  0.00     0.000 A 
ATOM     23  C   UNL d   1     -43.452  10.568  23.297  0.00  0.00     0.000 A 
ATOM     24  C   UNL d   1     -44.114  11.017  23.086  0.00  0.00     0.000 A 
ENDBRANCH  18  19
ENDBRANCH  17  18
ENDBRANCH   4  17
BRANCH   7  25
ATOM     25  C   UNL d   1     -45.428  13.345  22.669  0.00  0.00     0.038 C 
BRANCH  25  26
ATOM     26  C   UNL d   1     -45.281  13.986  22.176  0.00  0.00     0.003 C 
ATOM     27  C   UNL d   1     -44.527  14.300  22.134  0.00  0.00     0.000 C 
ENDBRANCH  25  26
ENDBRANCH   7  25
BRANCH  15  28
ATOM     28  O   UNL d   1     -51.062  14.145  22.215  0.00  0.00    -0.328 OA
ATOM     29  C   UNL d   1     -51.054  14.954  22.364  0.00  0.00     0.181 C 
ENDBRANCH  15  28
TORSDOF 6
ENDMDL
