MODEL 1
REMARK VINA RESULT:      -7.0      0.000      0.000
REMARK  5 active torsions:
REMARK  status: ('A' for Active; 'I' for Inactive)
REMARK    1  A    between atoms: N_5  and  C_1 
REMARK    2  A    between atoms: C_8  and  C_2 
REMARK       I    between atoms: C_7  and  N_5 
REMARK    3  A    between atoms: C_10  and  C_7 
REMARK    4  A    between atoms: O_12  and  C_8 
REMARK    5  A    between atoms: C_16  and  O_12 
ROOT
ATOM      1  C   UNL d   1     -47.259  12.885  23.040  0.00  0.00     0.114 A 
ATOM      2  C   UNL d   1     -45.980  12.545  22.913  0.00  0.00     0.094 A 
ATOM      3  S   UNL d   1     -46.712  12.275  23.117  0.00  0.00    -0.062 SA
ATOM      4  C   UNL d   1     -46.087  13.353  22.705  0.00  0.00     0.013 A 
ATOM      5  C   UNL d   1     -46.843  13.541  22.784  0.00  0.00     0.027 A 
ATOM      6  C   UNL d   1     -45.492  13.872  22.455  0.00  0.00     0.001 C 
ENDROOT
BRANCH   1   7
ATOM      7  N   UNL d   1     -48.102  12.853  23.197  0.00  0.00    -0.201 NA
ATOM      8  C   UNL d   1     -48.607  12.550  22.627  0.00  0.00     0.280 C 
ATOM      9  O   UNL d   1     -48.318  12.279  21.910  0.00  0.00    -0.265 OA
BRANCH   8  10
ATOM     10  C   UNL d   1     -49.409  12.519  22.775  0.00  0.00     0.058 A 
ATOM     11  C   UNL d   1     -49.926  13.056  22.435  0.00  0.00     0.005 A 
ATOM     12  C   UNL d   1     -50.738  13.035  22.577  0.00  0.00     0.000 A 
ATOM     13  C   UNL d   1     -51.029  12.447  23.083  0.00  0.00     0.000 A 
ATOM     14  C   UNL d   1     -50.523  11.899  23.433  0.00  0.00     0.000 A 
ATOM     15  C   UNL d   1     -49.712  11.931  23.283  0.00  0.00     0.005 A 
ENDBRANCH   8  10
ENDBRANCH   1   7
BRANCH   2  16
ATOM     16  C   UNL d   1     -45.264  12.117  22.909  0.00  0.00     0.306 C 
ATOM     17  O   UNL d   1     -44.692  12.326  22.364  0.00  0.00    -0.258 OA
BRANCH  16  18
ATOM     18  O   UNL d   1     -45.126  11.503  23.431  0.00  0.00    -0.271 OA
BRANCH  18  19
ATOM     19  C   UNL d   1     -44.490  10.994  23.319  0.00  0.00     0.126 C 
ATOM     20  C   UNL d   1     -44.496  10.259  23.697  0.00  0.00     0.029 C 
ENDBRANCH  18  19
ENDBRANCH  16  18
ENDBRANCH   2  16
TORSDOF 5
ENDMDL
MODEL 2
REMARK VINA RESULT:      -6.9      1.558      2.206
REMARK  5 active torsions:
REMARK  status: ('A' for Active; 'I' for Inactive)
REMARK    1  A    between atoms: N_5  and  C_1 
REMARK    2  A    between atoms: C_8  and  C_2 
REMARK       I    between atoms: C_7  and  N_5 
REMARK    3  A    between atoms: C_10  and  C_7 
REMARK    4  A    between atoms: O_12  and  C_8 
REMARK    5  A    between atoms: C_16  and  O_12 
ROOT
ATOM      1  C   UNL d   1     -48.041  13.174  23.415  0.00  0.00     0.114 A 
ATOM      2  C   UNL d   1     -46.838  12.648  23.203  0.00  0.00     0.094 A 
ATOM      3  S   UNL d   1     -47.251  13.339  23.254  0.00  0.00    -0.062 SA
ATOM      4  C   UNL d   1     -47.402  12.038  23.338  0.00  0.00     0.013 A 
ATOM      5  C   UNL d   1     -48.105  12.360  23.461  0.00  0.00     0.027 A 
ATOM      6  C   UNL d   1     -47.245  11.225  23.342  0.00  0.00     0.001 C 
ENDROOT
BRANCH   1   7
ATOM      7  N   UNL d   1     -48.681  13.737  23.516  0.00  0.00    -0.201 NA
ATOM      8  C   UNL d   1     -49.062  14.038  22.855  0.00  0.00     0.280 C 
ATOM      9  O   UNL d   1     -48.840  13.809  22.101  0.00  0.00    -0.265 OA
BRANCH   8  10
ATOM     10  C   UNL d   1     -49.671  14.573  22.951  0.00  0.00     0.058 A 
ATOM     11  C   UNL d   1     -49.555  15.284  23.342  0.00  0.00     0.005 A 
ATOM     12  C   UNL d   1     -50.162  15.833  23.445  0.00  0.00     0.000 A 
ATOM     13  C   UNL d   1     -50.909  15.648  23.139  0.00  0.00     0.000 A 
ATOM     14  C   UNL d   1     -51.043  14.937  22.744  0.00  0.00     0.000 A 
ATOM     15  C   UNL d   1     -50.427  14.396  22.647  0.00  0.00     0.005 A 
ENDBRANCH   8  10
ENDBRANCH   1   7
BRANCH   2  16
ATOM     16  C   UNL d   1     -46.024  12.552  23.049  0.00  0.00     0.306 C 
ATOM     17  O   UNL d   1     -45.586  12.090  23.560  0.00  0.00    -0.258 OA
BRANCH  16  18
ATOM     18  O   UNL d   1     -45.663  12.906  22.406  0.00  0.00    -0.271 OA
BRANCH  18  19
ATOM     19  C   UNL d   1     -44.845  12.905  22.334  0.00  0.00     0.126 C 
ATOM     20  C   UNL d   1     -44.509  13.046  21.591  0.00  0.00     0.029 C 
ENDBRANCH  18  19
ENDBRANCH  16  18
ENDBRANCH   2  16
TORSDOF 5
ENDMDL
MODEL 3
REMARK VINA RESULT:      -6.0      8.759      9.739
REMARK  5 active torsions:
REMARK  status: ('A' for Active; 'I' for Inactive)
REMARK    1  A    between atoms: N_5  and  C_1 
REMARK    2  A    between atoms: C_8  and  C_2 
REMARK       I    between atoms: C_7  and  N_5 
REMARK    3  A    between atoms: C_10  and  C_7 
REMARK    4  A    between atoms: O_12  and  C_8 
REMARK    5  A    between atoms: C_16  and  O_12 
ROOT
ATOM      1  C   UNL d   1     -39.785  14.214  18.746  0.00  0.00     0.114 A 
ATOM      2  C   UNL d   1     -40.090  14.760  17.572  0.00  0.00     0.094 A 
ATOM      3  S   UNL d   1     -40.186  14.827  18.370  0.00  0.00    -0.062 SA
ATOM      4  C   UNL d   1     -39.610  14.077  17.460  0.00  0.00     0.013 A 
ATOM      5  C   UNL d   1     -39.438  13.766  18.157  0.00  0.00     0.027 A 
ATOM      6  C   UNL d   1     -39.358  13.778  16.730  0.00  0.00     0.001 C 
ENDROOT
BRANCH   1   7
ATOM      7  N   UNL d   1     -39.734  14.065  19.589  0.00  0.00    -0.201 NA
ATOM      8  C   UNL d   1     -39.102  14.366  20.016  0.00  0.00     0.280 C 
ATOM      9  O   UNL d   1     -38.519  14.807  19.647  0.00  0.00    -0.265 OA
BRANCH   8  10
ATOM     10  C   UNL d   1     -39.054  14.223  20.819  0.00  0.00     0.058 A 
ATOM     11  C   UNL d   1     -39.494  14.659  21.355  0.00  0.00     0.005 A 
ATOM     12  C   UNL d   1     -39.453  14.525  22.168  0.00  0.00     0.000 A 
ATOM     13  C   UNL d   1     -38.948  13.927  22.438  0.00  0.00     0.000 A 
ATOM     14  C   UNL d   1     -38.498  13.480  21.912  0.00  0.00     0.000 A 
ATOM     15  C   UNL d   1     -38.547  13.624  21.101  0.00  0.00     0.005 A 
ENDBRANCH   8  10
ENDBRANCH   1   7
BRANCH   2  16
ATOM     16  C   UNL d   1     -40.398  15.259  16.979  0.00  0.00     0.306 C 
ATOM     17  O   UNL d   1     -39.875  15.706  16.540  0.00  0.00    -0.258 OA
BRANCH  16  18
ATOM     18  O   UNL d   1     -41.201  15.307  16.832  0.00  0.00    -0.271 OA
BRANCH  18  19
ATOM     19  C   UNL d   1     -41.507  15.922  16.380  0.00  0.00     0.126 C 
ATOM     20  C   UNL d   1     -42.307  15.904  16.173  0.00  0.00     0.029 C 
ENDBRANCH  18  19
ENDBRANCH  16  18
ENDBRANCH   2  16
TORSDOF 5
ENDMDL
MODEL 4
REMARK VINA RESULT:      -5.9      1.259      4.428
REMARK  5 active torsions:
REMARK  status: ('A' for Active; 'I' for Inactive)
REMARK    1  A    between atoms: N_5  and  C_1 
REMARK    2  A    between atoms: C_8  and  C_2 
REMARK       I    between atoms: C_7  and  N_5 
REMARK    3  A    between atoms: C_10  and  C_7 
REMARK    4  A    between atoms: O_12  and  C_8 
REMARK    5  A    between atoms: C_16  and  O_12 
ROOT
ATOM      1  C   UNL d   1     -46.462  12.822  23.274  0.00  0.00     0.114 A 
ATOM      2  C   UNL d   1     -47.557  13.505  22.952  0.00  0.00     0.094 A 
ATOM      3  S   UNL d   1     -47.277  12.778  23.163  0.00  0.00    -0.062 SA
ATOM      4  C   UNL d   1     -46.883  14.010  22.935  0.00  0.00     0.013 A 
ATOM      5  C   UNL d   1     -46.246  13.596  23.126  0.00  0.00     0.027 A 
ATOM      6  C   UNL d   1     -46.888  14.816  22.746  0.00  0.00     0.001 C 
ENDROOT
BRANCH   1   7
ATOM      7  N   UNL d   1     -45.932  12.186  23.501  0.00  0.00    -0.201 NA
ATOM      8  C   UNL d   1     -45.445  11.846  22.937  0.00  0.00     0.280 C 
ATOM      9  O   UNL d   1     -45.456  12.105  22.160  0.00  0.00    -0.265 OA
BRANCH   8  10
ATOM     10  C   UNL d   1     -44.940  11.241  23.153  0.00  0.00     0.058 A 
ATOM     11  C   UNL d   1     -44.130  11.307  23.054  0.00  0.00     0.005 A 
ATOM     12  C   UNL d   1     -43.611  10.703  23.268  0.00  0.00     0.000 A 
ATOM     13  C   UNL d   1     -43.931  10.011  23.592  0.00  0.00     0.000 A 
ATOM     14  C   UNL d   1     -44.744   9.929  23.698  0.00  0.00     0.000 A 
ATOM     15  C   UNL d   1     -45.253  10.540  23.480  0.00  0.00     0.005 A 
ENDBRANCH   8  10
ENDBRANCH   1   7
BRANCH   2  16
ATOM     16  C   UNL d   1     -48.346  13.717  22.786  0.00  0.00     0.306 C 
ATOM     17  O   UNL d   1     -48.653  14.380  23.149  0.00  0.00    -0.258 OA
BRANCH  16  18
ATOM     18  O   UNL d   1     -48.810  13.279  22.274  0.00  0.00    -0.271 OA
BRANCH  18  19
ATOM     19  C   UNL d   1     -49.551  13.552  22.045  0.00  0.00     0.126 C 
ATOM     20  C   UNL d   1     -50.003  13.091  21.528  0.00  0.00     0.029 C 
ENDBRANCH  18  19
ENDBRANCH  16  18
ENDBRANCH   2  16
TORSDOF 5
ENDMDL
MODEL 5
REMARK VINA RESULT:      -5.5      8.144      9.802
REMARK  5 active torsions:
REMARK  status: ('A' for Active; 'I' for Inactive)
REMARK    1  A    between atoms: N_5  and  C_1 
REMARK    2  A    between atoms: C_8  and  C_2 
REMARK       I    between atoms: C_7  and  N_5 
REMARK    3  A    between atoms: C_10  and  C_7 
REMARK    4  A    between atoms: O_12  and  C_8 
REMARK    5  A    between atoms: C_16  and  O_12 
ROOT
ATOM      1  C   UNL d   1     -39.530  15.045  19.282  0.00  0.00     0.114 A 
ATOM      2  C   UNL d   1     -39.800  15.135  20.581  0.00  0.00     0.094 A 
ATOM      3  S   UNL d   1     -39.267  14.861  20.040  0.00  0.00    -0.062 SA
ATOM      4  C   UNL d   1     -40.411  15.499  20.131  0.00  0.00     0.013 A 
ATOM      5  C   UNL d   1     -40.241  15.439  19.369  0.00  0.00     0.027 A 
ATOM      6  C   UNL d   1     -41.087  15.864  20.439  0.00  0.00     0.001 C 
ENDROOT
BRANCH   1   7
ATOM      7  N   UNL d   1     -39.143  14.863  18.538  0.00  0.00    -0.201 NA
ATOM      8  C   UNL d   1     -39.377  14.203  18.111  0.00  0.00     0.280 C 
ATOM      9  O   UNL d   1     -39.975  13.717  18.385  0.00  0.00    -0.265 OA
BRANCH   8  10
ATOM     10  C   UNL d   1     -39.008  14.030  17.403  0.00  0.00     0.058 A 
ATOM     11  C   UNL d   1     -39.066  14.533  16.760  0.00  0.00     0.005 A 
ATOM     12  C   UNL d   1     -38.698  14.369  16.039  0.00  0.00     0.000 A 
ATOM     13  C   UNL d   1     -38.259  13.670  15.978  0.00  0.00     0.000 A 
ATOM     14  C   UNL d   1     -38.192  13.153  16.616  0.00  0.00     0.000 A 
ATOM     15  C   UNL d   1     -38.564  13.328  17.331  0.00  0.00     0.005 A 
ENDBRANCH   8  10
ENDBRANCH   1   7
BRANCH   2  16
ATOM     16  C   UNL d   1     -39.759  15.072  21.411  0.00  0.00     0.306 C 
ATOM     17  O   UNL d   1     -40.198  14.489  21.777  0.00  0.00    -0.258 OA
BRANCH  16  18
ATOM     18  O   UNL d   1     -39.294  15.576  21.858  0.00  0.00    -0.271 OA
BRANCH  18  19
ATOM     19  C   UNL d   1     -39.068  15.369  22.621  0.00  0.00     0.126 C 
ATOM     20  C   UNL d   1     -38.653  15.920  23.077  0.00  0.00     0.029 C 
ENDBRANCH  18  19
ENDBRANCH  16  18
ENDBRANCH   2  16
TORSDOF 5
ENDMDL
MODEL 6
REMARK VINA RESULT:      -5.3      8.872     10.058
REMARK  5 active torsions:
REMARK  status: ('A' for Active; 'I' for Inactive)
REMARK    1  A    between atoms: N_5  and  C_1 
REMARK    2  A    between atoms: C_8  and  C_2 
REMARK       I    between atoms: C_7  and  N_5 
REMARK    3  A    between atoms: C_10  and  C_7 
REMARK    4  A    between atoms: O_12  and  C_8 
REMARK    5  A    between atoms: C_16  and  O_12 
ROOT
ATOM      1  C   UNL d   1     -39.710  15.650  18.652  0.00  0.00     0.114 A 
ATOM      2  C   UNL d   1     -39.501  15.320  17.381  0.00  0.00     0.094 A 
ATOM      3  S   UNL d   1     -39.139  15.512  18.076  0.00  0.00    -0.062 SA
ATOM      4  C   UNL d   1     -40.327  15.343  17.543  0.00  0.00     0.013 A 
ATOM      5  C   UNL d   1     -40.437  15.538  18.293  0.00  0.00     0.027 A 
ATOM      6  C   UNL d   1     -40.931  15.185  17.000  0.00  0.00     0.001 C 
ENDROOT
BRANCH   1   7
ATOM      7  N   UNL d   1     -39.582  15.869  19.471  0.00  0.00    -0.201 NA
ATOM      8  C   UNL d   1     -39.409  15.288  20.023  0.00  0.00     0.280 C 
ATOM      9  O   UNL d   1     -39.358  14.502  19.802  0.00  0.00    -0.265 OA
BRANCH   8  10
ATOM     10  C   UNL d   1     -39.287  15.497  20.803  0.00  0.00     0.058 A 
ATOM     11  C   UNL d   1     -38.535  15.508  21.127  0.00  0.00     0.005 A 
ATOM     12  C   UNL d   1     -38.398  15.717  21.913  0.00  0.00     0.000 A 
ATOM     13  C   UNL d   1     -39.051  15.920  22.380  0.00  0.00     0.000 A 
ATOM     14  C   UNL d   1     -39.814  15.914  22.069  0.00  0.00     0.000 A 
ATOM     15  C   UNL d   1     -39.938  15.703  21.281  0.00  0.00     0.005 A 
ENDBRANCH   8  10
ENDBRANCH   1   7
BRANCH   2  16
ATOM     16  C   UNL d   1     -39.139  15.137  16.653  0.00  0.00     0.306 C 
ATOM     17  O   UNL d   1     -39.133  15.708  16.069  0.00  0.00    -0.258 OA
BRANCH  16  18
ATOM     18  O   UNL d   1     -38.795  14.407  16.515  0.00  0.00    -0.271 OA
BRANCH  18  19
ATOM     19  C   UNL d   1     -38.277  14.302  15.885  0.00  0.00     0.126 C 
ATOM     20  C   UNL d   1     -37.941  13.556  15.766  0.00  0.00     0.029 C 
ENDBRANCH  18  19
ENDBRANCH  16  18
ENDBRANCH   2  16
TORSDOF 5
ENDMDL
MODEL 7
REMARK VINA RESULT:      -4.7      8.488      8.941
REMARK  5 active torsions:
REMARK  status: ('A' for Active; 'I' for Inactive)
REMARK    1  A    between atoms: N_5  and  C_1 
REMARK    2  A    between atoms: C_8  and  C_2 
REMARK       I    between atoms: C_7  and  N_5 
REMARK    3  A    between atoms: C_10  and  C_7 
REMARK    4  A    between atoms: O_12  and  C_8 
REMARK    5  A    between atoms: C_16  and  O_12 
ROOT
ATOM      1  C   UNL d   1     -39.655  15.411  20.184  0.00  0.00     0.114 A 
ATOM      2  C   UNL d   1     -39.171  15.037  21.365  0.00  0.00     0.094 A 
ATOM      3  S   UNL d   1     -39.108  14.931  20.568  0.00  0.00    -0.062 SA
ATOM      4  C   UNL d   1     -39.783  15.607  21.468  0.00  0.00     0.013 A 
ATOM      5  C   UNL d   1     -40.059  15.818  20.767  0.00  0.00     0.027 A 
ATOM      6  C   UNL d   1     -40.053  15.900  22.194  0.00  0.00     0.001 C 
ENDROOT
BRANCH   1   7
ATOM      7  N   UNL d   1     -39.786  15.480  19.339  0.00  0.00    -0.201 NA
ATOM      8  C   UNL d   1     -40.357  15.015  18.979  0.00  0.00     0.280 C 
ATOM      9  O   UNL d   1     -40.805  14.486  19.415  0.00  0.00    -0.265 OA
BRANCH   8  10
ATOM     10  C   UNL d   1     -40.482  15.081  18.174  0.00  0.00     0.058 A 
ATOM     11  C   UNL d   1     -40.937  15.686  17.863  0.00  0.00     0.005 A 
ATOM     12  C   UNL d   1     -41.070  15.763  17.052  0.00  0.00     0.000 A 
ATOM     13  C   UNL d   1     -40.727  15.204  16.547  0.00  0.00     0.000 A 
ATOM     14  C   UNL d   1     -40.266  14.589  16.845  0.00  0.00     0.000 A 
ATOM     15  C   UNL d   1     -40.140  14.522  17.658  0.00  0.00     0.005 A 
ENDBRANCH   8  10
ENDBRANCH   1   7
BRANCH   2  16
ATOM     16  C   UNL d   1     -38.727  14.665  21.964  0.00  0.00     0.306 C 
ATOM     17  O   UNL d   1     -37.941  14.869  22.046  0.00  0.00    -0.258 OA
BRANCH  16  18
ATOM     18  O   UNL d   1     -39.059  14.108  22.463  0.00  0.00    -0.271 OA
BRANCH  18  19
ATOM     19  C   UNL d   1     -38.582  13.612  22.912  0.00  0.00     0.126 C 
ATOM     20  C   UNL d   1     -38.896  13.267  23.595  0.00  0.00     0.029 C 
ENDBRANCH  18  19
ENDBRANCH  16  18
ENDBRANCH   2  16
TORSDOF 5
ENDMDL
