MODEL 1
REMARK VINA RESULT:      18.1      0.000      0.000
REMARK  1 active torsions:
REMARK  status: ('A' for Active; 'I' for Inactive)
REMARK    1  A    between atoms: C_7  and  C_4 
ROOT
ATOM      1  N   UNL d   1      46.114 -17.869  42.816  0.00  0.00    -0.242 NA
ATOM      2  C   UNL d   1      46.274 -18.407  44.138  0.00  0.00     0.156 A 
ATOM      3  N   UNL d   1      46.451 -19.146  43.813  0.00  0.00    -0.231 NA
ATOM      4  C   UNL d   1      46.105 -17.765  43.635  0.00  0.00     0.110 A 
ATOM      5  C   UNL d   1      46.292 -18.612  42.499  0.00  0.00     0.099 A 
ATOM      6  C   UNL d   1      46.459 -19.245  43.001  0.00  0.00     0.100 A 
ATOM      7 CL   UNL d   1      46.264 -18.300  44.955  0.00  0.00    -0.060 Cl
ATOM      8  C   UNL d   1      46.303 -18.724  41.676  0.00  0.00     0.021 A 
ATOM      9  C   UNL d   1      46.637 -19.990  42.680  0.00  0.00     0.021 A 
ATOM     10  C   UNL d   1      46.647 -20.098  41.864  0.00  0.00     0.002 A 
ATOM     11  C   UNL d   1      46.480 -19.465  41.361  0.00  0.00     0.002 A 
ENDROOT
BRANCH   4  12
ATOM     12  C   UNL d   1      45.930 -17.032  43.954  0.00  0.00     0.020 A 
ATOM     13  C   UNL d   1      45.438 -16.973  44.606  0.00  0.00     0.002 A 
ATOM     14  C   UNL d   1      45.259 -16.240  44.930  0.00  0.00     0.000 A 
ATOM     15  C   UNL d   1      45.580 -15.549  44.593  0.00  0.00     0.000 A 
ATOM     16  C   UNL d   1      46.080 -15.611  43.930  0.00  0.00     0.000 A 
ATOM     17  C   UNL d   1      45.406 -14.807  44.911  0.00  0.00     0.000 C 
ATOM     18  C   UNL d   1      46.252 -16.353  43.614  0.00  0.00     0.002 A 
ENDBRANCH   4  12
TORSDOF 1
ENDMDL
MODEL 2
REMARK VINA RESULT:      20.3      1.786      4.341
REMARK  1 active torsions:
REMARK  status: ('A' for Active; 'I' for Inactive)
REMARK    1  A    between atoms: C_7  and  C_4 
ROOT
ATOM      1  N   UNL d   1      46.186 -15.170  44.311  0.00  0.00    -0.242 NA
ATOM      2  C   UNL d   1      44.907 -15.609  44.794  0.00  0.00     0.156 A 
ATOM      3  N   UNL d   1      44.698 -14.825  44.948  0.00  0.00    -0.231 NA
ATOM      4  C   UNL d   1      45.656 -15.782  44.473  0.00  0.00     0.110 A 
ATOM      5  C   UNL d   1      45.970 -14.388  44.468  0.00  0.00     0.099 A 
ATOM      6  C   UNL d   1      45.227 -14.222  44.785  0.00  0.00     0.100 A 
ATOM      7 CL   UNL d   1      44.380 -16.222  44.955  0.00  0.00    -0.060 Cl
ATOM      8  C   UNL d   1      46.499 -13.768  44.307  0.00  0.00     0.021 A 
ATOM      9  C   UNL d   1      45.013 -13.435  44.942  0.00  0.00     0.021 A 
ATOM     10  C   UNL d   1      45.539 -12.822  44.781  0.00  0.00     0.002 A 
ATOM     11  C   UNL d   1      46.282 -12.989  44.463  0.00  0.00     0.002 A 
ENDROOT
BRANCH   4  12
ATOM     12  C   UNL d   1      45.865 -16.559  44.320  0.00  0.00     0.020 A 
ATOM     13  C   UNL d   1      46.024 -17.073  44.937  0.00  0.00     0.002 A 
ATOM     14  C   UNL d   1      46.234 -17.853  44.789  0.00  0.00     0.000 A 
ATOM     15  C   UNL d   1      46.287 -18.125  44.004  0.00  0.00     0.000 A 
ATOM     16  C   UNL d   1      46.124 -17.601  43.377  0.00  0.00     0.000 A 
ATOM     17  C   UNL d   1      46.497 -18.908  43.844  0.00  0.00     0.000 C 
ATOM     18  C   UNL d   1      45.914 -16.820  43.539  0.00  0.00     0.002 A 
ENDBRANCH   4  12
TORSDOF 1
ENDMDL
