MODEL 1
REMARK VINA RESULT:      43.6      0.000      0.000
REMARK  5 active torsions:
REMARK  status: ('A' for Active; 'I' for Inactive)
REMARK    1  A    between atoms: N_4  and  S_1 
REMARK    2  A    between atoms: C_10  and  S_1 
REMARK    3  A    between atoms: C_2  and  N_9 
REMARK    4  A    between atoms: C_13  and  C_3 
REMARK    5  A    between atoms: C_11  and  C_8 
REMARK       I    between atoms: N_9  and  C_11 
REMARK       I    between atoms: C_15  and  N_12 
ROOT
ATOM      1  N   UNL d   1      45.674 -17.197  44.257  0.00  0.00    -0.200 NA
ATOM      2  C   UNL d   1      46.086 -17.623  43.680  0.00  0.00     0.296 C 
ATOM      3  O   UNL d   1      46.388 -17.228  43.020  0.00  0.00    -0.264 OA
ENDROOT
BRANCH   1   4
ATOM      4  C   UNL d   1      45.565 -16.383  44.177  0.00  0.00     0.119 A 
ATOM      5  C   UNL d   1      44.907 -15.951  44.405  0.00  0.00     0.084 A 
ATOM      6  C   UNL d   1      45.035 -15.153  44.219  0.00  0.00     0.016 A 
ATOM      7  C   UNL d   1      44.574 -14.479  44.320  0.00  0.00     0.020 A 
ATOM      8  C   UNL d   1      45.780 -15.098  43.874  0.00  0.00     0.049 A 
ATOM      9  C   UNL d   1      44.857 -13.753  44.076  0.00  0.00     0.083 A 
ATOM     10  N   UNL d   1      45.612 -13.691  43.725  0.00  0.00    -0.272 N 
ATOM     11  C   UNL d   1      46.069 -14.367  43.627  0.00  0.00     0.089 A 
ATOM     12  C   UNL d   1      45.898 -12.945  43.477  0.00  0.00     0.265 C 
ATOM     13  O   UNL d   1      46.644 -12.891  43.131  0.00  0.00    -0.267 OA
ATOM     14  C   UNL d   1      45.433 -12.271  43.579  0.00  0.00     0.066 C 
ATOM     15  S   UNL d   1      46.111 -15.852  43.845  0.00  0.00    -0.066 SA
BRANCH   5  16
ATOM     16  C   UNL d   1      44.223 -16.256  44.762  0.00  0.00     0.299 C 
ATOM     17  O   UNL d   1      44.177 -17.052  44.948  0.00  0.00    -0.264 OA
ATOM     18  N   UNL d   1      43.603 -15.752  44.924  0.00  0.00    -0.102 N 
ENDBRANCH   5  16
ENDBRANCH   1   4
BRANCH   2  19
ATOM     19  C   UNL d   1      46.194 -18.429  43.761  0.00  0.00     0.133 A 
ATOM     20  N   UNL d   1      46.249 -18.978  43.138  0.00  0.00    -0.226 N 
ATOM     21  C   UNL d   1      46.357 -19.734  43.478  0.00  0.00     0.092 A 
ATOM     22  C   UNL d   1      46.368 -19.643  44.294  0.00  0.00     0.021 A 
ATOM     23  C   UNL d   1      46.268 -18.843  44.473  0.00  0.00     0.025 A 
BRANCH  20  24
ATOM     24  S   UNL d   1      46.205 -18.809  42.329  0.00  0.00     0.277 S 
ATOM     25  O   UNL d   1      46.642 -19.490  42.189  0.00  0.00    -0.199 OA
ATOM     26  O   UNL d   1      45.763 -18.122  42.475  0.00  0.00    -0.199 OA
BRANCH  24  27
ATOM     27  C   UNL d   1      46.182 -18.673  41.518  0.00  0.00     0.133 A 
ATOM     28  S   UNL d   1      46.638 -19.053  40.947  0.00  0.00    -0.074 SA
ATOM     29  C   UNL d   1      46.434 -18.746  40.207  0.00  0.00     0.036 A 
ATOM     30  C   UNL d   1      45.849 -18.172  40.325  0.00  0.00     0.008 A 
ATOM     31  C   UNL d   1      45.693 -18.128  41.134  0.00  0.00     0.020 A 
ENDBRANCH  24  27
ENDBRANCH  20  24
ENDBRANCH   2  19
TORSDOF 5
ENDMDL
