MODEL 1
REMARK VINA RESULT:      25.4      0.000      0.000
REMARK  5 active torsions:
REMARK  status: ('A' for Active; 'I' for Inactive)
REMARK    1  A    between atoms: N_9  and  S_1 
REMARK    2  A    between atoms: C_11  and  S_1 
REMARK    3  A    between atoms: C_5  and  C_10 
REMARK    4  A    between atoms: C_12  and  N_9 
REMARK    5  A    between atoms: C_10  and  C_12 
ROOT
ATOM      1  C   UNL d   1     -47.221  31.968  35.175  0.00  0.00     0.041 C 
ENDROOT
BRANCH   1   2
ATOM      2  C   UNL d   1     -47.403  32.425  34.511  0.00  0.00     0.090 A 
ATOM      3  N   UNL d   1     -48.116  32.828  34.389  0.00  0.00    -0.238 NA
ATOM      4  C   UNL d   1     -48.060  33.211  33.658  0.00  0.00     0.111 A 
ATOM      5  C   UNL d   1     -48.648  33.684  33.306  0.00  0.00     0.028 C 
ATOM      6  S   UNL d   1     -47.321  33.047  33.330  0.00  0.00    -0.066 SA
ATOM      7  C   UNL d   1     -46.913  32.558  33.862  0.00  0.00     0.056 A 
ENDBRANCH   1   2
BRANCH   1   8
ATOM      8  C   UNL d   1     -47.325  31.156  35.164  0.00  0.00     0.114 C 
BRANCH   8   9
ATOM      9  N   UNL d   1     -47.173  30.708  35.857  0.00  0.00    -0.157 NA
BRANCH   9  10
ATOM     10  S   UNL d   1     -47.416  29.920  35.889  0.00  0.00     0.286 S 
ATOM     11  O   UNL d   1     -47.864  30.091  36.568  0.00  0.00    -0.198 OA
ATOM     12  O   UNL d   1     -46.970  29.745  35.212  0.00  0.00    -0.198 OA
BRANCH  10  13
ATOM     13  C   UNL d   1     -47.663  29.136  35.928  0.00  0.00     0.117 C 
ATOM     14  C   UNL d   1     -48.044  28.798  35.289  0.00  0.00     0.014 C 
ENDBRANCH  10  13
ENDBRANCH   9  10
ENDBRANCH   8   9
ENDBRANCH   1   8
TORSDOF 5
ENDMDL
