MODEL 1
REMARK VINA RESULT:      -9.3      0.000      0.000
REMARK  4 active torsions:
REMARK  status: ('A' for Active; 'I' for Inactive)
REMARK    1  A    between atoms: C_11  and  N_2 
REMARK    2  A    between atoms: C_12  and  C_6 
REMARK    3  A    between atoms: C_15  and  C_11 
REMARK    4  A    between atoms: O_29  and  C_24 
ROOT
ATOM      1  C   UNL d   1      52.889  32.408  53.305  0.00  0.00     0.137 A 
ATOM      2  N   UNL d   1      52.328  33.684  53.003  0.00  0.00    -0.256 N 
ATOM      3  C   UNL d   1      52.159  32.048  53.151  0.00  0.00     0.192 A 
ATOM      4  C   UNL d   1      52.973  33.226  53.232  0.00  0.00     0.272 A 
ATOM      5  N   UNL d   1      51.517  32.503  52.924  0.00  0.00    -0.204 NA
ATOM      6  C   UNL d   1      51.598  33.328  52.848  0.00  0.00     0.152 A 
ATOM      7  C   UNL d   1      53.534  31.946  53.534  0.00  0.00     0.205 A 
ATOM      8  C   UNL d   1      53.455  31.139  53.608  0.00  0.00     0.062 A 
ATOM      9  O   UNL d   1      52.083  31.234  53.226  0.00  0.00    -0.289 OA
ATOM     10  C   UNL d   1      52.730  30.777  53.455  0.00  0.00     0.107 A 
ATOM     11  C   UNL d   1      52.650  29.952  53.531  0.00  0.00     0.049 A 
ATOM     12  C   UNL d   1      54.104  30.679  53.838  0.00  0.00     0.007 A 
ATOM     13  O   UNL d   1      53.700  33.580  53.386  0.00  0.00    -0.266 OA
ATOM     14  O   UNL d   1      54.258  32.308  53.687  0.00  0.00    -0.286 OA
ATOM     15  C   UNL d   1      53.296  29.499  53.759  0.00  0.00     0.096 A 
ATOM     16  C   UNL d   1      54.019  29.861  53.911  0.00  0.00     0.024 A 
ENDROOT
BRANCH   6  17
ATOM     17  C   UNL d   1      50.950  33.784  52.619  0.00  0.00     0.035 A 
ATOM     18  C   UNL d   1      50.372  33.983  53.171  0.00  0.00     0.003 A 
ATOM     19  C   UNL d   1      49.731  34.438  52.930  0.00  0.00     0.000 A 
ATOM     20  C   UNL d   1      49.663  34.693  52.152  0.00  0.00     0.000 A 
ATOM     21  C   UNL d   1      50.247  34.489  51.603  0.00  0.00     0.000 A 
ATOM     22  C   UNL d   1      49.017  35.148  51.920  0.00  0.00     0.000 C 
ATOM     23  C   UNL d   1      50.892  34.034  51.836  0.00  0.00     0.003 A 
ENDBRANCH   6  17
BRANCH   2  24
ATOM     24  C   UNL d   1      52.413  34.501  52.930  0.00  0.00     0.109 C 
BRANCH  24  25
ATOM     25  C   UNL d   1      52.692  34.956  53.573  0.00  0.00     0.118 A 
ATOM     26  O   UNL d   1      52.398  34.937  54.342  0.00  0.00    -0.304 OA
ATOM     27  C   UNL d   1      52.838  35.477  54.797  0.00  0.00     0.123 A 
ATOM     28  C   UNL d   1      53.408  35.830  54.300  0.00  0.00     0.029 A 
ATOM     29  C   UNL d   1      53.315  35.503  53.536  0.00  0.00     0.028 A 
ENDBRANCH  24  25
ENDBRANCH   2  24
BRANCH  15  30
ATOM     30  O   UNL d   1      53.226  28.688  53.836  0.00  0.00    -0.328 OA
ATOM     31  C   UNL d   1      53.342  28.339  54.572  0.00  0.00     0.181 C 
ENDBRANCH  15  30
TORSDOF 4
ENDMDL
MODEL 2
REMARK VINA RESULT:      -8.9      1.404      4.482
REMARK  4 active torsions:
REMARK  status: ('A' for Active; 'I' for Inactive)
REMARK    1  A    between atoms: C_11  and  N_2 
REMARK    2  A    between atoms: C_12  and  C_6 
REMARK    3  A    between atoms: C_15  and  C_11 
REMARK    4  A    between atoms: O_29  and  C_24 
ROOT
ATOM      1  C   UNL d   1      52.191  33.338  53.177  0.00  0.00     0.137 A 
ATOM      2  N   UNL d   1      53.254  32.462  53.547  0.00  0.00    -0.256 N 
ATOM      3  C   UNL d   1      51.677  32.692  53.114  0.00  0.00     0.192 A 
ATOM      4  C   UNL d   1      52.980  33.223  53.393  0.00  0.00     0.272 A 
ATOM      5  N   UNL d   1      51.949  31.934  53.267  0.00  0.00    -0.204 NA
ATOM      6  C   UNL d   1      52.743  31.814  53.485  0.00  0.00     0.152 A 
ATOM      7  C   UNL d   1      51.913  34.100  53.022  0.00  0.00     0.205 A 
ATOM      8  C   UNL d   1      51.136  34.217  52.808  0.00  0.00     0.062 A 
ATOM      9  O   UNL d   1      50.894  32.813  52.898  0.00  0.00    -0.289 OA
ATOM     10  C   UNL d   1      50.621  33.577  52.745  0.00  0.00     0.107 A 
ATOM     11  C   UNL d   1      49.827  33.697  52.526  0.00  0.00     0.049 A 
ATOM     12  C   UNL d   1      50.860  34.982  52.654  0.00  0.00     0.007 A 
ATOM     13  O   UNL d   1      53.487  33.868  53.455  0.00  0.00    -0.266 OA
ATOM     14  O   UNL d   1      52.427  34.740  53.086  0.00  0.00    -0.286 OA
ATOM     15  C   UNL d   1      49.558  34.458  52.374  0.00  0.00     0.096 A 
ATOM     16  C   UNL d   1      50.072  35.097  52.437  0.00  0.00     0.024 A 
ENDROOT
BRANCH   6  17
ATOM     17  C   UNL d   1      53.015  31.050  53.639  0.00  0.00     0.035 A 
ATOM     18  C   UNL d   1      53.449  30.646  53.068  0.00  0.00     0.003 A 
ATOM     19  C   UNL d   1      53.714  29.886  53.233  0.00  0.00     0.000 A 
ATOM     20  C   UNL d   1      53.552  29.530  53.955  0.00  0.00     0.000 A 
ATOM     21  C   UNL d   1      53.115  29.942  54.524  0.00  0.00     0.000 A 
ATOM     22  C   UNL d   1      53.821  28.768  54.111  0.00  0.00     0.000 C 
ATOM     23  C   UNL d   1      52.846  30.703  54.367  0.00  0.00     0.003 A 
ENDBRANCH   6  17
BRANCH   2  24
ATOM     24  C   UNL d   1      54.042  32.348  53.763  0.00  0.00     0.109 C 
BRANCH  24  25
ATOM     25  C   UNL d   1      54.376  32.789  54.390  0.00  0.00     0.118 A 
ATOM     26  O   UNL d   1      54.087  32.829  55.160  0.00  0.00    -0.304 OA
ATOM     27  C   UNL d   1      54.590  33.330  55.595  0.00  0.00     0.123 A 
ATOM     28  C   UNL d   1      55.192  33.600  55.084  0.00  0.00     0.029 A 
ATOM     29  C   UNL d   1      55.056  33.260  54.331  0.00  0.00     0.028 A 
ENDBRANCH  24  25
ENDBRANCH   2  24
BRANCH  15  30
ATOM     30  O   UNL d   1      48.780  34.586  52.158  0.00  0.00    -0.328 OA
ATOM     31  C   UNL d   1      48.607  34.851  51.398  0.00  0.00     0.181 C 
ENDBRANCH  15  30
TORSDOF 4
ENDMDL
MODEL 3
REMARK VINA RESULT:      -8.3      0.897      2.578
REMARK  4 active torsions:
REMARK  status: ('A' for Active; 'I' for Inactive)
REMARK    1  A    between atoms: C_11  and  N_2 
REMARK    2  A    between atoms: C_12  and  C_6 
REMARK    3  A    between atoms: C_15  and  C_11 
REMARK    4  A    between atoms: O_29  and  C_24 
ROOT
ATOM      1  C   UNL d   1      52.723  32.120  53.202  0.00  0.00     0.137 A 
ATOM      2  N   UNL d   1      52.517  33.525  53.068  0.00  0.00    -0.256 N 
ATOM      3  C   UNL d   1      53.155  32.247  53.898  0.00  0.00     0.192 A 
ATOM      4  C   UNL d   1      52.404  32.759  52.788  0.00  0.00     0.272 A 
ATOM      5  N   UNL d   1      53.267  33.009  54.178  0.00  0.00    -0.204 NA
ATOM      6  C   UNL d   1      52.947  33.655  53.762  0.00  0.00     0.152 A 
ATOM      7  C   UNL d   1      52.612  31.351  52.923  0.00  0.00     0.205 A 
ATOM      8  C   UNL d   1      52.925  30.718  53.330  0.00  0.00     0.062 A 
ATOM      9  O   UNL d   1      53.469  31.607  54.305  0.00  0.00    -0.289 OA
ATOM     10  C   UNL d   1      53.355  30.841  54.022  0.00  0.00     0.107 A 
ATOM     11  C   UNL d   1      53.674  30.194  54.437  0.00  0.00     0.049 A 
ATOM     12  C   UNL d   1      52.812  29.948  53.047  0.00  0.00     0.007 A 
ATOM     13  O   UNL d   1      51.977  32.628  52.097  0.00  0.00    -0.266 OA
ATOM     14  O   UNL d   1      52.183  31.228  52.231  0.00  0.00    -0.286 OA
ATOM     15  C   UNL d   1      53.560  29.432  54.153  0.00  0.00     0.096 A 
ATOM     16  C   UNL d   1      53.131  29.309  53.462  0.00  0.00     0.024 A 
ENDROOT
BRANCH   6  17
ATOM     17  C   UNL d   1      53.061  34.422  54.046  0.00  0.00     0.035 A 
ATOM     18  C   UNL d   1      53.540  34.947  53.631  0.00  0.00     0.003 A 
ATOM     19  C   UNL d   1      53.646  35.708  53.924  0.00  0.00     0.000 A 
ATOM     20  C   UNL d   1      53.282  35.946  54.621  0.00  0.00     0.000 A 
ATOM     21  C   UNL d   1      52.802  35.412  55.033  0.00  0.00     0.000 A 
ATOM     22  C   UNL d   1      53.394  36.709  54.907  0.00  0.00     0.000 C 
ATOM     23  C   UNL d   1      52.690  34.649  54.747  0.00  0.00     0.003 A 
ENDBRANCH   6  17
BRANCH   2  24
ATOM     24  C   UNL d   1      52.198  34.163  52.653  0.00  0.00     0.109 C 
BRANCH  24  25
ATOM     25  C   UNL d   1      51.375  34.203  52.509  0.00  0.00     0.118 A 
ATOM     26  O   UNL d   1      50.780  34.065  53.061  0.00  0.00    -0.304 OA
ATOM     27  C   UNL d   1      50.049  34.167  52.678  0.00  0.00     0.123 A 
ATOM     28  C   UNL d   1      50.199  34.369  51.882  0.00  0.00     0.029 A 
ATOM     29  C   UNL d   1      51.029  34.391  51.779  0.00  0.00     0.028 A 
ENDBRANCH  24  25
ENDBRANCH   2  24
BRANCH  15  30
ATOM     30  O   UNL d   1      53.870  28.790  54.554  0.00  0.00    -0.328 OA
ATOM     31  C   UNL d   1      53.469  28.486  55.205  0.00  0.00     0.181 C 
ENDBRANCH  15  30
TORSDOF 4
ENDMDL
MODEL 4
REMARK VINA RESULT:      -7.8      1.636      4.900
REMARK  4 active torsions:
REMARK  status: ('A' for Active; 'I' for Inactive)
REMARK    1  A    between atoms: C_11  and  N_2 
REMARK    2  A    between atoms: C_12  and  C_6 
REMARK    3  A    between atoms: C_15  and  C_11 
REMARK    4  A    between atoms: O_29  and  C_24 
ROOT
ATOM      1  C   UNL d   1      51.675  33.527  52.969  0.00  0.00     0.137 A 
ATOM      2  N   UNL d   1      52.949  32.994  53.324  0.00  0.00    -0.256 N 
ATOM      3  C   UNL d   1      51.763  34.124  53.535  0.00  0.00     0.192 A 
ATOM      4  C   UNL d   1      52.268  32.962  52.863  0.00  0.00     0.272 A 
ATOM      5  N   UNL d   1      52.440  34.157  53.995  0.00  0.00    -0.204 NA
ATOM      6  C   UNL d   1      53.040  33.589  53.891  0.00  0.00     0.152 A 
ATOM      7  C   UNL d   1      50.990  33.497  52.507  0.00  0.00     0.205 A 
ATOM      8  C   UNL d   1      50.403  34.052  52.608  0.00  0.00     0.062 A 
ATOM      9  O   UNL d   1      51.169  34.682  53.635  0.00  0.00    -0.289 OA
ATOM     10  C   UNL d   1      50.488  34.648  53.171  0.00  0.00     0.107 A 
ATOM     11  C   UNL d   1      49.887  35.215  53.274  0.00  0.00     0.049 A 
ATOM     12  C   UNL d   1      49.718  34.020  52.144  0.00  0.00     0.007 A 
ATOM     13  O   UNL d   1      52.175  32.370  52.298  0.00  0.00    -0.266 OA
ATOM     14  O   UNL d   1      50.906  32.902  51.945  0.00  0.00    -0.286 OA
ATOM     15  C   UNL d   1      49.210  35.180  52.812  0.00  0.00     0.096 A 
ATOM     16  C   UNL d   1      49.126  34.585  52.250  0.00  0.00     0.024 A 
ENDROOT
BRANCH   6  17
ATOM     17  C   UNL d   1      53.722  33.624  54.355  0.00  0.00     0.035 A 
ATOM     18  C   UNL d   1      53.692  33.401  55.147  0.00  0.00     0.003 A 
ATOM     19  C   UNL d   1      54.378  33.441  55.599  0.00  0.00     0.000 A 
ATOM     20  C   UNL d   1      55.085  33.698  55.270  0.00  0.00     0.000 A 
ATOM     21  C   UNL d   1      55.108  33.920  54.473  0.00  0.00     0.000 A 
ATOM     22  C   UNL d   1      55.767  33.734  55.730  0.00  0.00     0.000 C 
ATOM     23  C   UNL d   1      54.426  33.883  54.014  0.00  0.00     0.003 A 
ENDBRANCH   6  17
BRANCH   2  24
ATOM     24  C   UNL d   1      53.541  32.429  53.218  0.00  0.00     0.109 C 
BRANCH  24  25
ATOM     25  C   UNL d   1      53.366  31.615  53.294  0.00  0.00     0.118 A 
ATOM     26  O   UNL d   1      52.924  31.270  53.897  0.00  0.00    -0.304 OA
ATOM     27  C   UNL d   1      52.891  30.451  53.752  0.00  0.00     0.123 A 
ATOM     28  C   UNL d   1      53.318  30.295  53.051  0.00  0.00     0.029 A 
ATOM     29  C   UNL d   1      53.614  31.024  52.767  0.00  0.00     0.028 A 
ENDBRANCH  24  25
ENDBRANCH   2  24
BRANCH  15  30
ATOM     30  O   UNL d   1      48.615  35.732  52.906  0.00  0.00    -0.328 OA
ATOM     31  C   UNL d   1      48.004  35.769  52.355  0.00  0.00     0.181 C 
ENDBRANCH  15  30
TORSDOF 4
ENDMDL
