MODEL 1
REMARK VINA RESULT:      43.1      0.000      0.000
REMARK  3 active torsions:
REMARK  status: ('A' for Active; 'I' for Inactive)
REMARK    1  A    between atoms: C_8  and  C_3 
REMARK    2  A    between atoms: O_18  and  C_12 
REMARK    3  A    between atoms: O_19  and  C_13 
ROOT
ATOM      1  S   UNL d   1     -54.753-102.164 -39.574  0.00  0.00     0.211 S 
ATOM      2  C   UNL d   1     -54.747-102.061 -40.442  0.00  0.00     0.103 A 
ATOM      3  C   UNL d   1     -54.748-101.557 -38.975  0.00  0.00     0.093 A 
ATOM      4  N   UNL d   1     -54.729-100.688 -40.523  0.00  0.00    -0.321 N 
ATOM      5  C   UNL d   1     -54.729-100.425 -39.724  0.00  0.00     0.258 A 
ATOM      6  C   UNL d   1     -54.736-101.344 -40.836  0.00  0.00     0.070 A 
ATOM      7  C   UNL d   1     -54.737-100.753 -39.097  0.00  0.00     0.072 A 
ATOM      8  O   UNL d   1     -54.763-102.797 -39.071  0.00  0.00    -0.217 OA
ATOM      9  O   UNL d   1     -54.758-102.804 -40.158  0.00  0.00    -0.217 OA
ATOM     10  O   UNL d   1     -54.718 -99.507 -39.648  0.00  0.00    -0.267 OA
ATOM     11  C   UNL d   1     -54.754-102.766 -40.863  0.00  0.00     0.013 A 
ATOM     12  C   UNL d   1     -54.732-101.328 -41.651  0.00  0.00     0.018 A 
ATOM     13  C   UNL d   1     -54.750-102.754 -41.691  0.00  0.00     0.001 A 
ATOM     14  C   UNL d   1     -54.739-102.024 -42.075  0.00  0.00     0.002 A 
ATOM     15  H   UNL d   1     -54.718-100.062 -41.064  0.00  0.00     0.169 HD
ENDROOT
BRANCH   3  16
ATOM     16  C   UNL d   1     -54.755-101.813 -38.185  0.00  0.00     0.013 A 
ATOM     17  C   UNL d   1     -54.799-101.262 -37.570  0.00  0.00     0.027 A 
ATOM     18  C   UNL d   1     -54.806-101.525 -36.787  0.00  0.00     0.116 A 
ATOM     19  C   UNL d   1     -54.769-102.319 -36.618  0.00  0.00     0.116 A 
ATOM     20  C   UNL d   1     -54.724-102.879 -37.231  0.00  0.00     0.026 A 
ATOM     21  C   UNL d   1     -54.716-102.628 -38.020  0.00  0.00     0.003 A 
BRANCH  18  22
ATOM     22  O   UNL d   1     -54.850-100.972 -36.171  0.00  0.00    -0.326 OA
ATOM     23  C   UNL d   1     -55.120-100.207 -36.312  0.00  0.00     0.181 C 
ENDBRANCH  18  22
BRANCH  19  24
ATOM     24  O   UNL d   1     -54.776-102.578 -35.828  0.00  0.00    -0.326 OA
ATOM     25  C   UNL d   1     -55.370-102.338 -35.321  0.00  0.00     0.181 C 
ENDBRANCH  19  24
ENDBRANCH   3  16
TORSDOF 3
ENDMDL
