MODEL 1
REMARK VINA RESULT:      91.2      0.000      0.000
REMARK  3 active torsions:
REMARK  status: ('A' for Active; 'I' for Inactive)
REMARK    1  A    between atoms: C_2  and  C_1 
REMARK    2  A    between atoms: C_4  and  C_1 
REMARK       I    between atoms: N_3  and  C_2 
REMARK    3  A    between atoms: C_6  and  N_5 
ROOT
ATOM      1  C   UNL d   1     -55.246 -99.776 -43.562  0.00  0.00     0.253 C 
ATOM      2  N   UNL d   1     -55.187-100.262 -42.899  0.00  0.00    -0.272 N 
ATOM      3  N   UNL d   1     -55.024-101.152 -41.546  0.00  0.00    -0.299 N 
ATOM      4  O   UNL d   1     -54.920 -99.022 -43.551  0.00  0.00    -0.271 OA
ATOM      5  C   UNL d   1     -54.797 -99.962 -42.243  0.00  0.00     0.102 A 
ATOM      6  C   UNL d   1     -55.493-101.005 -42.874  0.00  0.00     0.102 A 
ATOM      7  C   UNL d   1     -54.712-100.397 -41.567  0.00  0.00     0.100 A 
ATOM      8  C   UNL d   1     -55.415-101.461 -42.195  0.00  0.00     0.100 A 
ENDROOT
BRANCH   1   9
ATOM      9  C   UNL d   1     -55.631-100.043 -44.243  0.00  0.00     0.137 A 
ATOM     10  C   UNL d   1     -56.010-100.306 -44.914  0.00  0.00     0.018 A 
ATOM     11  C   UNL d   1     -56.737 -99.972 -45.140  0.00  0.00     0.119 A 
ATOM     12  O   UNL d   1     -57.073 -99.381 -44.692  0.00  0.00    -0.304 OA
ATOM     13  C   UNL d   1     -56.692 -99.113 -44.013  0.00  0.00     0.119 A 
ATOM     14  C   UNL d   1     -55.969 -99.443 -43.785  0.00  0.00     0.018 A 
BRANCH   9  15
ATOM     15  C   UNL d   1     -55.288-100.643 -44.697  0.00  0.00     0.023 A 
ATOM     16  S   UNL d   1     -55.147-100.627 -45.515  0.00  0.00    -0.090 SA
ATOM     17  C   UNL d   1     -54.798-101.338 -45.741  0.00  0.00     0.035 A 
ATOM     18  C   UNL d   1     -54.715-101.809 -45.076  0.00  0.00     0.007 A 
ATOM     19  C   UNL d   1     -55.018-101.381 -44.426  0.00  0.00     0.004 A 
ENDBRANCH   9  15
ENDBRANCH   1   9
BRANCH   3  20
ATOM     20  C   UNL d   1     -54.949-101.603 -40.878  0.00  0.00     0.092 A 
ATOM     21  C   UNL d   1     -54.804-101.244 -40.153  0.00  0.00     0.156 A 
ATOM     22  F   UNL d   1     -54.734-100.439 -40.100  0.00  0.00    -0.203 F 
ATOM     23  C   UNL d   1     -54.728-101.698 -39.483  0.00  0.00     0.031 A 
ATOM     24  C   UNL d   1     -54.797-102.518 -39.528  0.00  0.00     0.002 A 
ATOM     25  C   UNL d   1     -54.943-102.876 -40.258  0.00  0.00     0.002 A 
ATOM     26  C   UNL d   1     -55.020-102.414 -40.937  0.00  0.00     0.020 A 
ENDBRANCH   3  20
TORSDOF 3
ENDMDL
