MODEL 1
REMARK VINA RESULT:      69.7      0.000      0.000
REMARK  4 active torsions:
REMARK  status: ('A' for Active; 'I' for Inactive)
REMARK    1  A    between atoms: N_10  and  C_3 
REMARK    2  A    between atoms: C_11  and  C_4 
REMARK    3  A    between atoms: C_17  and  N_10 
REMARK       I    between atoms: C_12  and  N_13 
REMARK    4  A    between atoms: N_13  and  C_18 
ROOT
ATOM      1  C   UNL d   1      45.707 -18.387  41.599  0.00  0.00     0.168 A 
ATOM      2  N   UNL d   1      45.579 -17.863  40.954  0.00  0.00    -0.184 N 
ATOM      3  C   UNL d   1      45.463 -18.170  40.229  0.00  0.00     0.218 A 
ATOM      4  C   UNL d   1      45.825 -18.095  42.335  0.00  0.00     0.057 A 
ATOM      5  N   UNL d   1      45.698 -16.774  41.833  0.00  0.00    -0.160 NA
ATOM      6  N   UNL d   1      45.709 -19.182  41.474  0.00  0.00    -0.227 NA
ATOM      7  C   UNL d   1      45.464 -18.972  40.092  0.00  0.00     0.071 A 
ATOM      8  C   UNL d   1      45.821 -17.282  42.458  0.00  0.00     0.124 A 
ATOM      9  C   UNL d   1      45.590 -19.488  40.728  0.00  0.00     0.087 A 
ATOM     10  C   UNL d   1      45.592 -20.327  40.595  0.00  0.00     0.021 C 
ENDROOT
BRANCH   3  11
ATOM     11  N   UNL d   1      45.333 -17.644  39.574  0.00  0.00    -0.383 NA
BRANCH  11  12
ATOM     12  C   UNL d   1      45.131 -17.077  38.991  0.00  0.00     0.134 A 
ATOM     13  C   UNL d   1      44.686 -17.292  38.321  0.00  0.00     0.034 A 
ATOM     14  C   UNL d   1      44.484 -16.703  37.730  0.00  0.00     0.022 A 
ATOM     15  C   UNL d   1      44.735 -15.906  37.825  0.00  0.00     0.085 A 
ATOM     16  C   UNL d   1      45.187 -15.683  38.504  0.00  0.00     0.022 A 
ATOM     17  C   UNL d   1      45.390 -16.266  39.095  0.00  0.00     0.034 A 
BRANCH  15  18
ATOM     18  N   UNL d   1      44.536 -15.327  37.243  0.00  0.00    -0.208 NA
ATOM     19  C   UNL d   1      45.134 -14.831  36.913  0.00  0.00     0.279 C 
ATOM     20  O   UNL d   1      44.940 -14.258  36.337  0.00  0.00    -0.265 OA
ATOM     21  C   UNL d   1      45.937 -14.914  37.168  0.00  0.00     0.068 C 
ENDBRANCH  15  18
ENDBRANCH  11  12
ENDBRANCH   3  11
BRANCH   4  22
ATOM     22  C   UNL d   1      45.949 -18.603  42.960  0.00  0.00     0.005 A 
ATOM     23  C   UNL d   1      45.635 -18.434  43.682  0.00  0.00     0.001 A 
ATOM     24  C   UNL d   1      45.759 -18.942  44.307  0.00  0.00     0.011 A 
ATOM     25  C   UNL d   1      46.194 -19.610  44.200  0.00  0.00     0.058 A 
ATOM     26  C   UNL d   1      46.506 -19.771  43.468  0.00  0.00     0.011 A 
ATOM     27 CL   UNL d   1      46.324 -20.142  44.854  0.00  0.00    -0.082 Cl
ATOM     28  C   UNL d   1      46.384 -19.271  42.854  0.00  0.00     0.001 A 
ENDBRANCH   4  22
TORSDOF 4
ENDMDL
