MODEL 1
REMARK VINA RESULT:      68.8      0.000      0.000
REMARK  12 active torsions:
REMARK  status: ('A' for Active; 'I' for Inactive)
REMARK    1  A    between atoms: C_7  and  C_1 
REMARK    2  A    between atoms: C_8  and  N_2 
REMARK    3  A    between atoms: C_6  and  C_5 
REMARK    4  A    between atoms: C_9  and  C_7 
REMARK    5  A    between atoms: C_24  and  C_8 
REMARK    6  A    between atoms: C_12  and  C_9 
REMARK    7  A    between atoms: C_11  and  C_12 
REMARK    8  A    between atoms: O_27  and  C_13 
REMARK    9  A    between atoms: N_14  and  C_24 
REMARK   10  A    between atoms: O_28  and  C_18 
REMARK   11  A    between atoms: C_33  and  O_28 
REMARK   12  A    between atoms: C_35  and  C_33 
ROOT
ATOM      1  C   UNL d   1      15.043  16.795  -3.345  0.00  0.00     0.099 A 
ATOM      2  N   UNL d   1      14.726  16.057  -2.278  0.00  0.00    -0.269 N 
ATOM      3  C   UNL d   1      15.318  17.179  -2.669  0.00  0.00     0.256 A 
ATOM      4  C   UNL d   1      15.125  16.727  -2.010  0.00  0.00     0.304 A 
ATOM      5  C   UNL d   1      14.675  16.097  -3.103  0.00  0.00     0.073 A 
ATOM      6  O   UNL d   1      15.297  16.910  -1.225  0.00  0.00    -0.263 OA
ATOM      7  O   UNL d   1      15.720  17.897  -2.657  0.00  0.00    -0.281 OA
ENDROOT
BRANCH   5   8
ATOM      8  C   UNL d   1      14.319  15.539  -3.590  0.00  0.00     0.018 A 
ATOM      9  C   UNL d   1      14.640  15.369  -4.320  0.00  0.00     0.028 A 
ATOM     10  C   UNL d   1      14.285  14.811  -4.807  0.00  0.00     0.117 A 
ATOM     11  C   UNL d   1      13.595  14.419  -4.554  0.00  0.00     0.122 A 
ATOM     12  C   UNL d   1      13.274  14.595  -3.815  0.00  0.00     0.027 A 
ATOM     13  C   UNL d   1      13.636  15.159  -3.327  0.00  0.00     0.004 A 
BRANCH  10  14
ATOM     14  O   UNL d   1      14.607  14.638  -5.542  0.00  0.00    -0.326 OA
ATOM     15  C   UNL d   1      14.347  15.047  -6.214  0.00  0.00     0.181 C 
ENDBRANCH  10  14
BRANCH  11  16
ATOM     16  O   UNL d   1      13.239  13.861  -5.041  0.00  0.00    -0.303 OA
BRANCH  16  17
ATOM     17  C   UNL d   1      12.924  13.170  -4.711  0.00  0.00     0.123 C 
BRANCH  17  18
ATOM     18  C   UNL d   1      13.268  12.439  -4.882  0.00  0.00     0.027 C 
ATOM     19  C   UNL d   1      12.801  11.830  -5.175  0.00  0.00     0.002 C 
ENDBRANCH  17  18
ENDBRANCH  16  17
ENDBRANCH  11  16
ENDBRANCH   5   8
BRANCH   2  20
ATOM     20  C   UNL d   1      14.429  15.448  -1.805  0.00  0.00     0.102 C 
BRANCH  20  21
ATOM     21  C   UNL d   1      14.796  15.262  -1.089  0.00  0.00     0.100 C 
BRANCH  21  22
ATOM     22  N   UNL d   1      14.783  14.490  -0.810  0.00  0.00    -0.298 N 
ATOM     23  C   UNL d   1      14.139  14.227  -0.384  0.00  0.00     0.107 A 
ATOM     24  C   UNL d   1      14.124  13.450  -0.102  0.00  0.00     0.142 A 
ATOM     25  O   UNL d   1      14.759  12.944  -0.252  0.00  0.00    -0.300 OA
ATOM     26  C   UNL d   1      15.408  13.216  -0.684  0.00  0.00     0.142 A 
ATOM     27  C   UNL d   1      15.422  13.985  -0.963  0.00  0.00     0.107 A 
ENDBRANCH  21  22
ENDBRANCH  20  21
ENDBRANCH   2  20
BRANCH   1  28
ATOM     28  C   UNL d   1      15.119  17.056  -4.118  0.00  0.00     0.200 C 
ATOM     29  O   UNL d   1      15.706  16.741  -4.607  0.00  0.00    -0.286 OA
BRANCH  28  30
ATOM     30  C   UNL d   1      14.607  17.638  -4.410  0.00  0.00     0.044 C 
BRANCH  30  31
ATOM     31  C   UNL d   1      14.847  18.120  -5.040  0.00  0.00     0.028 C 
BRANCH  31  32
ATOM     32  C   UNL d   1      14.348  18.704  -5.317  0.00  0.00     0.100 A 
ATOM     33  O   UNL d   1      14.282  19.467  -5.024  0.00  0.00    -0.305 OA
ATOM     34  C   UNL d   1      13.711  19.871  -5.468  0.00  0.00     0.123 A 
ATOM     35  C   UNL d   1      13.423  19.356  -6.038  0.00  0.00     0.029 A 
ATOM     36  C   UNL d   1      13.815  18.630  -5.949  0.00  0.00     0.027 A 
ENDBRANCH  31  32
ENDBRANCH  30  31
ENDBRANCH  28  30
ENDBRANCH   1  28
TORSDOF 12
ENDMDL
