MODEL 1
REMARK VINA RESULT:      -4.9      0.000      0.000
REMARK  3 active torsions:
REMARK  status: ('A' for Active; 'I' for Inactive)
REMARK    1  A    between atoms: C_2  and  C_1 
REMARK    2  A    between atoms: C_14  and  O_17 
REMARK    3  A    between atoms: O_17  and  C_16 
ROOT
ATOM      1  C   UNL d   1      57.280   0.047  31.550  0.00  0.00     0.087 A 
ATOM      2  C   UNL d   1      57.375  -0.713  31.233  0.00  0.00     0.201 A 
ATOM      3  C   UNL d   1      57.848  -0.846  30.570  0.00  0.00     0.062 A 
ATOM      4  C   UNL d   1      57.671   0.682  31.189  0.00  0.00     0.128 A 
ATOM      5  C   UNL d   1      58.241  -0.208  30.207  0.00  0.00     0.105 A 
ATOM      6  O   UNL d   1      58.155   0.553  30.513  0.00  0.00    -0.305 OA
ATOM      7  C   UNL d   1      58.714  -0.342  29.545  0.00  0.00     0.050 A 
ATOM      8  C   UNL d   1      57.943  -1.599  30.255  0.00  0.00     0.007 A 
ATOM      9  O   UNL d   1      56.989  -1.356  31.584  0.00  0.00    -0.286 OA
ATOM     10  C   UNL d   1      58.797  -1.097  29.245  0.00  0.00     0.105 A 
ATOM     11  C   UNL d   1      58.403  -1.735  29.608  0.00  0.00     0.025 A 
ENDROOT
BRANCH   1  12
ATOM     12  C   UNL d   1      56.811   0.176  32.206  0.00  0.00     0.116 A 
ATOM     13  N   UNL d   1      55.985   0.185  32.217  0.00  0.00    -0.238 NA
ATOM     14  C   UNL d   1      55.750   0.334  32.994  0.00  0.00     0.088 A 
ATOM     15  C   UNL d   1      55.007   0.405  33.332  0.00  0.00     0.020 A 
ATOM     16  C   UNL d   1      56.420   0.417  33.460  0.00  0.00     0.049 A 
ATOM     17  C   UNL d   1      54.922   0.559  34.141  0.00  0.00     0.002 A 
ATOM     18  C   UNL d   1      55.608   0.641  34.606  0.00  0.00     0.001 A 
ATOM     19  C   UNL d   1      56.351   0.570  34.268  0.00  0.00     0.008 A 
ATOM     20  S   UNL d   1      57.095   0.320  32.979  0.00  0.00    -0.066 SA
ENDBRANCH   1  12
BRANCH  10  21
ATOM     21  O   UNL d   1      59.276  -1.219  28.576  0.00  0.00    -0.273 OA
BRANCH  21  22
ATOM     22  C   UNL d   1      60.043  -1.508  28.657  0.00  0.00     0.300 C 
ATOM     23  O   UNL d   1      60.648  -1.020  28.936  0.00  0.00    -0.259 OA
ATOM     24  C   UNL d   1      60.217  -2.299  28.458  0.00  0.00     0.074 C 
ENDBRANCH  21  22
ENDBRANCH  10  21
TORSDOF 3
ENDMDL
MODEL 2
REMARK VINA RESULT:      -4.7      1.663      5.056
REMARK  3 active torsions:
REMARK  status: ('A' for Active; 'I' for Inactive)
REMARK    1  A    between atoms: C_2  and  C_1 
REMARK    2  A    between atoms: C_14  and  O_17 
REMARK    3  A    between atoms: O_17  and  C_16 
ROOT
ATOM      1  C   UNL d   1      57.384  -0.484  31.079  0.00  0.00     0.087 A 
ATOM      2  C   UNL d   1      56.919  -0.957  31.576  0.00  0.00     0.201 A 
ATOM      3  C   UNL d   1      56.448  -0.625  32.167  0.00  0.00     0.062 A 
ATOM      4  C   UNL d   1      57.372   0.338  31.183  0.00  0.00     0.128 A 
ATOM      5  C   UNL d   1      56.436   0.201  32.272  0.00  0.00     0.105 A 
ATOM      6  O   UNL d   1      56.895   0.682  31.784  0.00  0.00    -0.305 OA
ATOM      7  C   UNL d   1      55.966   0.531  32.863  0.00  0.00     0.050 A 
ATOM      8  C   UNL d   1      55.986  -1.093  32.661  0.00  0.00     0.007 A 
ATOM      9  O   UNL d   1      56.922  -1.780  31.482  0.00  0.00    -0.286 OA
ATOM     10  C   UNL d   1      55.513   0.051  33.344  0.00  0.00     0.105 A 
ATOM     11  C   UNL d   1      55.525  -0.775  33.239  0.00  0.00     0.025 A 
ENDROOT
BRANCH   1  12
ATOM     12  C   UNL d   1      57.848  -0.815  30.494  0.00  0.00     0.116 A 
ATOM     13  N   UNL d   1      57.812  -1.597  30.231  0.00  0.00    -0.238 NA
ATOM     14  C   UNL d   1      58.380  -1.685  29.638  0.00  0.00     0.088 A 
ATOM     15  C   UNL d   1      58.591  -2.332  29.182  0.00  0.00     0.020 A 
ATOM     16  C   UNL d   1      58.764  -0.968  29.534  0.00  0.00     0.049 A 
ATOM     17  C   UNL d   1      59.191  -2.272  28.614  0.00  0.00     0.002 A 
ATOM     18  C   UNL d   1      59.576  -1.540  28.516  0.00  0.00     0.001 A 
ATOM     19  C   UNL d   1      59.364  -0.893  28.972  0.00  0.00     0.008 A 
ATOM     20  S   UNL d   1      58.442  -0.411  30.065  0.00  0.00    -0.066 SA
ENDBRANCH   1  12
BRANCH  10  21
ATOM     21  O   UNL d   1      55.042   0.396  33.937  0.00  0.00    -0.273 OA
BRANCH  21  22
ATOM     22  C   UNL d   1      55.342   0.514  34.695  0.00  0.00     0.300 C 
ATOM     23  O   UNL d   1      56.142   0.682  34.809  0.00  0.00    -0.259 OA
ATOM     24  C   UNL d   1      54.838   0.465  35.358  0.00  0.00     0.074 C 
ENDBRANCH  21  22
ENDBRANCH  10  21
TORSDOF 3
ENDMDL
MODEL 3
REMARK VINA RESULT:      -2.6      1.808      5.133
REMARK  3 active torsions:
REMARK  status: ('A' for Active; 'I' for Inactive)
REMARK    1  A    between atoms: C_2  and  C_1 
REMARK    2  A    between atoms: C_14  and  O_17 
REMARK    3  A    between atoms: O_17  and  C_16 
ROOT
ATOM      1  C   UNL d   1      58.160   0.131  30.732  0.00  0.00     0.087 A 
ATOM      2  C   UNL d   1      58.269   0.320  31.531  0.00  0.00     0.201 A 
ATOM      3  C   UNL d   1      57.628   0.403  32.044  0.00  0.00     0.062 A 
ATOM      4  C   UNL d   1      57.389   0.023  30.448  0.00  0.00     0.128 A 
ATOM      5  C   UNL d   1      56.853   0.295  31.759  0.00  0.00     0.105 A 
ATOM      6  O   UNL d   1      56.732   0.106  30.965  0.00  0.00    -0.305 OA
ATOM      7  C   UNL d   1      56.213   0.378  32.272  0.00  0.00     0.050 A 
ATOM      8  C   UNL d   1      57.735   0.591  32.837  0.00  0.00     0.007 A 
ATOM      9  O   UNL d   1      59.035   0.430  31.827  0.00  0.00    -0.286 OA
ATOM     10  C   UNL d   1      56.338   0.565  33.058  0.00  0.00     0.105 A 
ATOM     11  C   UNL d   1      57.113   0.673  33.343  0.00  0.00     0.025 A 
ENDROOT
BRANCH   1  12
ATOM     12  C   UNL d   1      58.797   0.050  30.226  0.00  0.00     0.116 A 
ATOM     13  N   UNL d   1      59.029  -0.647  29.847  0.00  0.00    -0.238 NA
ATOM     14  C   UNL d   1      59.696  -0.470  29.394  0.00  0.00     0.088 A 
ATOM     15  C   UNL d   1      60.160  -0.938  28.907  0.00  0.00     0.020 A 
ATOM     16  C   UNL d   1      59.876   0.324  29.490  0.00  0.00     0.049 A 
ATOM     17  C   UNL d   1      60.811  -0.619  28.508  0.00  0.00     0.002 A 
ATOM     18  C   UNL d   1      60.986   0.189  28.611  0.00  0.00     0.001 A 
ATOM     19  C   UNL d   1      60.523   0.656  29.098  0.00  0.00     0.008 A 
ATOM     20  S   UNL d   1      59.320   0.665  30.010  0.00  0.00    -0.066 SA
ENDBRANCH   1  12
BRANCH  10  21
ATOM     21  O   UNL d   1      55.684   0.646  33.566  0.00  0.00    -0.273 OA
BRANCH  21  22
ATOM     22  C   UNL d   1      55.598   0.154  34.220  0.00  0.00     0.300 C 
ATOM     23  O   UNL d   1      55.455  -0.654  34.123  0.00  0.00    -0.259 OA
ATOM     24  C   UNL d   1      55.654   0.467  34.991  0.00  0.00     0.074 C 
ENDBRANCH  21  22
ENDBRANCH  10  21
TORSDOF 3
ENDMDL
