MODEL 1
REMARK VINA RESULT:      -1.1      0.000      0.000
REMARK  4 active torsions:
REMARK  status: ('A' for Active; 'I' for Inactive)
REMARK    1  A    between atoms: N_7  and  S_1 
REMARK    2  A    between atoms: C_8  and  S_1 
REMARK    3  A    between atoms: C_16  and  N_7 
REMARK    4  A    between atoms: C_15  and  C_16 
ROOT
ATOM      1  C   UNL d   1     -41.348-122.526 -50.889  0.00  0.00     0.112 C 
ENDROOT
BRANCH   1   2
ATOM      2  C   UNL d   1     -41.496-122.423 -51.693  0.00  0.00     0.020 A 
ATOM      3  C   UNL d   1     -41.383-123.052 -52.223  0.00  0.00     0.003 A 
ATOM      4  C   UNL d   1     -41.533-122.942 -53.028  0.00  0.00     0.018 A 
ATOM      5  C   UNL d   1     -41.473-123.452 -53.676  0.00  0.00     0.019 A 
ATOM      6  C   UNL d   1     -41.795-122.211 -53.310  0.00  0.00     0.064 A 
ATOM      7  C   UNL d   1     -41.696-123.037 -54.349  0.00  0.00     0.064 A 
ATOM      8  C   UNL d   1     -41.716-123.340 -55.116  0.00  0.00     0.019 C 
ATOM      9  N   UNL d   1     -41.894-122.272 -54.122  0.00  0.00    -0.304 N 
ATOM     10  C   UNL d   1     -42.150-121.670 -54.630  0.00  0.00     0.099 C 
ATOM     11  C   UNL d   1     -41.908-121.585 -52.788  0.00  0.00     0.018 A 
ATOM     12  C   UNL d   1     -41.760-121.685 -51.977  0.00  0.00     0.003 A 
ENDBRANCH   1   2
BRANCH   1  13
ATOM     13  N   UNL d   1     -41.855-122.983 -50.428  0.00  0.00    -0.157 NA
BRANCH  13  14
ATOM     14  S   UNL d   1     -41.580-123.346 -49.742  0.00  0.00     0.285 S 
ATOM     15  O   UNL d   1     -41.172-123.813 -49.194  0.00  0.00    -0.198 OA
ATOM     16  O   UNL d   1     -41.129-123.678 -50.356  0.00  0.00    -0.198 OA
BRANCH  14  17
ATOM     17  C   UNL d   1     -41.902-123.153 -49.014  0.00  0.00     0.105 A 
ATOM     18  C   UNL d   1     -41.401-122.973 -48.383  0.00  0.00     0.013 A 
ATOM     19  C   UNL d   1     -41.725-122.777 -47.644  0.00  0.00     0.001 A 
ATOM     20  C   UNL d   1     -42.544-122.763 -47.544  0.00  0.00     0.000 A 
ATOM     21  C   UNL d   1     -43.042-122.947 -48.186  0.00  0.00     0.001 A 
ATOM     22  C   UNL d   1     -42.868-122.570 -46.812  0.00  0.00     0.000 C 
ATOM     23  C   UNL d   1     -42.716-123.139 -48.913  0.00  0.00     0.013 A 
ENDBRANCH  14  17
ENDBRANCH  13  14
ENDBRANCH   1  13
TORSDOF 4
ENDMDL
