MODEL 1
REMARK VINA RESULT:      -1.3      0.000      0.000
REMARK  4 active torsions:
REMARK  status: ('A' for Active; 'I' for Inactive)
REMARK       I    between atoms: C_4  and  N_1 
REMARK    1  A    between atoms: C_7  and  C_3 
REMARK    2  A    between atoms: C_8  and  C_4 
REMARK    3  A    between atoms: C_10  and  C_5 
REMARK    4  A    between atoms: O_23  and  C_18 
ROOT
ATOM      1  N   UNL d   1      32.805  18.740 -23.714  0.00  0.00    -0.194 N 
ATOM      2  N   UNL d   1      32.965  19.487 -23.421  0.00  0.00    -0.163 NA
ATOM      3  C   UNL d   1      32.567  18.261 -23.084  0.00  0.00     0.091 A 
ATOM      4  C   UNL d   1      32.869  18.492 -24.523  0.00  0.00     0.286 C 
ATOM      5  C   UNL d   1      32.826  19.468 -22.607  0.00  0.00     0.103 A 
ATOM      6  C   UNL d   1      32.584  18.721 -22.409  0.00  0.00     0.040 A 
ATOM      7  O   UNL d   1      33.117  19.043 -25.090  0.00  0.00    -0.265 OA
ENDROOT
BRANCH   5   8
ATOM      8  C   UNL d   1      32.919  20.106 -22.092  0.00  0.00     0.019 A 
ATOM      9  C   UNL d   1      32.789  20.878 -22.352  0.00  0.00     0.004 A 
ATOM     10  C   UNL d   1      32.882  21.516 -21.837  0.00  0.00     0.024 A 
ATOM     11  C   UNL d   1      33.108  21.380 -21.052  0.00  0.00     0.094 A 
ATOM     12  C   UNL d   1      33.239  20.607 -20.788  0.00  0.00     0.024 A 
ATOM     13  C   UNL d   1      33.145  19.970 -21.307  0.00  0.00     0.004 A 
BRANCH  11  14
ATOM     14  O   UNL d   1      33.203  22.016 -20.533  0.00  0.00    -0.328 OA
ATOM     15  C   UNL d   1      32.994  22.781 -20.772  0.00  0.00     0.181 C 
ENDBRANCH  11  14
ENDBRANCH   5   8
BRANCH   3  16
ATOM     16  C   UNL d   1      32.353  17.460 -23.145  0.00  0.00     0.057 A 
ATOM     17  C   UNL d   1      31.564  17.261 -23.108  0.00  0.00     0.197 A 
ATOM     18  O   UNL d   1      30.992  17.825 -23.013  0.00  0.00    -0.286 OA
ATOM     19  C   UNL d   1      31.345  16.456 -23.168  0.00  0.00     0.042 A 
ATOM     20  C   UNL d   1      31.916  15.863 -23.266  0.00  0.00     0.003 A 
ATOM     21  C   UNL d   1      32.700  16.098 -23.300  0.00  0.00     0.000 A 
ATOM     22  C   UNL d   1      32.914  16.868 -23.242  0.00  0.00     0.005 A 
ENDBRANCH   3  16
BRANCH   4  23
ATOM     23  C   UNL d   1      32.692  17.733 -24.733  0.00  0.00     0.087 A 
ATOM     24  S   UNL d   1      31.960  17.467 -24.909  0.00  0.00    -0.082 SA
ATOM     25  C   UNL d   1      32.027  16.647 -25.096  0.00  0.00     0.036 A 
ATOM     26  C   UNL d   1      32.829  16.437 -25.023  0.00  0.00     0.008 A 
ATOM     27  C   UNL d   1      33.239  17.113 -24.798  0.00  0.00     0.012 A 
ENDBRANCH   4  23
TORSDOF 4
ENDMDL
MODEL 2
REMARK VINA RESULT:      -0.2      1.826      5.304
REMARK  4 active torsions:
REMARK  status: ('A' for Active; 'I' for Inactive)
REMARK       I    between atoms: C_4  and  N_1 
REMARK    1  A    between atoms: C_7  and  C_3 
REMARK    2  A    between atoms: C_8  and  C_4 
REMARK    3  A    between atoms: C_10  and  C_5 
REMARK    4  A    between atoms: O_23  and  C_18 
ROOT
ATOM      1  N   UNL d   1      32.800  20.698 -21.331  0.00  0.00    -0.194 N 
ATOM      2  N   UNL d   1      32.958  19.968 -21.665  0.00  0.00    -0.163 NA
ATOM      3  C   UNL d   1      32.523  21.200 -21.927  0.00  0.00     0.091 A 
ATOM      4  C   UNL d   1      32.900  20.912 -20.516  0.00  0.00     0.286 C 
ATOM      5  C   UNL d   1      32.778  20.020 -22.469  0.00  0.00     0.103 A 
ATOM      6  C   UNL d   1      32.514  20.770 -22.622  0.00  0.00     0.040 A 
ATOM      7  O   UNL d   1      33.185  20.341 -19.987  0.00  0.00    -0.265 OA
ENDROOT
BRANCH   5   8
ATOM      8  C   UNL d   1      32.856  19.407 -23.016  0.00  0.00     0.019 A 
ATOM      9  C   UNL d   1      33.135  19.557 -23.778  0.00  0.00     0.004 A 
ATOM     10  C   UNL d   1      33.213  18.944 -24.325  0.00  0.00     0.024 A 
ATOM     11  C   UNL d   1      33.010  18.171 -24.107  0.00  0.00     0.094 A 
ATOM     12  C   UNL d   1      32.731  18.017 -23.344  0.00  0.00     0.024 A 
ATOM     13  C   UNL d   1      32.653  18.634 -22.799  0.00  0.00     0.004 A 
BRANCH  11  14
ATOM     14  O   UNL d   1      33.087  17.555 -24.652  0.00  0.00    -0.328 OA
ATOM     15  C   UNL d   1      33.172  16.775 -24.388  0.00  0.00     0.181 C 
ENDBRANCH  11  14
ENDBRANCH   5   8
BRANCH   3  16
ATOM     16  C   UNL d   1      32.299  21.993 -21.820  0.00  0.00     0.057 A 
ATOM     17  C   UNL d   1      32.667  22.568 -22.265  0.00  0.00     0.197 A 
ATOM     18  O   UNL d   1      33.241  22.380 -22.804  0.00  0.00    -0.286 OA
ATOM     19  C   UNL d   1      32.444  23.367 -22.161  0.00  0.00     0.042 A 
ATOM     20  C   UNL d   1      31.859  23.581 -21.614  0.00  0.00     0.003 A 
ATOM     21  C   UNL d   1      31.509  22.978 -21.184  0.00  0.00     0.000 A 
ATOM     22  C   UNL d   1      31.719  22.211 -21.280  0.00  0.00     0.005 A 
ENDBRANCH   3  16
BRANCH   4  23
ATOM     23  C   UNL d   1      32.720  21.658 -20.265  0.00  0.00     0.087 A 
ATOM     24  S   UNL d   1      33.241  22.260 -20.213  0.00  0.00    -0.082 SA
ATOM     25  C   UNL d   1      32.821  22.933 -19.927  0.00  0.00     0.036 A 
ATOM     26  C   UNL d   1      32.030  22.706 -19.810  0.00  0.00     0.008 A 
ATOM     27  C   UNL d   1      31.970  21.913 -20.021  0.00  0.00     0.012 A 
ENDBRANCH   4  23
TORSDOF 4
ENDMDL
MODEL 3
REMARK VINA RESULT:       0.0      0.982      1.657
REMARK  4 active torsions:
REMARK  status: ('A' for Active; 'I' for Inactive)
REMARK       I    between atoms: C_4  and  N_1 
REMARK    1  A    between atoms: C_7  and  C_3 
REMARK    2  A    between atoms: C_8  and  C_4 
REMARK    3  A    between atoms: C_10  and  C_5 
REMARK    4  A    between atoms: O_23  and  C_18 
ROOT
ATOM      1  N   UNL d   1      32.784  18.081 -22.506  0.00  0.00    -0.194 N 
ATOM      2  N   UNL d   1      32.994  18.707 -22.023  0.00  0.00    -0.163 NA
ATOM      3  C   UNL d   1      32.447  18.389 -23.195  0.00  0.00     0.091 A 
ATOM      4  C   UNL d   1      32.891  17.257 -22.337  0.00  0.00     0.286 C 
ATOM      5  C   UNL d   1      32.785  19.403 -22.415  0.00  0.00     0.103 A 
ATOM      6  C   UNL d   1      32.453  19.203 -23.127  0.00  0.00     0.040 A 
ATOM      7  O   UNL d   1      33.240  17.040 -21.617  0.00  0.00    -0.265 OA
ENDROOT
BRANCH   5   8
ATOM      8  C   UNL d   1      32.899  20.168 -22.125  0.00  0.00     0.019 A 
ATOM      9  C   UNL d   1      32.969  20.302 -21.315  0.00  0.00     0.004 A 
ATOM     10  C   UNL d   1      33.083  21.067 -21.025  0.00  0.00     0.024 A 
ATOM     11  C   UNL d   1      33.126  21.704 -21.552  0.00  0.00     0.094 A 
ATOM     12  C   UNL d   1      33.055  21.571 -22.366  0.00  0.00     0.024 A 
ATOM     13  C   UNL d   1      32.942  20.804 -22.653  0.00  0.00     0.004 A 
BRANCH  11  14
ATOM     14  O   UNL d   1      33.240  22.470 -21.266  0.00  0.00    -0.328 OA
ATOM     15  C   UNL d   1      32.683  22.809 -20.756  0.00  0.00     0.181 C 
ENDBRANCH  11  14
ENDBRANCH   5   8
BRANCH   3  16
ATOM     16  C   UNL d   1      32.159  17.937 -23.831  0.00  0.00     0.057 A 
ATOM     17  C   UNL d   1      31.353  17.866 -23.928  0.00  0.00     0.197 A 
ATOM     18  O   UNL d   1      30.835  18.225 -23.421  0.00  0.00    -0.286 OA
ATOM     19  C   UNL d   1      31.060  17.413 -24.566  0.00  0.00     0.042 A 
ATOM     20  C   UNL d   1      31.574  17.037 -25.097  0.00  0.00     0.003 A 
ATOM     21  C   UNL d   1      32.378  17.128 -24.969  0.00  0.00     0.000 A 
ATOM     22  C   UNL d   1      32.664  17.562 -24.359  0.00  0.00     0.005 A 
ENDBRANCH   3  16
BRANCH   4  23
ATOM     23  C   UNL d   1      32.656  16.697 -22.868  0.00  0.00     0.087 A 
ATOM     24  S   UNL d   1      33.106  16.415 -23.464  0.00  0.00    -0.082 SA
ATOM     25  C   UNL d   1      32.647  15.844 -23.880  0.00  0.00     0.036 A 
ATOM     26  C   UNL d   1      31.905  15.797 -23.507  0.00  0.00     0.008 A 
ATOM     27  C   UNL d   1      31.913  16.328 -22.879  0.00  0.00     0.012 A 
ENDBRANCH   4  23
TORSDOF 4
ENDMDL
