MODEL 1
REMARK VINA RESULT:      -0.4      0.000      0.000
REMARK  8 active torsions:
REMARK  status: ('A' for Active; 'I' for Inactive)
REMARK    1  A    between atoms: C_2  and  C_1 
REMARK    2  A    between atoms: C_12  and  C_5 
REMARK    3  A    between atoms: C_14  and  C_6 
REMARK    4  A    between atoms: O_20  and  C_13 
REMARK    5  A    between atoms: O_21  and  C_14 
REMARK    6  A    between atoms: O_23  and  C_15 
REMARK    7  A    between atoms: O_22  and  C_16 
REMARK    8  A    between atoms: C_26  and  O_21 
ROOT
ATOM      1  C   UNL d   1     -41.730-122.348 -52.047  0.00  0.00     0.206 A 
ATOM      2  O   UNL d   1     -41.891-122.862 -51.374  0.00  0.00    -0.268 OA
ATOM      3  N   UNL d   1     -41.583-121.553 -51.741  0.00  0.00    -0.121 NA
ATOM      4  C   UNL d   1     -41.844-122.389 -50.651  0.00  0.00     0.205 A 
ATOM      5  N   UNL d   1     -41.651-121.569 -50.880  0.00  0.00    -0.121 NA
ENDROOT
BRANCH   1   6
ATOM      6  C   UNL d   1     -41.721-122.581 -52.831  0.00  0.00     0.061 A 
ATOM      7  C   UNL d   1     -42.017-122.080 -53.401  0.00  0.00     0.012 A 
ATOM      8  C   UNL d   1     -42.014-122.297 -54.181  0.00  0.00     0.081 A 
ATOM      9  C   UNL d   1     -41.712-123.026 -54.400  0.00  0.00     0.086 A 
ATOM     10  N   UNL d   1     -41.418-123.528 -53.836  0.00  0.00    -0.245 NA
ATOM     11  C   UNL d   1     -41.710-123.245 -55.180  0.00  0.00     0.021 C 
ATOM     12  C   UNL d   1     -41.419-123.311 -53.050  0.00  0.00     0.085 A 
ATOM     13  C   UNL d   1     -41.123-123.817 -52.488  0.00  0.00     0.021 C 
BRANCH   8  14
ATOM     14  C   UNL d   1     -42.307-121.798 -54.739  0.00  0.00     0.302 C 
ATOM     15  O   UNL d   1     -43.054-121.485 -54.655  0.00  0.00    -0.259 OA
BRANCH  14  16
ATOM     16  O   UNL d   1     -41.865-121.601 -55.391  0.00  0.00    -0.271 OA
BRANCH  16  17
ATOM     17  C   UNL d   1     -41.812-120.826 -55.624  0.00  0.00     0.126 C 
ATOM     18  C   UNL d   1     -41.729-120.643 -56.425  0.00  0.00     0.029 C 
ENDBRANCH  16  17
ENDBRANCH  14  16
ENDBRANCH   8  14
ENDBRANCH   1   6
BRANCH   4  19
ATOM     19  C   UNL d   1     -41.968-122.678 -49.834  0.00  0.00     0.047 A 
ATOM     20  C   UNL d   1     -41.360-122.543 -49.240  0.00  0.00     0.030 A 
ATOM     21  C   UNL d   1     -41.479-122.827 -48.432  0.00  0.00     0.118 A 
ATOM     22  C   UNL d   1     -42.215-123.250 -48.221  0.00  0.00     0.138 A 
ATOM     23  C   UNL d   1     -42.822-123.381 -48.827  0.00  0.00     0.118 A 
ATOM     24  C   UNL d   1     -42.698-123.095 -49.633  0.00  0.00     0.030 A 
BRANCH  21  25
ATOM     25  O   UNL d   1     -41.123-122.873 -47.637  0.00  0.00    -0.326 OA
ATOM     26  C   UNL d   1     -41.270-122.248 -47.053  0.00  0.00     0.181 C 
ENDBRANCH  21  25
BRANCH  22  27
ATOM     27  O   UNL d   1     -42.333-123.533 -47.414  0.00  0.00    -0.324 OA
ATOM     28  C   UNL d   1     -43.135-123.687 -47.125  0.00  0.00     0.182 C 
ENDBRANCH  22  27
BRANCH  23  29
ATOM     29  O   UNL d   1     -43.552-123.799 -48.620  0.00  0.00    -0.326 OA
ATOM     30  C   UNL d   1     -44.237-123.761 -49.146  0.00  0.00     0.181 C 
ENDBRANCH  23  29
ENDBRANCH   4  19
TORSDOF 8
ENDMDL
MODEL 2
REMARK VINA RESULT:       1.3      0.641      1.533
REMARK  8 active torsions:
REMARK  status: ('A' for Active; 'I' for Inactive)
REMARK    1  A    between atoms: C_2  and  C_1 
REMARK    2  A    between atoms: C_12  and  C_5 
REMARK    3  A    between atoms: C_14  and  C_6 
REMARK    4  A    between atoms: O_20  and  C_13 
REMARK    5  A    between atoms: O_21  and  C_14 
REMARK    6  A    between atoms: O_23  and  C_15 
REMARK    7  A    between atoms: O_22  and  C_16 
REMARK    8  A    between atoms: C_26  and  O_21 
ROOT
ATOM      1  C   UNL d   1     -41.998-122.436 -51.927  0.00  0.00     0.206 A 
ATOM      2  O   UNL d   1     -41.977-122.927 -51.219  0.00  0.00    -0.268 OA
ATOM      3  N   UNL d   1     -42.295-121.657 -51.699  0.00  0.00    -0.121 NA
ATOM      4  C   UNL d   1     -42.261-122.456 -50.551  0.00  0.00     0.205 A 
ATOM      5  N   UNL d   1     -42.460-121.660 -50.851  0.00  0.00    -0.121 NA
ENDROOT
BRANCH   1   6
ATOM      6  C   UNL d   1     -41.774-122.675 -52.678  0.00  0.00     0.061 A 
ATOM      7  C   UNL d   1     -41.987-122.223 -53.321  0.00  0.00     0.012 A 
ATOM      8  C   UNL d   1     -41.773-122.446 -54.069  0.00  0.00     0.081 A 
ATOM      9  C   UNL d   1     -41.338-123.132 -54.181  0.00  0.00     0.086 A 
ATOM     10  N   UNL d   1     -41.124-123.583 -53.543  0.00  0.00    -0.245 NA
ATOM     11  C   UNL d   1     -41.123-123.356 -54.929  0.00  0.00     0.021 C 
ATOM     12  C   UNL d   1     -41.339-123.360 -52.790  0.00  0.00     0.085 A 
ATOM     13  C   UNL d   1     -41.123-123.816 -52.153  0.00  0.00     0.021 C 
BRANCH   8  14
ATOM     14  C   UNL d   1     -41.986-121.997 -54.701  0.00  0.00     0.302 C 
ATOM     15  O   UNL d   1     -41.449-121.485 -55.037  0.00  0.00    -0.259 OA
BRANCH  14  16
ATOM     16  O   UNL d   1     -42.735-122.046 -55.010  0.00  0.00    -0.271 OA
BRANCH  16  17
ATOM     17  C   UNL d   1     -42.959-121.546 -55.607  0.00  0.00     0.126 C 
ATOM     18  C   UNL d   1     -43.726-121.240 -55.620  0.00  0.00     0.029 C 
ENDBRANCH  16  17
ENDBRANCH  14  16
ENDBRANCH   8  14
ENDBRANCH   1   6
BRANCH   4  19
ATOM     19  C   UNL d   1     -42.335-122.725 -49.722  0.00  0.00     0.047 A 
ATOM     20  C   UNL d   1     -43.048-123.137 -49.472  0.00  0.00     0.030 A 
ATOM     21  C   UNL d   1     -43.125-123.405 -48.654  0.00  0.00     0.118 A 
ATOM     22  C   UNL d   1     -42.479-123.256 -48.083  0.00  0.00     0.138 A 
ATOM     23  C   UNL d   1     -41.765-122.839 -48.344  0.00  0.00     0.118 A 
ATOM     24  C   UNL d   1     -41.693-122.574 -49.163  0.00  0.00     0.030 A 
BRANCH  21  25
ATOM     25  O   UNL d   1     -43.647-123.815 -48.087  0.00  0.00    -0.326 OA
ATOM     26  C   UNL d   1     -44.509-123.751 -48.160  0.00  0.00     0.181 C 
ENDBRANCH  21  25
BRANCH  22  27
ATOM     27  O   UNL d   1     -42.557-123.523 -47.265  0.00  0.00    -0.324 OA
ATOM     28  C   UNL d   1     -41.862-123.531 -46.747  0.00  0.00     0.182 C 
ENDBRANCH  22  27
BRANCH  23  29
ATOM     29  O   UNL d   1     -41.124-122.691 -47.780  0.00  0.00    -0.326 OA
ATOM     30  C   UNL d   1     -41.138-121.982 -47.284  0.00  0.00     0.181 C 
ENDBRANCH  23  29
ENDBRANCH   4  19
TORSDOF 8
ENDMDL
