MODEL 1
REMARK VINA RESULT:      65.6      0.000      0.000
REMARK  9 active torsions:
REMARK  status: ('A' for Active; 'I' for Inactive)
REMARK    1  A    between atoms: P_3  and  C_1 
REMARK    2  A    between atoms: O_13  and  P_3 
REMARK    3  A    between atoms: O_14  and  P_3 
REMARK    4  A    between atoms: N_8  and  C_4 
REMARK    5  A    between atoms: C_15  and  N_8 
REMARK    6  A    between atoms: C_25  and  O_13 
REMARK    7  A    between atoms: C_26  and  O_14 
REMARK    8  A    between atoms: O_23  and  C_16 
REMARK    9  A    between atoms: O_24  and  C_17 
ROOT
ATOM      1  C   UNL d   1      58.624  49.398  50.777  0.00  0.00     0.174 A 
ATOM      2  C   UNL d   1      59.328  49.346  50.336  0.00  0.00     0.100 A 
ATOM      3  C   UNL d   1      60.058  49.398  50.718  0.00  0.00     0.095 A 
ATOM      4  N   UNL d   1      58.658  49.502  51.596  0.00  0.00    -0.237 NA
ATOM      5  C   UNL d   1      60.090  49.501  51.534  0.00  0.00     0.038 A 
ATOM      6  C   UNL d   1      59.386  49.553  51.975  0.00  0.00     0.083 A 
ATOM      7  C   UNL d   1      60.816  49.552  51.909  0.00  0.00     0.027 A 
ATOM      8 CL   UNL d   1      59.292  49.243  49.514  0.00  0.00    -0.079 Cl
ATOM      9  C   UNL d   1      59.418  49.656  52.790  0.00  0.00     0.021 A 
ATOM     10  C   UNL d   1      60.854  49.656  52.735  0.00  0.00     0.094 A 
ATOM     11  C   UNL d   1      60.146  49.707  53.169  0.00  0.00     0.026 A 
ENDROOT
BRANCH   3  12
ATOM     12  N   UNL d   1      60.759  49.346  50.279  0.00  0.00    -0.245 NA
BRANCH  12  13
ATOM     13  C   UNL d   1      61.121  48.610  50.150  0.00  0.00     0.082 A 
ATOM     14  C   UNL d   1      60.807  47.937  50.503  0.00  0.00     0.021 A 
ATOM     15  C   UNL d   1      61.162  47.194  50.380  0.00  0.00     0.026 A 
ATOM     16  C   UNL d   1      61.835  47.139  49.900  0.00  0.00     0.094 A 
ATOM     17  C   UNL d   1      62.149  47.826  49.545  0.00  0.00     0.026 A 
ATOM     18  C   UNL d   1      61.790  48.556  49.673  0.00  0.00     0.021 A 
BRANCH  16  19
ATOM     19  O   UNL d   1      62.191  46.404  49.776  0.00  0.00    -0.328 OA
ATOM     20  C   UNL d   1      61.739  45.775  49.471  0.00  0.00     0.181 C 
ENDBRANCH  16  19
ENDBRANCH  12  13
ENDBRANCH   3  12
BRANCH   1  21
ATOM     21  P   UNL d   1      57.887  49.347  50.394  0.00  0.00     0.393 P 
ATOM     22  O   UNL d   1      58.226  49.668  49.713  0.00  0.00    -0.251 OA
BRANCH  21  23
ATOM     23  O   UNL d   1      57.144  49.283  50.040  0.00  0.00    -0.263 OA
BRANCH  23  24
ATOM     24  C   UNL d   1      56.974  49.708  49.354  0.00  0.00     0.126 C 
ATOM     25  C   UNL d   1      56.255  49.597  48.965  0.00  0.00     0.029 C 
ENDBRANCH  23  24
ENDBRANCH  21  23
BRANCH  21  26
ATOM     26  O   UNL d   1      57.375  49.020  50.965  0.00  0.00    -0.263 OA
BRANCH  26  27
ATOM     27  C   UNL d   1      56.559  49.031  50.850  0.00  0.00     0.126 C 
ATOM     28  C   UNL d   1      56.063  49.367  51.417  0.00  0.00     0.029 C 
ENDBRANCH  26  27
ENDBRANCH  21  26
ENDBRANCH   1  21
BRANCH  10  29
ATOM     29  O   UNL d   1      61.582  49.708  53.114  0.00  0.00    -0.328 OA
ATOM     30  C   UNL d   1      62.191  49.196  52.902  0.00  0.00     0.181 C 
ENDBRANCH  10  29
TORSDOF 9
ENDMDL
