MODEL 1
REMARK VINA RESULT:      -3.5      0.000      0.000
REMARK  5 active torsions:
REMARK  status: ('A' for Active; 'I' for Inactive)
REMARK    1  A    between atoms: C_9  and  C_2 
REMARK    2  A    between atoms: O_8  and  C_4 
REMARK    3  A    between atoms: C_14  and  O_8 
REMARK    4  A    between atoms: N_11  and  C_9 
REMARK    5  A    between atoms: O_20  and  C_18 
ROOT
ATOM      1  C   UNL d   1      58.873  -1.146  29.807  0.00  0.00     0.108 A 
ATOM      2  C   UNL d   1      59.512  -1.546  29.460  0.00  0.00     0.079 A 
ATOM      3  C   UNL d   1      58.607  -0.426  29.483  0.00  0.00     0.064 A 
ATOM      4  C   UNL d   1      57.594  -0.343  30.500  0.00  0.00     0.163 A 
ATOM      5  C   UNL d   1      57.976  -0.032  29.827  0.00  0.00     0.222 A 
ATOM      6  O   UNL d   1      58.503  -1.469  30.476  0.00  0.00    -0.303 OA
ATOM      7  C   UNL d   1      57.861  -1.067  30.825  0.00  0.00     0.150 A 
ATOM      8  C   UNL d   1      58.991  -0.121  28.813  0.00  0.00     0.009 A 
ATOM      9  C   UNL d   1      59.885  -1.235  28.796  0.00  0.00     0.199 A 
ATOM     10  O   UNL d   1      57.709   0.682  29.509  0.00  0.00    -0.284 OA
ATOM     11  C   UNL d   1      59.625  -0.522  28.473  0.00  0.00     0.042 A 
ATOM     12  O   UNL d   1      60.519  -1.635  28.455  0.00  0.00    -0.286 OA
ENDROOT
BRANCH   4  13
ATOM     13  O   UNL d   1      56.962   0.054  30.842  0.00  0.00    -0.302 OA
BRANCH  13  14
ATOM     14  C   UNL d   1      56.928   0.150  31.659  0.00  0.00     0.102 A 
ATOM     15  C   UNL d   1      56.307  -0.184  32.085  0.00  0.00     0.049 A 
ATOM     16  C   UNL d   1      56.274  -0.089  32.903  0.00  0.00     0.096 A 
ATOM     17  C   UNL d   1      56.860   0.340  33.294  0.00  0.00     0.024 A 
ATOM     18  C   UNL d   1      57.486   0.676  32.856  0.00  0.00     0.004 A 
ATOM     19  C   UNL d   1      57.514   0.578  32.044  0.00  0.00     0.025 A 
BRANCH  16  20
ATOM     20  O   UNL d   1      55.653  -0.423  33.328  0.00  0.00    -0.328 OA
ATOM     21  C   UNL d   1      55.080   0.063  33.666  0.00  0.00     0.181 C 
ENDBRANCH  16  20
ENDBRANCH  13  14
ENDBRANCH   4  13
BRANCH   2  22
ATOM     22  C   UNL d   1      59.770  -2.252  29.781  0.00  0.00     0.086 C 
BRANCH  22  23
ATOM     23  N   UNL d   1      59.721  -2.948  29.338  0.00  0.00    -0.299 N 
ATOM     24  C   UNL d   1      60.400  -3.387  29.193  0.00  0.00     0.107 A 
ATOM     25  C   UNL d   1      60.347  -4.084  28.749  0.00  0.00     0.142 A 
ATOM     26  O   UNL d   1      59.618  -4.334  28.455  0.00  0.00    -0.300 OA
ATOM     27  C   UNL d   1      58.938  -3.888  28.604  0.00  0.00     0.142 A 
ATOM     28  C   UNL d   1      58.990  -3.195  29.046  0.00  0.00     0.107 A 
ENDBRANCH  22  23
ENDBRANCH   2  22
TORSDOF 5
ENDMDL
MODEL 2
REMARK VINA RESULT:      -2.5      1.687      5.085
REMARK  5 active torsions:
REMARK  status: ('A' for Active; 'I' for Inactive)
REMARK    1  A    between atoms: C_9  and  C_2 
REMARK    2  A    between atoms: O_8  and  C_4 
REMARK    3  A    between atoms: C_14  and  O_8 
REMARK    4  A    between atoms: N_11  and  C_9 
REMARK    5  A    between atoms: O_20  and  C_18 
ROOT
ATOM      1  C   UNL d   1      57.871   0.672  32.036  0.00  0.00     0.108 A 
ATOM      2  C   UNL d   1      57.345   0.674  32.679  0.00  0.00     0.079 A 
ATOM      3  C   UNL d   1      58.693   0.674  32.170  0.00  0.00     0.064 A 
ATOM      4  C   UNL d   1      58.924   0.667  30.751  0.00  0.00     0.163 A 
ATOM      5  C   UNL d   1      59.211   0.672  31.534  0.00  0.00     0.222 A 
ATOM      6  O   UNL d   1      57.570   0.667  31.263  0.00  0.00    -0.303 OA
ATOM      7  C   UNL d   1      58.097   0.664  30.617  0.00  0.00     0.150 A 
ATOM      8  C   UNL d   1      58.973   0.679  32.952  0.00  0.00     0.009 A 
ATOM      9  C   UNL d   1      57.634   0.679  33.449  0.00  0.00     0.199 A 
ATOM     10  O   UNL d   1      60.026   0.675  31.663  0.00  0.00    -0.284 OA
ATOM     11  C   UNL d   1      58.447   0.682  33.586  0.00  0.00     0.042 A 
ATOM     12  O   UNL d   1      57.109   0.681  34.084  0.00  0.00    -0.286 OA
ENDROOT
BRANCH   4  13
ATOM     13  O   UNL d   1      59.445   0.664  30.116  0.00  0.00    -0.302 OA
BRANCH  13  14
ATOM     14  C   UNL d   1      59.455   0.028  29.593  0.00  0.00     0.102 A 
ATOM     15  C   UNL d   1      60.090  -0.496  29.599  0.00  0.00     0.049 A 
ATOM     16  C   UNL d   1      60.100  -1.133  29.076  0.00  0.00     0.096 A 
ATOM     17  C   UNL d   1      59.476  -1.245  28.548  0.00  0.00     0.024 A 
ATOM     18  C   UNL d   1      58.837  -0.710  28.548  0.00  0.00     0.004 A 
ATOM     19  C   UNL d   1      58.832  -0.079  29.070  0.00  0.00     0.025 A 
BRANCH  16  20
ATOM     20  O   UNL d   1      60.735  -1.657  29.083  0.00  0.00    -0.328 OA
ATOM     21  C   UNL d   1      60.596  -2.469  29.061  0.00  0.00     0.181 C 
ENDBRANCH  16  20
ENDBRANCH  13  14
ENDBRANCH   4  13
BRANCH   2  22
ATOM     22  C   UNL d   1      56.540   0.671  32.544  0.00  0.00     0.086 C 
BRANCH  22  23
ATOM     23  N   UNL d   1      56.073   0.062  32.849  0.00  0.00    -0.299 N 
ATOM     24  C   UNL d   1      56.197  -0.711  32.599  0.00  0.00     0.107 A 
ATOM     25  C   UNL d   1      55.727  -1.319  32.907  0.00  0.00     0.142 A 
ATOM     26  O   UNL d   1      55.140  -1.149  33.460  0.00  0.00    -0.300 OA
ATOM     27  C   UNL d   1      55.019  -0.370  33.708  0.00  0.00     0.142 A 
ATOM     28  C   UNL d   1      55.486   0.236  33.402  0.00  0.00     0.107 A 
ENDBRANCH  22  23
ENDBRANCH   2  22
TORSDOF 5
ENDMDL
MODEL 3
REMARK VINA RESULT:      -0.7      1.515      5.083
REMARK  5 active torsions:
REMARK  status: ('A' for Active; 'I' for Inactive)
REMARK    1  A    between atoms: C_9  and  C_2 
REMARK    2  A    between atoms: O_8  and  C_4 
REMARK    3  A    between atoms: C_14  and  O_8 
REMARK    4  A    between atoms: N_11  and  C_9 
REMARK    5  A    between atoms: O_20  and  C_18 
ROOT
ATOM      1  C   UNL d   1      57.472  -0.228  31.684  0.00  0.00     0.108 A 
ATOM      2  C   UNL d   1      57.135  -0.228  32.442  0.00  0.00     0.079 A 
ATOM      3  C   UNL d   1      58.151   0.230  31.529  0.00  0.00     0.064 A 
ATOM      4  C   UNL d   1      58.148  -0.228  30.166  0.00  0.00     0.163 A 
ATOM      5  C   UNL d   1      58.482   0.228  30.779  0.00  0.00     0.222 A 
ATOM      6  O   UNL d   1      57.128  -0.687  31.084  0.00  0.00    -0.303 OA
ATOM      7  C   UNL d   1      57.466  -0.688  30.322  0.00  0.00     0.150 A 
ATOM      8  C   UNL d   1      58.479   0.682  32.143  0.00  0.00     0.009 A 
ATOM      9  C   UNL d   1      57.469   0.224  33.043  0.00  0.00     0.199 A 
ATOM     10  O   UNL d   1      59.154   0.681  30.622  0.00  0.00    -0.284 OA
ATOM     11  C   UNL d   1      58.141   0.679  32.894  0.00  0.00     0.042 A 
ATOM     12  O   UNL d   1      57.132   0.222  33.795  0.00  0.00    -0.286 OA
ENDROOT
BRANCH   4  13
ATOM     13  O   UNL d   1      58.483  -0.227  29.416  0.00  0.00    -0.302 OA
BRANCH  13  14
ATOM     14  C   UNL d   1      58.907  -0.882  29.153  0.00  0.00     0.102 A 
ATOM     15  C   UNL d   1      58.508  -1.569  28.937  0.00  0.00     0.049 A 
ATOM     16  C   UNL d   1      58.933  -2.224  28.674  0.00  0.00     0.096 A 
ATOM     17  C   UNL d   1      59.756  -2.192  28.628  0.00  0.00     0.024 A 
ATOM     18  C   UNL d   1      60.154  -1.493  28.849  0.00  0.00     0.004 A 
ATOM     19  C   UNL d   1      59.726  -0.846  29.109  0.00  0.00     0.025 A 
BRANCH  16  20
ATOM     20  O   UNL d   1      58.534  -2.911  28.457  0.00  0.00    -0.328 OA
ATOM     21  C   UNL d   1      58.826  -3.645  28.690  0.00  0.00     0.181 C 
ENDBRANCH  16  20
ENDBRANCH  13  14
ENDBRANCH   4  13
BRANCH   2  22
ATOM     22  C   UNL d   1      56.470  -0.678  32.590  0.00  0.00     0.086 C 
BRANCH  22  23
ATOM     23  N   UNL d   1      55.819  -0.340  32.970  0.00  0.00    -0.299 N 
ATOM     24  C   UNL d   1      55.522  -0.686  33.654  0.00  0.00     0.107 A 
ATOM     25  C   UNL d   1      54.870  -0.344  34.033  0.00  0.00     0.142 A 
ATOM     26  O   UNL d   1      54.522   0.338  33.725  0.00  0.00    -0.300 OA
ATOM     27  C   UNL d   1      54.826   0.682  33.037  0.00  0.00     0.142 A 
ATOM     28  C   UNL d   1      55.475   0.342  32.660  0.00  0.00     0.107 A 
ENDBRANCH  22  23
ENDBRANCH   2  22
TORSDOF 5
ENDMDL
