MODEL 1
REMARK VINA RESULT:      -3.3      0.000      0.000
REMARK  4 active torsions:
REMARK  status: ('A' for Active; 'I' for Inactive)
REMARK    1  A    between atoms: C_2  and  S_1 
REMARK    2  A    between atoms: N_5  and  S_1 
REMARK    3  A    between atoms: C_13  and  N_5 
REMARK    4  A    between atoms: C_11  and  C_13 
ROOT
ATOM      1  C   UNL d   1     -41.732-122.525 -53.338  0.00  0.00     0.105 A 
ATOM      2  C   UNL d   1     -42.067-121.886 -53.723  0.00  0.00     0.012 A 
ATOM      3  C   UNL d   1     -41.462-123.170 -53.777  0.00  0.00     0.012 A 
ATOM      4  C   UNL d   1     -41.529-123.171 -54.601  0.00  0.00     0.001 A 
ATOM      5  C   UNL d   1     -42.137-121.880 -54.543  0.00  0.00     0.001 A 
ATOM      6  C   UNL d   1     -41.868-122.524 -54.986  0.00  0.00     0.000 A 
ATOM      7  C   UNL d   1     -42.337-121.242 -53.285  0.00  0.00     0.001 C 
ATOM      8  C   UNL d   1     -41.123-123.817 -53.388  0.00  0.00     0.001 C 
ATOM      9  C   UNL d   1     -42.475-121.236 -54.932  0.00  0.00     0.000 C 
ATOM     10  C   UNL d   1     -41.259-123.815 -55.039  0.00  0.00     0.000 C 
ENDROOT
BRANCH   1  11
ATOM     11  S   UNL d   1     -41.667-122.521 -52.518  0.00  0.00     0.285 S 
ATOM     12  O   UNL d   1     -41.124-121.895 -52.573  0.00  0.00    -0.198 OA
ATOM     13  O   UNL d   1     -42.201-123.134 -52.473  0.00  0.00    -0.198 OA
BRANCH  11  14
ATOM     14  N   UNL d   1     -41.594-122.507 -51.699  0.00  0.00    -0.155 NA
BRANCH  14  15
ATOM     15  C   UNL d   1     -42.241-122.687 -51.221  0.00  0.00     0.137 C 
BRANCH  15  16
ATOM     16  C   UNL d   1     -42.151-122.702 -50.404  0.00  0.00     0.120 A 
ATOM     17  O   UNL d   1     -41.624-122.508 -49.805  0.00  0.00    -0.304 OA
ATOM     18  C   UNL d   1     -41.970-122.711 -49.082  0.00  0.00     0.123 A 
ATOM     19  C   UNL d   1     -42.714-123.031 -49.236  0.00  0.00     0.029 A 
ATOM     20  C   UNL d   1     -42.827-123.026 -50.055  0.00  0.00     0.028 A 
ENDBRANCH  15  16
ENDBRANCH  14  15
ENDBRANCH  11  14
ENDBRANCH   1  11
TORSDOF 4
ENDMDL
MODEL 2
REMARK VINA RESULT:      -2.5      1.029      4.176
REMARK  4 active torsions:
REMARK  status: ('A' for Active; 'I' for Inactive)
REMARK    1  A    between atoms: C_2  and  S_1 
REMARK    2  A    between atoms: N_5  and  S_1 
REMARK    3  A    between atoms: C_13  and  N_5 
REMARK    4  A    between atoms: C_11  and  C_13 
ROOT
ATOM      1  C   UNL d   1     -42.085-122.954 -50.353  0.00  0.00     0.105 A 
ATOM      2  C   UNL d   1     -42.740-122.467 -50.288  0.00  0.00     0.012 A 
ATOM      3  C   UNL d   1     -41.784-123.324 -49.679  0.00  0.00     0.012 A 
ATOM      4  C   UNL d   1     -42.141-123.205 -48.942  0.00  0.00     0.001 A 
ATOM      5  C   UNL d   1     -43.100-122.343 -49.558  0.00  0.00     0.001 A 
ATOM      6  C   UNL d   1     -42.801-122.712 -48.881  0.00  0.00     0.000 A 
ATOM      7  C   UNL d   1     -43.041-122.097 -50.960  0.00  0.00     0.001 C 
ATOM      8  C   UNL d   1     -41.123-123.817 -49.744  0.00  0.00     0.001 C 
ATOM      9  C   UNL d   1     -43.760-121.852 -49.492  0.00  0.00     0.000 C 
ATOM     10  C   UNL d   1     -41.840-123.575 -48.270  0.00  0.00     0.000 C 
ENDROOT
BRANCH   1  11
ATOM     11  S   UNL d   1     -41.734-123.071 -51.086  0.00  0.00     0.285 S 
ATOM     12  O   UNL d   1     -42.227-123.728 -51.209  0.00  0.00    -0.198 OA
ATOM     13  O   UNL d   1     -41.254-122.425 -50.959  0.00  0.00    -0.198 OA
BRANCH  11  14
ATOM     14  N   UNL d   1     -41.389-123.198 -51.823  0.00  0.00    -0.155 NA
BRANCH  14  15
ATOM     15  C   UNL d   1     -41.495-122.650 -52.430  0.00  0.00     0.137 C 
BRANCH  15  16
ATOM     16  C   UNL d   1     -41.362-122.877 -53.209  0.00  0.00     0.120 A 
ATOM     17  O   UNL d   1     -41.219-123.537 -53.678  0.00  0.00    -0.304 OA
ATOM     18  C   UNL d   1     -41.144-123.283 -54.461  0.00  0.00     0.123 A 
ATOM     19  C   UNL d   1     -41.241-122.464 -54.475  0.00  0.00     0.029 A 
ATOM     20  C   UNL d   1     -41.376-122.212 -53.700  0.00  0.00     0.028 A 
ENDBRANCH  15  16
ENDBRANCH  14  15
ENDBRANCH  11  14
ENDBRANCH   1  11
TORSDOF 4
ENDMDL
MODEL 3
REMARK VINA RESULT:      -2.2      1.041      4.463
REMARK  4 active torsions:
REMARK  status: ('A' for Active; 'I' for Inactive)
REMARK    1  A    between atoms: C_2  and  S_1 
REMARK    2  A    between atoms: N_5  and  S_1 
REMARK    3  A    between atoms: C_13  and  N_5 
REMARK    4  A    between atoms: C_11  and  C_13 
ROOT
ATOM      1  C   UNL d   1     -42.390-122.736 -49.851  0.00  0.00     0.105 A 
ATOM      2  C   UNL d   1     -41.887-122.668 -49.209  0.00  0.00     0.012 A 
ATOM      3  C   UNL d   1     -43.126-123.098 -49.756  0.00  0.00     0.012 A 
ATOM      4  C   UNL d   1     -43.355-123.391 -49.017  0.00  0.00     0.001 A 
ATOM      5  C   UNL d   1     -42.107-122.957 -48.471  0.00  0.00     0.001 A 
ATOM      6  C   UNL d   1     -42.843-123.320 -48.372  0.00  0.00     0.000 A 
ATOM      7  C   UNL d   1     -41.152-122.307 -49.304  0.00  0.00     0.001 C 
ATOM      8  C   UNL d   1     -43.636-123.166 -50.404  0.00  0.00     0.001 C 
ATOM      9  C   UNL d   1     -41.600-122.890 -47.824  0.00  0.00     0.000 C 
ATOM     10  C   UNL d   1     -44.090-123.752 -48.922  0.00  0.00     0.000 C 
ENDROOT
BRANCH   1  11
ATOM     11  S   UNL d   1     -42.160-122.444 -50.584  0.00  0.00     0.285 S 
ATOM     12  O   UNL d   1     -41.690-123.120 -50.697  0.00  0.00    -0.198 OA
ATOM     13  O   UNL d   1     -42.622-121.784 -50.467  0.00  0.00    -0.198 OA
BRANCH  11  14
ATOM     14  N   UNL d   1     -41.922-122.161 -51.320  0.00  0.00    -0.155 NA
BRANCH  14  15
ATOM     15  C   UNL d   1     -41.576-122.672 -51.867  0.00  0.00     0.137 C 
BRANCH  15  16
ATOM     16  C   UNL d   1     -41.573-122.470 -52.664  0.00  0.00     0.120 A 
ATOM     17  O   UNL d   1     -41.849-121.904 -53.193  0.00  0.00    -0.304 OA
ATOM     18  C   UNL d   1     -41.590-122.111 -53.950  0.00  0.00     0.123 A 
ATOM     19  C   UNL d   1     -41.153-122.807 -53.888  0.00  0.00     0.029 A 
ATOM     20  C   UNL d   1     -41.142-123.030 -53.093  0.00  0.00     0.028 A 
ENDBRANCH  15  16
ENDBRANCH  14  15
ENDBRANCH  11  14
ENDBRANCH   1  11
TORSDOF 4
ENDMDL
MODEL 4
REMARK VINA RESULT:      -1.8      1.256      1.799
REMARK  4 active torsions:
REMARK  status: ('A' for Active; 'I' for Inactive)
REMARK    1  A    between atoms: C_2  and  S_1 
REMARK    2  A    between atoms: N_5  and  S_1 
REMARK    3  A    between atoms: C_13  and  N_5 
REMARK    4  A    between atoms: C_11  and  C_13 
ROOT
ATOM      1  C   UNL d   1     -41.681-122.418 -51.704  0.00  0.00     0.105 A 
ATOM      2  C   UNL d   1     -41.757-121.726 -52.134  0.00  0.00     0.012 A 
ATOM      3  C   UNL d   1     -41.469-123.117 -52.089  0.00  0.00     0.012 A 
ATOM      4  C   UNL d   1     -41.334-123.119 -52.905  0.00  0.00     0.001 A 
ATOM      5  C   UNL d   1     -41.625-121.721 -52.946  0.00  0.00     0.001 A 
ATOM      6  C   UNL d   1     -41.412-122.419 -53.336  0.00  0.00     0.000 A 
ATOM      7  C   UNL d   1     -41.969-121.028 -51.750  0.00  0.00     0.001 C 
ATOM      8  C   UNL d   1     -41.392-123.817 -51.654  0.00  0.00     0.001 C 
ATOM      9  C   UNL d   1     -41.701-121.024 -53.381  0.00  0.00     0.000 C 
ATOM     10  C   UNL d   1     -41.123-123.817 -53.289  0.00  0.00     0.000 C 
ENDROOT
BRANCH   1  11
ATOM     11  S   UNL d   1     -41.815-122.412 -50.893  0.00  0.00     0.285 S 
ATOM     12  O   UNL d   1     -42.521-122.833 -51.015  0.00  0.00    -0.198 OA
ATOM     13  O   UNL d   1     -41.123-122.000 -50.781  0.00  0.00    -0.198 OA
BRANCH  11  14
ATOM     14  N   UNL d   1     -41.961-122.413 -50.083  0.00  0.00    -0.155 NA
BRANCH  14  15
ATOM     15  C   UNL d   1     -41.859-123.103 -49.644  0.00  0.00     0.137 C 
BRANCH  15  16
ATOM     16  C   UNL d   1     -42.018-123.097 -48.837  0.00  0.00     0.120 A 
ATOM     17  O   UNL d   1     -42.543-122.799 -48.280  0.00  0.00    -0.304 OA
ATOM     18  C   UNL d   1     -42.306-123.066 -47.534  0.00  0.00     0.123 A 
ATOM     19  C   UNL d   1     -41.633-123.532 -47.632  0.00  0.00     0.029 A 
ATOM     20  C   UNL d   1     -41.453-123.551 -48.438  0.00  0.00     0.028 A 
ENDBRANCH  15  16
ENDBRANCH  14  15
ENDBRANCH  11  14
ENDBRANCH   1  11
TORSDOF 4
ENDMDL
