MODEL 1
REMARK VINA RESULT:      41.4      0.000      0.000
REMARK  2 active torsions:
REMARK  status: ('A' for Active; 'I' for Inactive)
REMARK    1  A    between atoms: N_11  and  C_2 
REMARK    2  A    between atoms: C_16  and  N_11 
ROOT
ATOM      1  C   UNL d   1     -51.668  25.453  33.307  0.00  0.00     0.024 A 
ATOM      2  C   UNL d   1     -52.411  25.111  33.307  0.00  0.00     0.139 A 
ATOM      3  C   UNL d   1     -51.584  26.271  33.307  0.00  0.00     0.022 A 
ATOM      4  C   UNL d   1     -53.086  25.582  33.307  0.00  0.00     0.297 A 
ATOM      5  C   UNL d   1     -50.988  24.974  33.307  0.00  0.00     0.005 A 
ATOM      6  C   UNL d   1     -50.835  26.615  33.307  0.00  0.00     0.041 A 
ATOM      7  C   UNL d   1     -50.155  26.147  33.307  0.00  0.00     0.196 A 
ATOM      8  N   UNL d   1     -53.002  26.399  33.307  0.00  0.00    -0.207 NA
ATOM      9  C   UNL d   1     -52.259  26.740  33.307  0.00  0.00     0.085 A 
ATOM     10  C   UNL d   1     -50.239  25.317  33.306  0.00  0.00     0.039 A 
ATOM     11  O   UNL d   1     -53.829  25.240  33.307  0.00  0.00    -0.264 OA
ATOM     12  O   UNL d   1     -49.391  26.498  33.306  0.00  0.00    -0.287 OA
ATOM     13  C   UNL d   1     -50.746  27.435  33.307  0.00  0.00     0.003 A 
ATOM     14  C   UNL d   1     -51.072  24.156  33.306  0.00  0.00     0.000 A 
ATOM     15  C   UNL d   1     -52.177  27.564  33.307  0.00  0.00     0.019 A 
ATOM     16  C   UNL d   1     -49.559  24.850  33.306  0.00  0.00     0.003 A 
ATOM     17  C   UNL d   1     -51.428  27.907  33.307  0.00  0.00     0.002 A 
ATOM     18  C   UNL d   1     -50.394  23.680  33.306  0.00  0.00     0.000 A 
ATOM     19  C   UNL d   1     -49.645  24.024  33.306  0.00  0.00     0.000 A 
ENDROOT
BRANCH   2  20
ATOM     20  N   UNL d   1     -52.490  24.284  33.307  0.00  0.00    -0.241 NA
BRANCH  20  21
ATOM     21  C   UNL d   1     -53.064  23.926  33.768  0.00  0.00     0.082 A 
ATOM     22  C   UNL d   1     -53.712  23.576  33.393  0.00  0.00     0.019 A 
ATOM     23  C   UNL d   1     -54.307  23.208  33.838  0.00  0.00     0.002 A 
ATOM     24  C   UNL d   1     -54.244  23.192  34.683  0.00  0.00     0.000 A 
ATOM     25  C   UNL d   1     -53.606  23.538  35.044  0.00  0.00     0.002 A 
ATOM     26  C   UNL d   1     -53.006  23.909  34.596  0.00  0.00     0.019 A 
ENDBRANCH  20  21
ENDBRANCH   2  20
TORSDOF 2
ENDMDL
