MODEL 1
REMARK VINA RESULT:      65.1      0.000      0.000
REMARK  4 active torsions:
REMARK  status: ('A' for Active; 'I' for Inactive)
REMARK    1  A    between atoms: C_11  and  N_2 
REMARK    2  A    between atoms: C_10  and  C_6 
REMARK    3  A    between atoms: C_16  and  C_9 
REMARK    4  A    between atoms: C_21  and  C_16 
ROOT
ATOM      1  C   UNL d   1      58.133  49.450  50.341  0.00  0.00     0.143 A 
ATOM      2  N   UNL d   1      59.308  49.442  51.010  0.00  0.00    -0.242 N 
ATOM      3  C   UNL d   1      58.481  49.493  51.093  0.00  0.00     0.172 A 
ATOM      4  C   UNL d   1      59.469  49.367  50.198  0.00  0.00     0.355 A 
ATOM      5  N   UNL d   1      58.746  49.373  49.791  0.00  0.00    -0.187 NA
ATOM      6  C   UNL d   1      57.323  49.486  50.257  0.00  0.00     0.163 A 
ATOM      7  N   UNL d   1      58.001  49.573  51.767  0.00  0.00    -0.208 NA
ATOM      8  N   UNL d   1      56.837  49.566  50.916  0.00  0.00    -0.220 NA
ATOM      9  C   UNL d   1      57.176  49.610  51.672  0.00  0.00     0.164 A 
ATOM     10  O   UNL d   1      60.224  49.300  49.863  0.00  0.00    -0.244 OA
ENDROOT
BRANCH   2  11
ATOM     11  C   UNL d   1      59.858  49.462  51.616  0.00  0.00     0.070 A 
ATOM     12  C   UNL d   1      59.612  49.427  52.408  0.00  0.00     0.018 A 
ATOM     13  C   UNL d   1      60.155  49.447  53.020  0.00  0.00     0.002 A 
ATOM     14  C   UNL d   1      60.954  49.502  52.830  0.00  0.00     0.000 A 
ATOM     15  C   UNL d   1      61.207  49.537  52.050  0.00  0.00     0.002 A 
ATOM     16  C   UNL d   1      61.514  49.522  53.445  0.00  0.00     0.000 C 
ATOM     17  C   UNL d   1      60.656  49.517  51.444  0.00  0.00     0.018 A 
ENDBRANCH   2  11
BRANCH   6  18
ATOM     18  C   UNL d   1      56.977  49.444  49.506  0.00  0.00     0.316 C 
ATOM     19  O   UNL d   1      56.210  49.149  49.411  0.00  0.00    -0.262 OA
ATOM     20  N   UNL d   1      57.412  49.701  48.841  0.00  0.00    -0.101 N 
ENDBRANCH   6  18
BRANCH   9  21
ATOM     21  C   UNL d   1      56.691  49.689  52.334  0.00  0.00     0.039 C 
BRANCH  21  22
ATOM     22  C   UNL d   1      56.946  49.416  53.075  0.00  0.00     0.003 C 
ATOM     23  C   UNL d   1      56.392  49.310  53.677  0.00  0.00     0.000 C 
ATOM     24  C   UNL d   1      57.740  49.255  53.196  0.00  0.00     0.000 C 
ENDBRANCH  21  22
ENDBRANCH   9  21
TORSDOF 4
ENDMDL
