MODEL 1
REMARK VINA RESULT:      15.0      0.000      0.000
REMARK  4 active torsions:
REMARK  status: ('A' for Active; 'I' for Inactive)
REMARK    1  A    between atoms: C_3  and  C_1 
REMARK    2  A    between atoms: C_2  and  C_3 
REMARK    3  A    between atoms: C_6  and  C_2 
REMARK    4  A    between atoms: C_16  and  C_6 
ROOT
ATOM      1  C   UNL d   1      13.181  12.156  -4.696  0.00  0.00     0.119 A 
ATOM      2  C   UNL d   1      13.251  12.973  -4.737  0.00  0.00     0.119 A 
ATOM      3  O   UNL d   1      13.162  11.869  -5.468  0.00  0.00    -0.300 OA
ATOM      4  O   UNL d   1      13.275  13.194  -5.530  0.00  0.00    -0.300 OA
ATOM      5  C   UNL d   1      13.220  12.501  -5.982  0.00  0.00     0.304 A 
ATOM      6  C   UNL d   1      13.144  11.780  -3.962  0.00  0.00     0.026 A 
ATOM      7  C   UNL d   1      13.177  12.234  -3.259  0.00  0.00     0.002 A 
ATOM      8  C   UNL d   1      13.284  13.427  -4.034  0.00  0.00     0.026 A 
ATOM      9  C   UNL d   1      13.248  13.060  -3.295  0.00  0.00     0.002 A 
ENDROOT
BRANCH   7  10
ATOM     10  C   UNL d   1      13.140  11.862  -2.500  0.00  0.00     0.003 C 
BRANCH  10  11
ATOM     11  C   UNL d   1      13.823  11.846  -2.032  0.00  0.00     0.043 C 
BRANCH  11  12
ATOM     12  C   UNL d   1      13.754  11.963  -1.219  0.00  0.00     0.202 C 
ATOM     13  O   UNL d   1      13.047  11.780  -0.837  0.00  0.00    -0.286 OA
BRANCH  12  14
ATOM     14  C   UNL d   1      14.386  12.262  -0.784  0.00  0.00     0.068 A 
ATOM     15  S   UNL d   1      14.483  12.967  -0.351  0.00  0.00    -0.083 SA
ATOM     16  C   UNL d   1      15.234  12.963  -0.033  0.00  0.00     0.035 A 
ATOM     17  C   UNL d   1      15.601  12.275  -0.260  0.00  0.00     0.008 A 
ATOM     18  C   UNL d   1      15.090  11.838  -0.721  0.00  0.00     0.010 A 
ENDBRANCH  12  14
ENDBRANCH  11  12
ENDBRANCH  10  11
ENDBRANCH   7  10
TORSDOF 4
ENDMDL
