MODEL 1
REMARK VINA RESULT:      -3.2      0.000      0.000
REMARK  1 active torsions:
REMARK  status: ('A' for Active; 'I' for Inactive)
REMARK    1  A    between atoms: N_11  and  C_4 
ROOT
ATOM      1  N   UNL d   1      58.452  -1.670  29.802  0.00  0.00    -0.195 N 
ATOM      2  C   UNL d   1      58.263  -0.883  29.988  0.00  0.00     0.168 A 
ATOM      3  C   UNL d   1      57.752  -0.711  30.603  0.00  0.00     0.073 A 
ATOM      4  C   UNL d   1      58.965  -1.822  29.184  0.00  0.00     0.153 A 
ATOM      5  N   UNL d   1      57.618  -2.116  30.844  0.00  0.00    -0.143 NA
ATOM      6  C   UNL d   1      57.430  -1.330  31.030  0.00  0.00     0.185 A 
ATOM      7  N   UNL d   1      58.593  -0.270  29.552  0.00  0.00    -0.227 NA
ATOM      8  C   UNL d   1      57.565   0.067  30.787  0.00  0.00     0.007 A 
ATOM      9  N   UNL d   1      56.910  -1.172  31.656  0.00  0.00    -0.225 NA
ATOM     10  C   UNL d   1      59.294  -1.219  28.750  0.00  0.00     0.057 A 
ATOM     11  C   UNL d   1      57.054   0.239  31.401  0.00  0.00     0.019 A 
ATOM     12  C   UNL d   1      59.105  -0.433  28.936  0.00  0.00     0.086 A 
ATOM     13  C   UNL d   1      56.722  -0.385  31.842  0.00  0.00     0.083 A 
ATOM     14  C   UNL d   1      57.897   0.682  30.348  0.00  0.00     0.000 C 
ATOM     15  C   UNL d   1      59.450   0.202  28.480  0.00  0.00     0.021 C 
ATOM     16  C   UNL d   1      56.212  -0.221  32.455  0.00  0.00     0.021 C 
ENDROOT
BRANCH   4  17
ATOM     17  N   UNL d   1      59.154  -2.636  28.999  0.00  0.00    -0.285 N 
ATOM     18  C   UNL d   1      58.558  -3.141  28.637  0.00  0.00     0.108 A 
ATOM     19  C   UNL d   1      58.749  -3.946  28.455  0.00  0.00     0.142 A 
ATOM     20  O   UNL d   1      59.524  -4.252  28.630  0.00  0.00    -0.300 OA
ATOM     21  C   UNL d   1      60.108  -3.749  28.987  0.00  0.00     0.142 A 
ATOM     22  C   UNL d   1      59.917  -2.944  29.169  0.00  0.00     0.108 A 
ENDBRANCH   4  17
TORSDOF 1
ENDMDL
MODEL 2
REMARK VINA RESULT:      -2.1      8.529      9.078
REMARK  1 active torsions:
REMARK  status: ('A' for Active; 'I' for Inactive)
REMARK    1  A    between atoms: N_11  and  C_4 
ROOT
ATOM      1  N   UNL d   1      58.818  -9.418  32.805  0.00  0.00    -0.195 N 
ATOM      2  C   UNL d   1      58.932  -9.550  31.994  0.00  0.00     0.168 A 
ATOM      3  C   UNL d   1      58.292  -9.616  31.488  0.00  0.00     0.073 A 
ATOM      4  C   UNL d   1      59.470  -9.355  33.294  0.00  0.00     0.153 A 
ATOM      5  N   UNL d   1      57.425  -9.418  32.610  0.00  0.00    -0.143 NA
ATOM      6  C   UNL d   1      57.539  -9.550  31.798  0.00  0.00     0.185 A 
ATOM      7  N   UNL d   1      59.694  -9.614  31.694  0.00  0.00    -0.227 NA
ATOM      8  C   UNL d   1      58.405  -9.746  30.685  0.00  0.00     0.007 A 
ATOM      9  N   UNL d   1      56.881  -9.615  31.299  0.00  0.00    -0.225 NA
ATOM     10  C   UNL d   1      60.225  -9.418  33.003  0.00  0.00     0.057 A 
ATOM     11  C   UNL d   1      57.766  -9.812  30.180  0.00  0.00     0.019 A 
ATOM     12  C   UNL d   1      60.339  -9.550  32.191  0.00  0.00     0.086 A 
ATOM     13  C   UNL d   1      56.995  -9.746  30.488  0.00  0.00     0.083 A 
ATOM     14  C   UNL d   1      59.171  -9.811  30.385  0.00  0.00     0.000 C 
ATOM     15  C   UNL d   1      61.133  -9.616  31.883  0.00  0.00     0.021 C 
ATOM     16  C   UNL d   1      56.353  -9.811  29.990  0.00  0.00     0.021 C 
ENDROOT
BRANCH   4  17
ATOM     17  N   UNL d   1      59.343  -9.219  34.130  0.00  0.00    -0.285 N 
ATOM     18  C   UNL d   1      59.569  -8.465  34.479  0.00  0.00     0.108 A 
ATOM     19  C   UNL d   1      59.443  -8.334  35.307  0.00  0.00     0.142 A 
ATOM     20  O   UNL d   1      59.094  -8.945  35.788  0.00  0.00    -0.300 OA
ATOM     21  C   UNL d   1      58.873  -9.687  35.438  0.00  0.00     0.142 A 
ATOM     22  C   UNL d   1      59.000  -9.817  34.610  0.00  0.00     0.108 A 
ENDBRANCH   4  17
TORSDOF 1
ENDMDL
MODEL 3
REMARK VINA RESULT:      -1.7      2.784      4.645
REMARK  1 active torsions:
REMARK  status: ('A' for Active; 'I' for Inactive)
REMARK    1  A    between atoms: N_11  and  C_4 
ROOT
ATOM      1  N   UNL d   1      57.118   0.188  32.096  0.00  0.00    -0.195 N 
ATOM      2  C   UNL d   1      57.892   0.353  31.846  0.00  0.00     0.168 A 
ATOM      3  C   UNL d   1      58.081   0.356  31.050  0.00  0.00     0.073 A 
ATOM      4  C   UNL d   1      56.949   0.189  32.895  0.00  0.00     0.153 A 
ATOM      5  N   UNL d   1      56.719   0.029  30.756  0.00  0.00    -0.143 NA
ATOM      6  C   UNL d   1      57.493   0.194  30.506  0.00  0.00     0.185 A 
ATOM      7  N   UNL d   1      58.475   0.515  32.402  0.00  0.00    -0.227 NA
ATOM      8  C   UNL d   1      58.847   0.520  30.802  0.00  0.00     0.007 A 
ATOM      9  N   UNL d   1      57.669   0.193  29.697  0.00  0.00    -0.225 NA
ATOM     10  C   UNL d   1      57.522   0.349  33.449  0.00  0.00     0.057 A 
ATOM     11  C   UNL d   1      59.036   0.523  30.007  0.00  0.00     0.019 A 
ATOM     12  C   UNL d   1      58.296   0.514  33.199  0.00  0.00     0.086 A 
ATOM     13  C   UNL d   1      58.443   0.358  29.446  0.00  0.00     0.083 A 
ATOM     14  C   UNL d   1      59.432   0.682  31.361  0.00  0.00     0.000 C 
ATOM     15  C   UNL d   1      58.899   0.682  33.779  0.00  0.00     0.021 C 
ATOM     16  C   UNL d   1      58.625   0.360  28.653  0.00  0.00     0.021 C 
ENDROOT
BRANCH   4  17
ATOM     17  N   UNL d   1      56.148   0.018  33.145  0.00  0.00    -0.285 N 
ATOM     18  C   UNL d   1      55.623   0.663  33.369  0.00  0.00     0.108 A 
ATOM     19  C   UNL d   1      54.832   0.490  33.616  0.00  0.00     0.142 A 
ATOM     20  O   UNL d   1      54.558  -0.317  33.641  0.00  0.00    -0.300 OA
ATOM     21  C   UNL d   1      55.080  -0.949  33.418  0.00  0.00     0.142 A 
ATOM     22  C   UNL d   1      55.872  -0.775  33.172  0.00  0.00     0.108 A 
ENDBRANCH   4  17
TORSDOF 1
ENDMDL
MODEL 4
REMARK VINA RESULT:      -1.5      1.597      3.817
REMARK  1 active torsions:
REMARK  status: ('A' for Active; 'I' for Inactive)
REMARK    1  A    between atoms: N_11  and  C_4 
ROOT
ATOM      1  N   UNL d   1      58.590  -1.093  29.900  0.00  0.00    -0.195 N 
ATOM      2  C   UNL d   1      59.253  -1.307  29.449  0.00  0.00     0.168 A 
ATOM      3  C   UNL d   1      59.356  -2.080  29.200  0.00  0.00     0.073 A 
ATOM      4  C   UNL d   1      58.504  -0.316  30.139  0.00  0.00     0.153 A 
ATOM      5  N   UNL d   1      58.130  -2.422  29.854  0.00  0.00    -0.143 NA
ATOM      6  C   UNL d   1      58.793  -2.636  29.404  0.00  0.00     0.185 A 
ATOM      7  N   UNL d   1      59.812  -0.739  29.251  0.00  0.00    -0.227 NA
ATOM      8  C   UNL d   1      60.012  -2.291  28.754  0.00  0.00     0.007 A 
ATOM      9  N   UNL d   1      58.883  -3.422  29.159  0.00  0.00    -0.225 NA
ATOM     10  C   UNL d   1      59.054   0.249  29.945  0.00  0.00     0.057 A 
ATOM     11  C   UNL d   1      60.116  -3.063  28.505  0.00  0.00     0.019 A 
ATOM     12  C   UNL d   1      59.717   0.035  29.495  0.00  0.00     0.086 A 
ATOM     13  C   UNL d   1      59.547  -3.636  28.708  0.00  0.00     0.083 A 
ATOM     14  C   UNL d   1      60.574  -1.720  28.556  0.00  0.00     0.000 C 
ATOM     15  C   UNL d   1      60.297   0.628  29.290  0.00  0.00     0.021 C 
ATOM     16  C   UNL d   1      59.644  -4.407  28.464  0.00  0.00     0.021 C 
ENDROOT
BRANCH   4  17
ATOM     17  N   UNL d   1      57.817  -0.104  30.603  0.00  0.00    -0.285 N 
ATOM     18  C   UNL d   1      57.247   0.461  30.290  0.00  0.00     0.108 A 
ATOM     19  C   UNL d   1      56.569   0.668  30.753  0.00  0.00     0.142 A 
ATOM     20  O   UNL d   1      56.451   0.320  31.521  0.00  0.00    -0.300 OA
ATOM     21  C   UNL d   1      57.017  -0.236  31.825  0.00  0.00     0.142 A 
ATOM     22  C   UNL d   1      57.696  -0.444  31.363  0.00  0.00     0.108 A 
ENDBRANCH   4  17
TORSDOF 1
ENDMDL
MODEL 5
REMARK VINA RESULT:      -0.8      8.583      8.914
REMARK  1 active torsions:
REMARK  status: ('A' for Active; 'I' for Inactive)
REMARK    1  A    between atoms: N_11  and  C_4 
ROOT
ATOM      1  N   UNL d   1      58.867  -9.814  31.340  0.00  0.00    -0.195 N 
ATOM      2  C   UNL d   1      59.584  -9.815  31.758  0.00  0.00     0.168 A 
ATOM      3  C   UNL d   1      59.590  -9.815  32.576  0.00  0.00     0.073 A 
ATOM      4  C   UNL d   1      58.881  -9.814  30.523  0.00  0.00     0.153 A 
ATOM      5  N   UNL d   1      58.159  -9.813  32.556  0.00  0.00    -0.143 NA
ATOM      6  C   UNL d   1      58.876  -9.814  32.974  0.00  0.00     0.185 A 
ATOM      7  N   UNL d   1      60.296  -9.815  31.347  0.00  0.00    -0.227 NA
ATOM      8  C   UNL d   1      60.299  -9.815  32.990  0.00  0.00     0.007 A 
ATOM      9  N   UNL d   1      58.865  -9.814  33.802  0.00  0.00    -0.225 NA
ATOM     10  C   UNL d   1      59.582  -9.815  30.112  0.00  0.00     0.057 A 
ATOM     11  C   UNL d   1      60.306  -9.815  33.807  0.00  0.00     0.019 A 
ATOM     12  C   UNL d   1      60.300  -9.815  30.530  0.00  0.00     0.086 A 
ATOM     13  C   UNL d   1      59.583  -9.815  34.220  0.00  0.00     0.083 A 
ATOM     14  C   UNL d   1      61.014  -9.816  32.576  0.00  0.00     0.000 C 
ATOM     15  C   UNL d   1      61.037  -9.816  30.100  0.00  0.00     0.021 C 
ATOM     16  C   UNL d   1      59.581  -9.814  35.034  0.00  0.00     0.021 C 
ENDROOT
BRANCH   4  17
ATOM     17  N   UNL d   1      58.137  -9.813  30.100  0.00  0.00    -0.285 N 
ATOM     18  C   UNL d   1      58.135  -9.813  29.239  0.00  0.00     0.108 A 
ATOM     19  C   UNL d   1      57.397  -9.813  28.824  0.00  0.00     0.142 A 
ATOM     20  O   UNL d   1      56.663  -9.812  29.256  0.00  0.00    -0.300 OA
ATOM     21  C   UNL d   1      56.671  -9.812  30.106  0.00  0.00     0.142 A 
ATOM     22  C   UNL d   1      57.409  -9.812  30.521  0.00  0.00     0.108 A 
ENDBRANCH   4  17
TORSDOF 1
ENDMDL
MODEL 6
REMARK VINA RESULT:      -0.2      2.561      4.452
REMARK  1 active torsions:
REMARK  status: ('A' for Active; 'I' for Inactive)
REMARK    1  A    between atoms: N_11  and  C_4 
ROOT
ATOM      1  N   UNL d   1      56.526   0.251  32.831  0.00  0.00    -0.195 N 
ATOM      2  C   UNL d   1      56.386   0.393  33.637  0.00  0.00     0.168 A 
ATOM      3  C   UNL d   1      55.622   0.445  33.924  0.00  0.00     0.073 A 
ATOM      4  C   UNL d   1      57.296   0.202  32.562  0.00  0.00     0.153 A 
ATOM      5  N   UNL d   1      55.139   0.214  32.597  0.00  0.00    -0.143 NA
ATOM      6  C   UNL d   1      55.000   0.355  33.403  0.00  0.00     0.185 A 
ATOM      7  N   UNL d   1      57.020   0.481  34.152  0.00  0.00    -0.227 NA
ATOM      8  C   UNL d   1      55.484   0.585  34.721  0.00  0.00     0.007 A 
ATOM      9  N   UNL d   1      54.220   0.406  33.679  0.00  0.00    -0.225 NA
ATOM     10  C   UNL d   1      57.927   0.289  33.068  0.00  0.00     0.057 A 
ATOM     11  C   UNL d   1      54.721   0.638  35.009  0.00  0.00     0.019 A 
ATOM     12  C   UNL d   1      57.787   0.430  33.873  0.00  0.00     0.086 A 
ATOM     13  C   UNL d   1      54.080   0.547  34.484  0.00  0.00     0.083 A 
ATOM     14  C   UNL d   1      56.122   0.674  35.238  0.00  0.00     0.000 C 
ATOM     15  C   UNL d   1      58.448   0.522  34.406  0.00  0.00     0.021 C 
ATOM     16  C   UNL d   1      53.317   0.599  34.764  0.00  0.00     0.021 C 
ENDROOT
BRANCH   4  17
ATOM     17  N   UNL d   1      57.432   0.056  31.730  0.00  0.00    -0.285 N 
ATOM     18  C   UNL d   1      57.323  -0.737  31.412  0.00  0.00     0.108 A 
ATOM     19  C   UNL d   1      57.458  -0.878  30.588  0.00  0.00     0.142 A 
ATOM     20  O   UNL d   1      57.699  -0.239  30.078  0.00  0.00    -0.300 OA
ATOM     21  C   UNL d   1      57.805   0.541  30.398  0.00  0.00     0.142 A 
ATOM     22  C   UNL d   1      57.671   0.682  31.222  0.00  0.00     0.108 A 
ENDBRANCH   4  17
TORSDOF 1
ENDMDL
