MODEL 1
REMARK VINA RESULT:      97.4      0.000      0.000
REMARK  6 active torsions:
REMARK  status: ('A' for Active; 'I' for Inactive)
REMARK    1  A    between atoms: S_2  and  N_1 
REMARK    2  A    between atoms: C_11  and  S_2 
REMARK    3  A    between atoms: C_6  and  C_4 
REMARK    4  A    between atoms: C_12  and  C_5 
REMARK    5  A    between atoms: O_14  and  C_8 
REMARK    6  A    between atoms: O_16  and  C_13 
ROOT
ATOM      1  N   UNL d   1     -56.085-100.297 -43.092  0.00  0.00    -0.152 N 
ATOM      2  N   UNL d   1     -56.089-100.687 -42.349  0.00  0.00    -0.155 NA
ATOM      3  C   UNL d   1     -55.382-100.474 -43.489  0.00  0.00     0.098 A 
ATOM      4  C   UNL d   1     -55.383-101.107 -42.287  0.00  0.00     0.104 A 
ATOM      5  C   UNL d   1     -54.955-100.970 -42.993  0.00  0.00     0.041 A 
ENDROOT
BRANCH   3   6
ATOM      6  C   UNL d   1     -55.157-100.205 -44.235  0.00  0.00     0.043 A 
ATOM      7  C   UNL d   1     -55.044-100.742 -44.851  0.00  0.00     0.118 A 
ATOM      8  C   UNL d   1     -54.818-100.473 -45.598  0.00  0.00     0.116 A 
ATOM      9  C   UNL d   1     -54.713 -99.675 -45.703  0.00  0.00     0.026 A 
ATOM     10  C   UNL d   1     -54.818 -99.121 -45.110  0.00  0.00     0.002 A 
ATOM     11  C   UNL d   1     -55.044 -99.391 -44.363  0.00  0.00     0.004 A 
BRANCH   7  12
ATOM     12  O   UNL d   1     -55.157-101.549 -44.720  0.00  0.00    -0.326 OA
ATOM     13  C   UNL d   1     -54.764-102.101 -45.190  0.00  0.00     0.181 C 
ENDBRANCH   7  12
BRANCH   8  14
ATOM     14  O   UNL d   1     -54.713-101.019 -46.189  0.00  0.00    -0.326 OA
ATOM     15  C   UNL d   1     -55.038-101.762 -46.172  0.00  0.00     0.181 C 
ENDBRANCH   8  14
ENDBRANCH   3   6
BRANCH   1  16
ATOM     16  S   UNL d   1     -56.698 -99.813 -43.373  0.00  0.00     0.286 S 
ATOM     17  O   UNL d   1     -57.005 -99.091 -43.118  0.00  0.00    -0.198 OA
ATOM     18  O   UNL d   1     -57.070-100.124 -44.046  0.00  0.00    -0.198 OA
BRANCH  16  19
ATOM     19  C   UNL d   1     -57.325 -99.463 -43.781  0.00  0.00     0.105 A 
ATOM     20  C   UNL d   1     -58.038 -99.409 -43.423  0.00  0.00     0.013 A 
ATOM     21  C   UNL d   1     -58.668 -99.058 -43.831  0.00  0.00     0.001 A 
ATOM     22  C   UNL d   1     -58.553 -98.770 -44.595  0.00  0.00     0.000 A 
ATOM     23  C   UNL d   1     -57.808 -98.834 -44.952  0.00  0.00     0.001 A 
ATOM     24  C   UNL d   1     -57.210 -99.175 -44.546  0.00  0.00     0.013 A 
ENDBRANCH  16  19
ENDBRANCH   1  16
BRANCH   4  25
ATOM     25  C   UNL d   1     -55.164-101.559 -41.657  0.00  0.00     0.019 A 
ATOM     26  C   UNL d   1     -55.026-101.198 -40.924  0.00  0.00     0.002 A 
ATOM     27  C   UNL d   1     -54.800-101.642 -40.262  0.00  0.00     0.000 A 
ATOM     28  C   UNL d   1     -54.714-102.448 -40.337  0.00  0.00     0.000 A 
ATOM     29  C   UNL d   1     -54.848-102.831 -41.064  0.00  0.00     0.000 A 
ATOM     30  C   UNL d   1     -55.078-102.361 -41.730  0.00  0.00     0.002 A 
ENDBRANCH   4  25
TORSDOF 6
ENDMDL
