MODEL 1
REMARK VINA RESULT:      23.0      0.000      0.000
REMARK  4 active torsions:
REMARK  status: ('A' for Active; 'I' for Inactive)
REMARK    1  A    between atoms: C_8  and  N_2 
REMARK    2  A    between atoms: C_7  and  O_14 
REMARK    3  A    between atoms: C_15  and  C_8 
REMARK    4  A    between atoms: O_14  and  C_15 
ROOT
ATOM      1  C   UNL d   1     -56.802 -98.762 -44.705  0.00  0.00     0.108 C 
ENDROOT
BRANCH   1   2
ATOM      2  N   UNL d   1     -57.544 -98.767 -44.329  0.00  0.00    -0.285 N 
ATOM      3  C   UNL d   1     -57.710 -98.774 -43.467  0.00  0.00     0.183 A 
ATOM      4  N   UNL d   1     -58.588 -98.778 -43.405  0.00  0.00    -0.224 NA
ATOM      5  C   UNL d   1     -58.939 -98.774 -44.159  0.00  0.00     0.099 A 
ATOM      6  C   UNL d   1     -58.318 -98.767 -44.754  0.00  0.00     0.083 A 
ATOM      7  C   UNL d   1     -59.689 -98.775 -44.382  0.00  0.00     0.021 A 
ATOM      8  C   UNL d   1     -58.497 -98.763 -45.525  0.00  0.00     0.019 A 
ATOM      9  C   UNL d   1     -59.330 -98.764 -45.757  0.00  0.00     0.002 A 
ATOM     10  C   UNL d   1     -59.925 -98.770 -45.187  0.00  0.00     0.002 A 
ENDBRANCH   1   2
BRANCH   1  11
ATOM     11  C   UNL d   1     -56.145 -99.079 -44.348  0.00  0.00     0.142 C 
BRANCH  11  12
ATOM     12  O   UNL d   1     -55.584 -99.479 -44.805  0.00  0.00    -0.304 OA
BRANCH  12  13
ATOM     13  C   UNL d   1     -55.386-100.268 -44.635  0.00  0.00     0.100 A 
ATOM     14  C   UNL d   1     -54.927-100.694 -45.171  0.00  0.00     0.026 A 
ATOM     15  C   UNL d   1     -54.714-101.470 -45.034  0.00  0.00     0.013 A 
ATOM     16  C   UNL d   1     -54.965-101.862 -44.328  0.00  0.00     0.058 A 
ATOM     17  C   UNL d   1     -55.432-101.420 -43.789  0.00  0.00     0.013 A 
ATOM     18 CL   UNL d   1     -54.741-102.666 -44.194  0.00  0.00    -0.082 Cl
ATOM     19  C   UNL d   1     -55.636-100.641 -43.943  0.00  0.00     0.026 A 
ENDBRANCH  12  13
ENDBRANCH  11  12
ENDBRANCH   1  11
TORSDOF 4
ENDMDL
MODEL 2
REMARK VINA RESULT:      24.5      0.752      1.423
REMARK  4 active torsions:
REMARK  status: ('A' for Active; 'I' for Inactive)
REMARK    1  A    between atoms: C_8  and  N_2 
REMARK    2  A    between atoms: C_7  and  O_14 
REMARK    3  A    between atoms: C_15  and  C_8 
REMARK    4  A    between atoms: O_14  and  C_15 
ROOT
ATOM      1  C   UNL d   1     -56.590 -98.770 -44.265  0.00  0.00     0.108 C 
ENDROOT
BRANCH   1   2
ATOM      2  N   UNL d   1     -57.404 -98.812 -44.428  0.00  0.00    -0.285 N 
ATOM      3  C   UNL d   1     -57.794 -98.872 -45.213  0.00  0.00     0.183 A 
ATOM      4  N   UNL d   1     -58.656 -98.896 -45.037  0.00  0.00    -0.224 NA
ATOM      5  C   UNL d   1     -58.794 -98.855 -44.218  0.00  0.00     0.099 A 
ATOM      6  C   UNL d   1     -58.037 -98.802 -43.812  0.00  0.00     0.083 A 
ATOM      7  C   UNL d   1     -59.457 -98.857 -43.803  0.00  0.00     0.021 A 
ATOM      8  C   UNL d   1     -58.004 -98.755 -43.022  0.00  0.00     0.019 A 
ATOM      9  C   UNL d   1     -58.746 -98.759 -42.576  0.00  0.00     0.002 A 
ATOM     10  C   UNL d   1     -59.470 -98.810 -42.966  0.00  0.00     0.002 A 
ENDBRANCH   1   2
BRANCH   1  11
ATOM     11  C   UNL d   1     -56.054 -99.230 -44.667  0.00  0.00     0.142 C 
BRANCH  11  12
ATOM     12  O   UNL d   1     -55.436 -99.592 -44.255  0.00  0.00    -0.304 OA
BRANCH  12  13
ATOM     13  C   UNL d   1     -55.252-100.392 -44.384  0.00  0.00     0.100 A 
ATOM     14  C   UNL d   1     -55.288-100.922 -43.754  0.00  0.00     0.026 A 
ATOM     15  C   UNL d   1     -55.114-101.714 -43.847  0.00  0.00     0.013 A 
ATOM     16  C   UNL d   1     -54.890-102.014 -44.605  0.00  0.00     0.058 A 
ATOM     17  C   UNL d   1     -54.857-101.467 -45.240  0.00  0.00     0.013 A 
ATOM     18 CL   UNL d   1     -54.711-102.836 -44.693  0.00  0.00    -0.082 Cl
ATOM     19  C   UNL d   1     -55.035-100.674 -45.128  0.00  0.00     0.026 A 
ENDBRANCH  12  13
ENDBRANCH  11  12
ENDBRANCH   1  11
TORSDOF 4
ENDMDL
