MODEL 1
REMARK VINA RESULT:       0.1      0.000      0.000
REMARK  6 active torsions:
REMARK  status: ('A' for Active; 'I' for Inactive)
REMARK    1  A    between atoms: N_7  and  C_1 
REMARK    2  A    between atoms: C_6  and  C_4 
REMARK    3  A    between atoms: C_19  and  N_9 
REMARK    4  A    between atoms: C_21  and  C_13 
REMARK    5  A    between atoms: O_20  and  C_21 
REMARK    6  A    between atoms: C_22  and  O_20 
ROOT
ATOM      1  C   UNL d   1      32.911  21.029 -20.588  0.00  0.00     0.198 A 
ATOM      2  C   UNL d   1      32.588  21.340 -21.323  0.00  0.00     0.191 A 
ATOM      3  O   UNL d   1      33.233  20.284 -20.770  0.00  0.00    -0.268 OA
ATOM      4  C   UNL d   1      33.115  20.150 -21.556  0.00  0.00     0.208 A 
ATOM      5  N   UNL d   1      32.736  20.767 -21.888  0.00  0.00    -0.206 NA
ATOM      6  C   UNL d   1      32.213  22.070 -21.401  0.00  0.00     0.124 C 
ATOM      7  N   UNL d   1      31.830  22.802 -21.512  0.00  0.00    -0.190 NA
ENDROOT
BRANCH   1   8
ATOM      8  N   UNL d   1      32.857  21.467 -19.904  0.00  0.00    -0.280 N 
ATOM      9  C   UNL d   1      33.241  22.188 -19.824  0.00  0.00     0.101 A 
ATOM     10  C   UNL d   1      33.187  22.625 -19.141  0.00  0.00     0.100 A 
ATOM     11  N   UNL d   1      32.733  22.332 -18.514  0.00  0.00    -0.301 N 
ATOM     12  C   UNL d   1      32.337  21.601 -18.577  0.00  0.00     0.100 A 
ATOM     13  C   UNL d   1      32.404  21.173 -19.277  0.00  0.00     0.101 A 
BRANCH  11  14
ATOM     14  C   UNL d   1      32.666  22.760 -17.813  0.00  0.00     0.064 A 
ATOM     15  C   UNL d   1      33.239  22.697 -17.204  0.00  0.00     0.018 A 
ATOM     16  C   UNL d   1      33.172  23.125 -16.504  0.00  0.00     0.002 A 
ATOM     17  C   UNL d   1      32.522  23.629 -16.402  0.00  0.00     0.000 A 
ATOM     18  C   UNL d   1      31.951  23.701 -16.991  0.00  0.00     0.002 A 
ATOM     19  C   UNL d   1      32.016  23.264 -17.711  0.00  0.00     0.018 A 
ENDBRANCH  11  14
ENDBRANCH   1   8
BRANCH   4  20
ATOM     20  C   UNL d   1      33.132  19.769 -22.279  0.00  0.00     0.141 A 
ATOM     21  O   UNL d   1      33.125  19.070 -22.750  0.00  0.00    -0.301 OA
ATOM     22  C   UNL d   1      33.169  19.291 -23.545  0.00  0.00     0.125 A 
ATOM     23  C   UNL d   1      33.204  20.092 -23.598  0.00  0.00     0.029 A 
ATOM     24  C   UNL d   1      33.179  20.374 -22.799  0.00  0.00     0.030 A 
BRANCH  22  25
ATOM     25  C   UNL d   1      33.179  18.801 -24.208  0.00  0.00     0.147 C 
BRANCH  25  26
ATOM     26  O   UNL d   1      32.487  18.469 -24.519  0.00  0.00    -0.303 OA
BRANCH  26  27
ATOM     27  C   UNL d   1      32.337  17.669 -24.498  0.00  0.00     0.100 A 
ATOM     28  C   UNL d   1      31.692  17.343 -24.111  0.00  0.00     0.025 A 
ATOM     29  C   UNL d   1      31.558  16.534 -24.100  0.00  0.00     0.002 A 
ATOM     30  C   UNL d   1      30.909  16.188 -23.712  0.00  0.00     0.000 C 
ATOM     31  C   UNL d   1      32.084  16.039 -24.486  0.00  0.00     0.000 A 
ATOM     32  C   UNL d   1      32.757  16.362 -24.891  0.00  0.00     0.002 A 
ATOM     33  C   UNL d   1      32.880  17.167 -24.896  0.00  0.00     0.025 A 
ENDBRANCH  26  27
ENDBRANCH  25  26
ENDBRANCH  22  25
ENDBRANCH   4  20
TORSDOF 6
ENDMDL
