MODEL 1
REMARK VINA RESULT:      38.7      0.000      0.000
REMARK  3 active torsions:
REMARK  status: ('A' for Active; 'I' for Inactive)
REMARK    1  A    between atoms: N_4  and  C_1 
REMARK    2  A    between atoms: C_3  and  N_4 
REMARK    3  A    between atoms: C_8  and  C_5 
ROOT
ATOM      1  C   UNL d   1     -56.387 -99.198 -44.470  0.00  0.00     0.750 A 
ATOM      2  N   UNL d   1     -56.150 -99.920 -44.149  0.00  0.00    -0.059 NA
ATOM      3  C   UNL d   1     -55.571-100.368 -44.524  0.00  0.00     0.103 A 
ATOM      4  N   UNL d   1     -56.052 -98.922 -45.157  0.00  0.00    -0.058 NA
ATOM      5  C   UNL d   1     -55.229-100.091 -45.222  0.00  0.00     0.041 A 
ATOM      6  C   UNL d   1     -55.471 -99.360 -45.544  0.00  0.00     0.120 A 
ENDROOT
BRANCH   1   7
ATOM      7  N   UNL d   1     -56.967 -98.755 -44.088  0.00  0.00    -0.059 NA
BRANCH   7   8
ATOM      8  C   UNL d   1     -57.751 -98.790 -44.343  0.00  0.00     0.101 A 
ATOM      9  C   UNL d   1     -57.927 -98.806 -45.149  0.00  0.00     0.041 A 
ATOM     10  C   UNL d   1     -58.718 -98.841 -45.399  0.00  0.00     0.104 A 
ATOM     11  N   UNL d   1     -58.893 -98.857 -46.205  0.00  0.00    -0.148 N 
ATOM     12  C   UNL d   1     -59.326 -98.859 -44.844  0.00  0.00     0.021 A 
ATOM     13  C   UNL d   1     -59.151 -98.843 -44.038  0.00  0.00     0.003 A 
ATOM     14  C   UNL d   1     -58.367 -98.808 -43.787  0.00  0.00     0.018 A 
ATOM     15  C   UNL d   1     -58.192 -98.792 -42.981  0.00  0.00     0.002 C 
ENDBRANCH   7   8
ENDBRANCH   1   7
BRANCH   3  16
ATOM     16  C   UNL d   1     -55.336-101.087 -44.205  0.00  0.00     0.037 A 
ATOM     17  C   UNL d   1     -54.954-101.101 -43.480  0.00  0.00     0.100 A 
ATOM     18  N   UNL d   1     -54.713-101.818 -43.149  0.00  0.00    -0.242 NA
ATOM     19  C   UNL d   1     -54.860-102.527 -43.555  0.00  0.00     0.099 A 
ATOM     20  C   UNL d   1     -55.247-102.509 -44.290  0.00  0.00     0.021 A 
ATOM     21  C   UNL d   1     -55.483-101.791 -44.609  0.00  0.00     0.005 A 
ENDBRANCH   3  16
TORSDOF 3
ENDMDL
MODEL 2
REMARK VINA RESULT:      39.1      0.981      3.844
REMARK  3 active torsions:
REMARK  status: ('A' for Active; 'I' for Inactive)
REMARK    1  A    between atoms: N_4  and  C_1 
REMARK    2  A    between atoms: C_3  and  N_4 
REMARK    3  A    between atoms: C_8  and  C_5 
ROOT
ATOM      1  C   UNL d   1     -56.224 -99.088 -44.765  0.00  0.00     0.750 A 
ATOM      2  N   UNL d   1     -56.820 -99.070 -44.194  0.00  0.00    -0.059 NA
ATOM      3  C   UNL d   1     -57.595 -98.904 -44.413  0.00  0.00     0.103 A 
ATOM      4  N   UNL d   1     -56.396 -98.943 -45.546  0.00  0.00    -0.058 NA
ATOM      5  C   UNL d   1     -57.774 -98.756 -45.206  0.00  0.00     0.041 A 
ATOM      6  C   UNL d   1     -57.169 -98.775 -45.780  0.00  0.00     0.120 A 
ENDROOT
BRANCH   1   7
ATOM      7  N   UNL d   1     -55.451 -99.255 -44.537  0.00  0.00    -0.059 NA
BRANCH   7   8
ATOM      8  C   UNL d   1     -55.257-100.001 -44.239  0.00  0.00     0.101 A 
ATOM      9  C   UNL d   1     -55.409-100.679 -44.683  0.00  0.00     0.041 A 
ATOM     10  C   UNL d   1     -55.211-101.426 -44.378  0.00  0.00     0.104 A 
ATOM     11  N   UNL d   1     -55.363-102.104 -44.822  0.00  0.00    -0.148 N 
ATOM     12  C   UNL d   1     -54.865-101.489 -43.633  0.00  0.00     0.021 A 
ATOM     13  C   UNL d   1     -54.714-100.810 -43.189  0.00  0.00     0.003 A 
ATOM     14  C   UNL d   1     -54.908-100.069 -43.489  0.00  0.00     0.018 A 
ATOM     15  C   UNL d   1     -54.757 -99.390 -43.045  0.00  0.00     0.002 C 
ENDBRANCH   7   8
ENDBRANCH   1   7
BRANCH   3  16
ATOM     16  C   UNL d   1     -58.188 -98.886 -43.846  0.00  0.00     0.037 A 
ATOM     17  C   UNL d   1     -58.970 -98.975 -44.075  0.00  0.00     0.100 A 
ATOM     18  N   UNL d   1     -59.574 -98.958 -43.513  0.00  0.00    -0.242 NA
ATOM     19  C   UNL d   1     -59.386 -98.851 -42.711  0.00  0.00     0.099 A 
ATOM     20  C   UNL d   1     -58.593 -98.761 -42.482  0.00  0.00     0.021 A 
ATOM     21  C   UNL d   1     -58.000 -98.779 -43.049  0.00  0.00     0.005 A 
ENDBRANCH   3  16
TORSDOF 3
ENDMDL
