MODEL 1
REMARK VINA RESULT:      -8.8      0.000      0.000
REMARK  4 active torsions:
REMARK  status: ('A' for Active; 'I' for Inactive)
REMARK    1  A    between atoms: N_3  and  S_1 
REMARK    2  A    between atoms: C_4  and  S_1 
REMARK    3  A    between atoms: S_2  and  C_5 
REMARK    4  A    between atoms: C_13  and  N_3 
ROOT
ATOM      1  N   UNL d   1      52.844  32.073  52.619  0.00  0.00    -0.158 NA
ENDROOT
BRANCH   1   2
ATOM      2  S   UNL d   1      52.857  32.785  53.015  0.00  0.00     0.285 S 
ATOM      3  O   UNL d   1      52.042  32.743  53.140  0.00  0.00    -0.198 OA
ATOM      4  O   UNL d   1      53.678  32.846  52.899  0.00  0.00    -0.198 OA
BRANCH   2   5
ATOM      5  C   UNL d   1      52.875  33.537  53.432  0.00  0.00     0.105 A 
ATOM      6  C   UNL d   1      52.452  34.161  53.138  0.00  0.00     0.015 A 
ATOM      7  C   UNL d   1      52.457  34.886  53.522  0.00  0.00     0.022 A 
ATOM      8  C   UNL d   1      52.891  34.981  54.205  0.00  0.00     0.103 A 
ATOM      9  C   UNL d   1      53.325  34.338  54.505  0.00  0.00     0.022 A 
ATOM     10  N   UNL d   1      52.893  35.725  54.593  0.00  0.00    -0.148 N 
ATOM     11  C   UNL d   1      53.304  33.618  54.100  0.00  0.00     0.015 A 
ENDBRANCH   2   5
ENDBRANCH   1   2
BRANCH   1  12
ATOM     12  C   UNL d   1      52.931  31.369  53.028  0.00  0.00     0.094 A 
ATOM     13  C   UNL d   1      53.670  31.107  53.209  0.00  0.00     0.021 A 
ATOM     14  C   UNL d   1      53.759  30.393  53.624  0.00  0.00     0.015 A 
ATOM     15  C   UNL d   1      53.104  29.971  53.840  0.00  0.00     0.107 A 
ATOM     16  C   UNL d   1      52.341  30.236  53.657  0.00  0.00     0.015 A 
ATOM     17  C   UNL d   1      52.252  30.951  53.242  0.00  0.00     0.021 A 
BRANCH  15  18
ATOM     18  S   UNL d   1      53.192  29.257  54.255  0.00  0.00     0.302 S 
ATOM     19  O   UNL d   1      53.389  29.685  54.949  0.00  0.00    -0.197 OA
ATOM     20  O   UNL d   1      53.001  28.842  53.580  0.00  0.00    -0.197 OA
ATOM     21  N   UNL d   1      53.280  28.550  54.666  0.00  0.00    -0.043 N 
ENDBRANCH  15  18
ENDBRANCH   1  12
TORSDOF 4
ENDMDL
MODEL 2
REMARK VINA RESULT:      -8.6      1.268      4.325
REMARK  4 active torsions:
REMARK  status: ('A' for Active; 'I' for Inactive)
REMARK    1  A    between atoms: N_3  and  S_1 
REMARK    2  A    between atoms: C_4  and  S_1 
REMARK    3  A    between atoms: S_2  and  C_5 
REMARK    4  A    between atoms: C_13  and  N_3 
ROOT
ATOM      1  N   UNL d   1      52.824  32.349  52.602  0.00  0.00    -0.158 NA
ENDROOT
BRANCH   1   2
ATOM      2  S   UNL d   1      52.930  31.624  52.959  0.00  0.00     0.285 S 
ATOM      3  O   UNL d   1      53.749  31.700  52.897  0.00  0.00    -0.198 OA
ATOM      4  O   UNL d   1      52.106  31.529  53.030  0.00  0.00    -0.198 OA
BRANCH   2   5
ATOM      5  C   UNL d   1      53.036  30.858  53.336  0.00  0.00     0.105 A 
ATOM      6  C   UNL d   1      53.628  30.767  53.880  0.00  0.00     0.015 A 
ATOM      7  C   UNL d   1      53.745  30.044  54.251  0.00  0.00     0.022 A 
ATOM      8  C   UNL d   1      53.261  29.413  54.071  0.00  0.00     0.103 A 
ATOM      9  C   UNL d   1      52.654  29.510  53.512  0.00  0.00     0.022 A 
ATOM     10  N   UNL d   1      53.386  28.676  54.454  0.00  0.00    -0.148 N 
ATOM     11  C   UNL d   1      52.557  30.247  53.152  0.00  0.00     0.015 A 
ENDBRANCH   2   5
ENDBRANCH   1   2
BRANCH   1  12
ATOM     12  C   UNL d   1      52.838  33.036  53.046  0.00  0.00     0.094 A 
ATOM     13  C   UNL d   1      53.542  33.400  53.189  0.00  0.00     0.021 A 
ATOM     14  C   UNL d   1      53.555  34.098  53.640  0.00  0.00     0.015 A 
ATOM     15  C   UNL d   1      52.864  34.402  53.928  0.00  0.00     0.107 A 
ATOM     16  C   UNL d   1      52.137  34.032  53.784  0.00  0.00     0.015 A 
ATOM     17  C   UNL d   1      52.123  33.334  53.333  0.00  0.00     0.021 A 
BRANCH  15  18
ATOM     18  S   UNL d   1      52.877  35.099  54.379  0.00  0.00     0.302 S 
ATOM     19  O   UNL d   1      53.365  34.722  54.948  0.00  0.00    -0.197 OA
ATOM     20  O   UNL d   1      52.403  35.465  53.826  0.00  0.00    -0.197 OA
ATOM     21  N   UNL d   1      52.890  35.790  54.825  0.00  0.00    -0.043 N 
ENDBRANCH  15  18
ENDBRANCH   1  12
TORSDOF 4
ENDMDL
MODEL 3
REMARK VINA RESULT:      -8.4      1.837      4.473
REMARK  4 active torsions:
REMARK  status: ('A' for Active; 'I' for Inactive)
REMARK    1  A    between atoms: N_3  and  S_1 
REMARK    2  A    between atoms: C_4  and  S_1 
REMARK    3  A    between atoms: S_2  and  C_5 
REMARK    4  A    between atoms: C_13  and  N_3 
ROOT
ATOM      1  N   UNL d   1      52.845  33.351  53.047  0.00  0.00    -0.158 NA
ENDROOT
BRANCH   1   2
ATOM      2  S   UNL d   1      52.946  32.553  53.176  0.00  0.00     0.285 S 
ATOM      3  O   UNL d   1      52.859  32.400  52.369  0.00  0.00    -0.198 OA
ATOM      4  O   UNL d   1      53.037  32.687  53.992  0.00  0.00    -0.198 OA
BRANCH   2   5
ATOM      5  C   UNL d   1      53.054  31.711  53.317  0.00  0.00     0.105 A 
ATOM      6  C   UNL d   1      53.553  31.472  53.907  0.00  0.00     0.015 A 
ATOM      7  C   UNL d   1      53.668  30.674  54.057  0.00  0.00     0.022 A 
ATOM      8  C   UNL d   1      53.278  30.116  53.608  0.00  0.00     0.103 A 
ATOM      9  C   UNL d   1      52.766  30.365  53.003  0.00  0.00     0.022 A 
ATOM     10  N   UNL d   1      53.400  29.300  53.766  0.00  0.00    -0.148 N 
ATOM     11  C   UNL d   1      52.667  31.174  52.871  0.00  0.00     0.015 A 
ENDBRANCH   2   5
ENDBRANCH   1   2
BRANCH   1  12
ATOM     12  C   UNL d   1      52.097  33.660  52.925  0.00  0.00     0.094 A 
ATOM     13  C   UNL d   1      51.561  33.643  53.526  0.00  0.00     0.021 A 
ATOM     14  C   UNL d   1      50.801  33.957  53.403  0.00  0.00     0.015 A 
ATOM     15  C   UNL d   1      50.610  34.275  52.685  0.00  0.00     0.107 A 
ATOM     16  C   UNL d   1      51.158  34.295  52.064  0.00  0.00     0.015 A 
ATOM     17  C   UNL d   1      51.918  33.981  52.187  0.00  0.00     0.021 A 
BRANCH  15  18
ATOM     18  S   UNL d   1      49.852  34.588  52.562  0.00  0.00     0.302 S 
ATOM     19  O   UNL d   1      49.807  34.192  51.824  0.00  0.00    -0.197 OA
ATOM     20  O   UNL d   1      49.895  34.973  53.279  0.00  0.00    -0.197 OA
ATOM     21  N   UNL d   1      49.099  34.899  52.441  0.00  0.00    -0.043 N 
ENDBRANCH  15  18
ENDBRANCH   1  12
TORSDOF 4
ENDMDL
MODEL 4
REMARK VINA RESULT:      -8.4      2.450      3.984
REMARK  4 active torsions:
REMARK  status: ('A' for Active; 'I' for Inactive)
REMARK    1  A    between atoms: N_3  and  S_1 
REMARK    2  A    between atoms: C_4  and  S_1 
REMARK    3  A    between atoms: S_2  and  C_5 
REMARK    4  A    between atoms: C_13  and  N_3 
ROOT
ATOM      1  N   UNL d   1      52.456  32.828  52.823  0.00  0.00    -0.158 NA
ENDROOT
BRANCH   1   2
ATOM      2  S   UNL d   1      53.046  33.012  53.354  0.00  0.00     0.285 S 
ATOM      3  O   UNL d   1      53.352  33.577  52.835  0.00  0.00    -0.198 OA
ATOM      4  O   UNL d   1      52.754  32.447  53.890  0.00  0.00    -0.198 OA
BRANCH   2   5
ATOM      5  C   UNL d   1      53.668  33.203  53.917  0.00  0.00     0.105 A 
ATOM      6  C   UNL d   1      54.434  33.018  53.735  0.00  0.00     0.015 A 
ATOM      7  C   UNL d   1      55.041  33.193  54.259  0.00  0.00     0.022 A 
ATOM      8  C   UNL d   1      54.872  33.555  54.969  0.00  0.00     0.103 A 
ATOM      9  C   UNL d   1      54.084  33.743  55.154  0.00  0.00     0.022 A 
ATOM     10  N   UNL d   1      55.497  33.731  55.502  0.00  0.00    -0.148 N 
ATOM     11  C   UNL d   1      53.491  33.558  54.609  0.00  0.00     0.015 A 
ENDBRANCH   2   5
ENDBRANCH   1   2
BRANCH   1  12
ATOM     12  C   UNL d   1      51.784  33.293  52.772  0.00  0.00     0.094 A 
ATOM     13  C   UNL d   1      51.154  33.128  53.244  0.00  0.00     0.021 A 
ATOM     14  C   UNL d   1      50.472  33.600  53.192  0.00  0.00     0.015 A 
ATOM     15  C   UNL d   1      50.450  34.217  52.669  0.00  0.00     0.107 A 
ATOM     16  C   UNL d   1      51.097  34.391  52.181  0.00  0.00     0.015 A 
ATOM     17  C   UNL d   1      51.779  33.919  52.234  0.00  0.00     0.021 A 
BRANCH  15  18
ATOM     18  S   UNL d   1      49.769  34.688  52.617  0.00  0.00     0.302 S 
ATOM     19  O   UNL d   1      49.988  35.082  53.325  0.00  0.00    -0.197 OA
ATOM     20  O   UNL d   1      49.557  34.305  51.930  0.00  0.00    -0.197 OA
ATOM     21  N   UNL d   1      49.094  35.156  52.565  0.00  0.00    -0.043 N 
ENDBRANCH  15  18
ENDBRANCH   1  12
TORSDOF 4
ENDMDL
