MODEL 1
REMARK VINA RESULT:      17.8      0.000      0.000
REMARK  5 active torsions:
REMARK  status: ('A' for Active; 'I' for Inactive)
REMARK    1  A    between atoms: O_8  and  S_1 
REMARK    2  A    between atoms: C_9  and  S_1 
REMARK    3  A    between atoms: C_7  and  C_2 
REMARK    4  A    between atoms: C_20  and  C_7 
REMARK    5  A    between atoms: C_14  and  O_8 
ROOT
ATOM      1  C   UNL d   1      45.213 -14.040  44.733  0.00  0.00     0.139 A 
ATOM      2  C   UNL d   1      45.003 -15.350  44.861  0.00  0.00     0.064 A 
ATOM      3  C   UNL d   1      44.630 -14.615  44.838  0.00  0.00     0.220 A 
ATOM      4  C   UNL d   1      45.817 -15.229  44.771  0.00  0.00     0.105 A 
ATOM      5  O   UNL d   1      45.944 -14.419  44.693  0.00  0.00    -0.304 OA
ATOM      6  C   UNL d   1      46.333 -15.881  44.774  0.00  0.00     0.050 A 
ATOM      7  C   UNL d   1      44.705 -16.123  44.954  0.00  0.00     0.007 A 
ATOM      8  C   UNL d   1      46.037 -16.642  44.865  0.00  0.00     0.116 A 
ATOM      9  O   UNL d   1      43.821 -14.481  44.906  0.00  0.00    -0.284 OA
ATOM     10  C   UNL d   1      45.223 -16.763  44.955  0.00  0.00     0.026 A 
ENDROOT
BRANCH   8  11
ATOM     11  O   UNL d   1      46.547 -17.284  44.867  0.00  0.00    -0.227 OA
BRANCH  11  12
ATOM     12  S   UNL d   1      46.498 -17.859  44.289  0.00  0.00     0.304 S 
ATOM     13  O   UNL d   1      46.384 -18.433  44.863  0.00  0.00    -0.193 OA
ATOM     14  O   UNL d   1      46.613 -17.286  43.715  0.00  0.00    -0.193 OA
BRANCH  12  15
ATOM     15  C   UNL d   1      46.449 -18.438  43.704  0.00  0.00     0.111 A 
ATOM     16  C   UNL d   1      46.287 -19.219  43.909  0.00  0.00     0.013 A 
ATOM     17  C   UNL d   1      46.237 -19.802  43.322  0.00  0.00     0.001 A 
ATOM     18  C   UNL d   1      46.351 -19.594  42.534  0.00  0.00     0.000 A 
ATOM     19  C   UNL d   1      46.514 -18.811  42.325  0.00  0.00     0.001 A 
ATOM     20  C   UNL d   1      46.302 -20.172  41.950  0.00  0.00     0.000 C 
ATOM     21  C   UNL d   1      46.562 -18.237  42.909  0.00  0.00     0.013 A 
ENDBRANCH  12  15
ENDBRANCH  11  12
ENDBRANCH   8  11
BRANCH   1  22
ATOM     22  C   UNL d   1      45.085 -13.224  44.679  0.00  0.00     0.029 C 
BRANCH  22  23
ATOM     23  C   UNL d   1      45.167 -12.847  43.957  0.00  0.00     0.021 A 
ATOM     24  C   UNL d   1      44.537 -12.850  43.419  0.00  0.00     0.099 A 
ATOM     25  N   UNL d   1      44.612 -12.473  42.689  0.00  0.00    -0.242 NA
ATOM     26  C   UNL d   1      45.319 -12.093  42.500  0.00  0.00     0.099 A 
ATOM     27  C   UNL d   1      45.948 -12.090  43.038  0.00  0.00     0.021 A 
ATOM     28  C   UNL d   1      45.866 -12.467  43.762  0.00  0.00     0.003 A 
ENDBRANCH  22  23
ENDBRANCH   1  22
TORSDOF 5
ENDMDL
