MODEL 1
REMARK VINA RESULT:      23.3      0.000      0.000
REMARK  4 active torsions:
REMARK  status: ('A' for Active; 'I' for Inactive)
REMARK    1  A    between atoms: C_5  and  N_1 
REMARK    2  A    between atoms: C_7  and  C_5 
REMARK    3  A    between atoms: O_10  and  C_9 
REMARK    4  A    between atoms: C_15  and  O_10 
ROOT
ATOM      1  N   UNL d   1      45.749 -16.410  44.081  0.00  0.00    -0.268 N 
ATOM      2  C   UNL d   1      45.112 -16.602  44.581  0.00  0.00     0.296 A 
ATOM      3  S   UNL d   1      44.868 -15.908  44.952  0.00  0.00    -0.025 SA
ATOM      4  C   UNL d   1      45.892 -15.598  44.150  0.00  0.00     0.073 A 
ATOM      5  C   UNL d   1      45.344 -15.290  44.690  0.00  0.00     0.050 A 
ATOM      6  O   UNL d   1      44.786 -17.352  44.684  0.00  0.00    -0.259 OA
ATOM      7  C   UNL d   1      46.444 -15.108  43.793  0.00  0.00     0.018 A 
ATOM      8  C   UNL d   1      45.360 -14.476  44.868  0.00  0.00     0.008 A 
ATOM      9  C   UNL d   1      46.456 -14.303  43.971  0.00  0.00     0.002 A 
ATOM     10  C   UNL d   1      45.919 -13.989  44.504  0.00  0.00     0.001 A 
ENDROOT
BRANCH   1  11
ATOM     11  C   UNL d   1      46.165 -16.935  43.603  0.00  0.00     0.086 C 
BRANCH  11  12
ATOM     12  C   UNL d   1      46.327 -17.698  43.877  0.00  0.00     0.040 A 
ATOM     13  C   UNL d   1      46.360 -18.316  43.338  0.00  0.00     0.102 A 
ATOM     14  C   UNL d   1      46.519 -19.071  43.607  0.00  0.00     0.025 A 
ATOM     15  C   UNL d   1      46.646 -19.215  44.418  0.00  0.00     0.002 A 
ATOM     16  C   UNL d   1      46.610 -18.586  44.950  0.00  0.00     0.000 A 
ATOM     17  C   UNL d   1      46.449 -17.822  44.675  0.00  0.00     0.004 A 
BRANCH  13  18
ATOM     18  O   UNL d   1      46.230 -18.144  42.544  0.00  0.00    -0.305 OA
BRANCH  18  19
ATOM     19  C   UNL d   1      46.288 -18.743  41.977  0.00  0.00     0.123 C 
ATOM     20  C   UNL d   1      46.538 -18.558  41.209  0.00  0.00     0.029 C 
ENDBRANCH  18  19
ENDBRANCH  13  18
ENDBRANCH  11  12
ENDBRANCH   1  11
TORSDOF 4
ENDMDL
MODEL 2
REMARK VINA RESULT:      24.6      0.919      1.655
REMARK  4 active torsions:
REMARK  status: ('A' for Active; 'I' for Inactive)
REMARK    1  A    between atoms: C_5  and  N_1 
REMARK    2  A    between atoms: C_7  and  C_5 
REMARK    3  A    between atoms: O_10  and  C_9 
REMARK    4  A    between atoms: C_15  and  O_10 
ROOT
ATOM      1  N   UNL d   1      45.507 -16.008  44.837  0.00  0.00    -0.268 N 
ATOM      2  C   UNL d   1      44.679 -16.000  44.908  0.00  0.00     0.296 A 
ATOM      3  S   UNL d   1      44.437 -15.212  44.922  0.00  0.00    -0.025 SA
ATOM      4  C   UNL d   1      45.769 -15.224  44.809  0.00  0.00     0.073 A 
ATOM      5  C   UNL d   1      45.104 -14.733  44.862  0.00  0.00     0.050 A 
ATOM      6  O   UNL d   1      44.189 -16.662  44.955  0.00  0.00    -0.259 OA
ATOM      7  C   UNL d   1      46.519 -14.900  44.742  0.00  0.00     0.018 A 
ATOM      8  C   UNL d   1      45.204 -13.906  44.847  0.00  0.00     0.008 A 
ATOM      9  C   UNL d   1      46.615 -14.081  44.728  0.00  0.00     0.002 A 
ATOM     10  C   UNL d   1      45.962 -13.588  44.780  0.00  0.00     0.001 A 
ENDROOT
BRANCH   1  11
ATOM     11  C   UNL d   1      45.984 -16.678  44.802  0.00  0.00     0.086 C 
BRANCH  11  12
ATOM     12  C   UNL d   1      46.030 -17.110  44.098  0.00  0.00     0.040 A 
ATOM     13  C   UNL d   1      46.243 -17.902  44.130  0.00  0.00     0.102 A 
ATOM     14  C   UNL d   1      46.289 -18.331  43.436  0.00  0.00     0.025 A 
ATOM     15  C   UNL d   1      46.122 -17.971  42.703  0.00  0.00     0.002 A 
ATOM     16  C   UNL d   1      45.909 -17.175  42.684  0.00  0.00     0.000 A 
ATOM     17  C   UNL d   1      45.863 -16.743  43.388  0.00  0.00     0.004 A 
BRANCH  13  18
ATOM     18  O   UNL d   1      46.403 -18.230  44.867  0.00  0.00    -0.305 OA
BRANCH  18  19
ATOM     19  C   UNL d   1      46.633 -19.022  44.927  0.00  0.00     0.123 C 
ATOM     20  C   UNL d   1      46.056 -19.617  44.938  0.00  0.00     0.029 C 
ENDBRANCH  18  19
ENDBRANCH  13  18
ENDBRANCH  11  12
ENDBRANCH   1  11
TORSDOF 4
ENDMDL
