MODEL 1
REMARK VINA RESULT:      13.1      0.000      0.000
REMARK  2 active torsions:
REMARK  status: ('A' for Active; 'I' for Inactive)
REMARK    1  A    between atoms: C_7  and  C_1 
REMARK    2  A    between atoms: C_11  and  C_7 
ROOT
ATOM      1  C   UNL d   1      13.986  12.031  -1.703  0.00  0.00     0.116 A 
ATOM      2  N   UNL d   1      15.350  12.284  -1.405  0.00  0.00    -0.152 NA
ATOM      3  N   UNL d   1      14.336  12.514  -0.401  0.00  0.00    -0.152 NA
ATOM      4  C   UNL d   1      14.760  12.044  -1.916  0.00  0.00     0.288 A 
ATOM      5  C   UNL d   1      13.770  12.267  -0.941  0.00  0.00     0.288 A 
ATOM      6  C   UNL d   1      15.129  12.526  -0.623  0.00  0.00     0.374 A 
ATOM      7  O   UNL d   1      12.969  12.261  -0.698  0.00  0.00    -0.265 OA
ATOM      8  O   UNL d   1      14.969  11.802  -2.692  0.00  0.00    -0.265 OA
ATOM      9  O   UNL d   1      15.688  12.781  -0.059  0.00  0.00    -0.242 OA
ENDROOT
BRANCH   1  10
ATOM     10  C   UNL d   1      13.396  11.780  -2.245  0.00  0.00     0.010 C 
BRANCH  10  11
ATOM     11  C   UNL d   1      13.316  12.190  -2.956  0.00  0.00     0.000 A 
ATOM     12  C   UNL d   1      13.141  11.781  -3.643  0.00  0.00     0.002 A 
ATOM     13  C   UNL d   1      13.062  12.185  -4.346  0.00  0.00     0.030 A 
ATOM     14  C   UNL d   1      13.159  13.009  -4.365  0.00  0.00     0.140 A 
ATOM     15  C   UNL d   1      13.334  13.418  -3.679  0.00  0.00     0.030 A 
ATOM     16  F   UNL d   1      13.082  13.450  -5.080  0.00  0.00    -0.204 F 
ATOM     17  C   UNL d   1      13.413  13.014  -2.976  0.00  0.00     0.002 A 
ENDBRANCH  10  11
ENDBRANCH   1  10
TORSDOF 2
ENDMDL
MODEL 2
REMARK VINA RESULT:      14.0      1.326      1.837
REMARK  2 active torsions:
REMARK  status: ('A' for Active; 'I' for Inactive)
REMARK    1  A    between atoms: C_7  and  C_1 
REMARK    2  A    between atoms: C_11  and  C_7 
ROOT
ATOM      1  C   UNL d   1      14.861  12.916  -0.711  0.00  0.00     0.116 A 
ATOM      2  N   UNL d   1      15.823  13.959  -0.722  0.00  0.00    -0.152 NA
ATOM      3  N   UNL d   1      14.568  14.140  -0.029  0.00  0.00    -0.152 NA
ATOM      4  C   UNL d   1      15.576  13.210  -0.931  0.00  0.00     0.288 A 
ATOM      5  C   UNL d   1      14.352  13.382  -0.257  0.00  0.00     0.288 A 
ATOM      6  C   UNL d   1      15.301  14.438  -0.257  0.00  0.00     0.374 A 
ATOM      7  O   UNL d   1      13.603  13.096  -0.017  0.00  0.00    -0.265 OA
ATOM      8  O   UNL d   1      16.085  12.728  -1.391  0.00  0.00    -0.265 OA
ATOM      9  O   UNL d   1      15.500  15.210  -0.014  0.00  0.00    -0.242 OA
ENDROOT
BRANCH   1  10
ATOM     10  C   UNL d   1      14.627  12.142  -0.937  0.00  0.00     0.010 C 
BRANCH  10  11
ATOM     11  C   UNL d   1      14.164  12.053  -1.614  0.00  0.00     0.000 A 
ATOM     12  C   UNL d   1      13.369  11.877  -1.541  0.00  0.00     0.002 A 
ATOM     13  C   UNL d   1      12.911  11.789  -2.209  0.00  0.00     0.030 A 
ATOM     14  C   UNL d   1      13.250  11.878  -2.961  0.00  0.00     0.140 A 
ATOM     15  C   UNL d   1      14.046  12.055  -3.034  0.00  0.00     0.030 A 
ATOM     16  F   UNL d   1      12.798  11.792  -3.667  0.00  0.00    -0.204 F 
ATOM     17  C   UNL d   1      14.504  12.143  -2.366  0.00  0.00     0.002 A 
ENDBRANCH  10  11
ENDBRANCH   1  10
TORSDOF 2
ENDMDL
