MODEL 1
REMARK VINA RESULT:      53.6      0.000      0.000
REMARK  5 active torsions:
REMARK  status: ('A' for Active; 'I' for Inactive)
REMARK    1  A    between atoms: C_9  and  S_1 
REMARK    2  A    between atoms: C_2  and  C_10 
REMARK       I    between atoms: C_8  and  N_15 
REMARK    3  A    between atoms: C_10  and  C_8 
REMARK    4  A    between atoms: N_15  and  C_22 
REMARK    5  A    between atoms: O_26  and  C_21 
ROOT
ATOM      1  C   UNL d   1      12.901  14.123  -3.543  0.00  0.00     0.063 C 
ENDROOT
BRANCH   1   2
ATOM      2  C   UNL d   1      13.153  13.346  -3.637  0.00  0.00     0.012 A 
ATOM      3  C   UNL d   1      13.533  12.958  -3.016  0.00  0.00     0.023 A 
ATOM      4  C   UNL d   1      13.785  12.177  -3.115  0.00  0.00     0.105 A 
ATOM      5  C   UNL d   1      13.659  13.348  -2.305  0.00  0.00     0.004 A 
ATOM      6  C   UNL d   1      14.167  11.782  -2.495  0.00  0.00     0.049 A 
ATOM      7  O   UNL d   1      13.661  11.779  -3.827  0.00  0.00    -0.273 OA
ATOM      8  C   UNL d   1      14.290  12.180  -1.783  0.00  0.00     0.096 A 
ATOM      9  C   UNL d   1      14.037  12.960  -1.689  0.00  0.00     0.024 A 
ATOM     10  C   UNL d   1      13.276  12.175  -4.455  0.00  0.00     0.300 A 
ATOM     11  C   UNL d   1      13.023  12.956  -4.360  0.00  0.00     0.069 A 
ATOM     12  O   UNL d   1      13.149  11.789  -5.166  0.00  0.00    -0.259 OA
BRANCH   8  13
ATOM     13  O   UNL d   1      14.668  11.796  -1.165  0.00  0.00    -0.328 OA
ATOM     14  C   UNL d   1      14.999  12.235  -0.553  0.00  0.00     0.181 C 
ENDBRANCH   8  13
ENDBRANCH   1   2
BRANCH   1  15
ATOM     15  C   UNL d   1      13.324  14.745  -3.881  0.00  0.00     0.279 C 
ATOM     16  N   UNL d   1      13.910  15.134  -3.455  0.00  0.00    -0.208 NA
ATOM     17  O   UNL d   1      13.154  14.976  -4.651  0.00  0.00    -0.265 OA
BRANCH  16  18
ATOM     18  C   UNL d   1      14.327  15.753  -3.798  0.00  0.00     0.085 A 
ATOM     19  C   UNL d   1      14.495  15.726  -4.607  0.00  0.00     0.020 A 
ATOM     20  C   UNL d   1      14.916  16.353  -4.949  0.00  0.00     0.015 A 
ATOM     21  C   UNL d   1      15.162  16.990  -4.496  0.00  0.00     0.107 A 
ATOM     22  C   UNL d   1      14.993  17.013  -3.691  0.00  0.00     0.015 A 
ATOM     23  C   UNL d   1      14.574  16.394  -3.341  0.00  0.00     0.020 A 
BRANCH  21  24
ATOM     24  S   UNL d   1      15.580  17.609  -4.842  0.00  0.00     0.302 S 
ATOM     25  O   UNL d   1      16.154  18.101  -5.151  0.00  0.00    -0.197 OA
ATOM     26  O   UNL d   1      16.141  17.048  -4.663  0.00  0.00    -0.197 OA
ATOM     27  N   UNL d   1      15.174  18.279  -5.093  0.00  0.00    -0.043 N 
ENDBRANCH  21  24
ENDBRANCH  16  18
ENDBRANCH   1  15
TORSDOF 5
ENDMDL
