MODEL 1
REMARK VINA RESULT:      41.5      0.000      0.000
REMARK  6 active torsions:
REMARK  status: ('A' for Active; 'I' for Inactive)
REMARK    1  A    between atoms: C_9  and  C_3 
REMARK    2  A    between atoms: C_8  and  C_5 
REMARK    3  A    between atoms: O_19  and  C_9 
REMARK    4  A    between atoms: C_22  and  O_19 
REMARK    5  A    between atoms: O_21  and  C_23 
REMARK    6  A    between atoms: C_23  and  C_22 
ROOT
ATOM      1  N   UNL d   1     -58.566 -98.795 -43.627  0.00  0.00    -0.254 N 
ATOM      2  C   UNL d   1     -58.386 -98.777 -42.820  0.00  0.00     0.182 A 
ATOM      3  C   UNL d   1     -57.172 -98.797 -43.936  0.00  0.00     0.098 A 
ATOM      4  N   UNL d   1     -57.598 -98.769 -42.576  0.00  0.00    -0.222 NA
ATOM      5  C   UNL d   1     -57.962 -98.805 -44.188  0.00  0.00     0.081 A 
ATOM      6  C   UNL d   1     -56.988 -98.779 -43.130  0.00  0.00     0.090 A 
ATOM      7  C   UNL d   1     -59.354 -98.803 -43.871  0.00  0.00     0.267 A 
ATOM      8  S   UNL d   1     -58.987 -98.767 -42.259  0.00  0.00    -0.049 SA
ATOM      9  C   UNL d   1     -59.958 -98.793 -43.310  0.00  0.00     0.068 A 
ATOM     10  O   UNL d   1     -59.538 -98.821 -44.677  0.00  0.00    -0.267 OA
ATOM     11  C   UNL d   1     -59.775 -98.775 -42.503  0.00  0.00     0.043 A 
ATOM     12  C   UNL d   1     -56.203 -98.771 -42.880  0.00  0.00     0.021 C 
ENDROOT
BRANCH   3  13
ATOM     13  C   UNL d   1     -56.567 -98.806 -44.493  0.00  0.00     0.303 C 
ATOM     14  O   UNL d   1     -56.741 -98.834 -45.301  0.00  0.00    -0.259 OA
BRANCH  13  15
ATOM     15  O   UNL d   1     -55.779 -98.789 -44.249  0.00  0.00    -0.269 OA
BRANCH  15  16
ATOM     16  C   UNL d   1     -55.261 -99.402 -44.452  0.00  0.00     0.152 C 
BRANCH  16  17
ATOM     17  C   UNL d   1     -55.549-100.168 -44.575  0.00  0.00     0.143 C 
BRANCH  17  18
ATOM     18  O   UNL d   1     -55.147-100.681 -45.088  0.00  0.00    -0.324 OA
ATOM     19  C   UNL d   1     -54.857-101.401 -44.809  0.00  0.00     0.182 C 
ENDBRANCH  17  18
ENDBRANCH  16  17
ENDBRANCH  15  16
ENDBRANCH  13  15
ENDBRANCH   3  13
BRANCH   5  20
ATOM     20  C   UNL d   1     -58.145 -98.823 -44.994  0.00  0.00     0.046 A 
ATOM     21  S   UNL d   1     -57.671 -98.895 -45.666  0.00  0.00    -0.085 SA
ATOM     22  C   UNL d   1     -58.167 -98.878 -46.325  0.00  0.00     0.035 A 
ATOM     23  C   UNL d   1     -58.942 -98.796 -46.059  0.00  0.00     0.007 A 
ATOM     24  C   UNL d   1     -58.930 -98.762 -45.240  0.00  0.00     0.009 A 
ENDBRANCH   5  20
TORSDOF 6
ENDMDL
