MODEL 1
REMARK VINA RESULT:       5.3      0.000      0.000
REMARK  7 active torsions:
REMARK  status: ('A' for Active; 'I' for Inactive)
REMARK    1  A    between atoms: S_3  and  N_1 
REMARK    2  A    between atoms: C_18  and  S_3 
REMARK    3  A    between atoms: C_8  and  C_4 
REMARK    4  A    between atoms: S_5  and  N_9 
REMARK    5  A    between atoms: C_12  and  C_6 
REMARK    6  A    between atoms: N_9  and  C_19 
REMARK    7  A    between atoms: C_26  and  C_18 
ROOT
ATOM      1  N   UNL d   1     -41.878-122.992 -50.738  0.00  0.00    -0.152 N 
ATOM      2  N   UNL d   1     -41.463-122.834 -51.436  0.00  0.00    -0.155 NA
ATOM      3  C   UNL d   1     -42.686-122.941 -50.911  0.00  0.00     0.098 A 
ATOM      4  C   UNL d   1     -42.009-122.688 -52.034  0.00  0.00     0.104 A 
ATOM      5  C   UNL d   1     -42.763-122.755 -51.706  0.00  0.00     0.041 A 
ENDROOT
BRANCH   4   6
ATOM      6  C   UNL d   1     -41.836-122.509 -52.816  0.00  0.00     0.019 A 
ATOM      7  C   UNL d   1     -41.357-123.010 -53.250  0.00  0.00     0.003 A 
ATOM      8  C   UNL d   1     -41.182-122.830 -54.038  0.00  0.00     0.020 A 
ATOM      9  C   UNL d   1     -41.490-122.144 -54.385  0.00  0.00     0.093 A 
ATOM     10  C   UNL d   1     -41.971-121.644 -53.940  0.00  0.00     0.020 A 
ATOM     11  C   UNL d   1     -42.145-121.821 -53.161  0.00  0.00     0.003 A 
BRANCH   9  12
ATOM     12  N   UNL d   1     -41.310-121.972 -55.170  0.00  0.00    -0.162 NA
BRANCH  12  13
ATOM     13  S   UNL d   1     -41.900-121.787 -55.704  0.00  0.00     0.266 S 
ATOM     14  O   UNL d   1     -41.753-122.563 -55.949  0.00  0.00    -0.203 OA
ATOM     15  O   UNL d   1     -42.423-121.916 -56.331  0.00  0.00    -0.203 OA
ATOM     16  C   UNL d   1     -42.064-121.014 -55.480  0.00  0.00     0.165 C 
ENDBRANCH  12  13
ENDBRANCH   9  12
ENDBRANCH   4   6
BRANCH   1  17
ATOM     17  S   UNL d   1     -41.540-123.166 -50.007  0.00  0.00     0.287 S 
ATOM     18  O   UNL d   1     -41.586-123.748 -50.590  0.00  0.00    -0.198 OA
ATOM     19  O   UNL d   1     -41.176-123.700 -49.498  0.00  0.00    -0.198 OA
BRANCH  17  20
ATOM     20  C   UNL d   1     -41.524-122.547 -49.476  0.00  0.00     0.117 C 
BRANCH  20  21
ATOM     21  C   UNL d   1     -41.152-122.644 -48.745  0.00  0.00     0.014 C 
ATOM     22  C   UNL d   1     -41.218-122.054 -48.170  0.00  0.00     0.001 C 
ENDBRANCH  20  21
ENDBRANCH  17  20
ENDBRANCH   1  17
BRANCH   3  23
ATOM     23  C   UNL d   1     -43.293-123.057 -50.377  0.00  0.00     0.046 A 
ATOM     24  C   UNL d   1     -43.877-122.463 -50.305  0.00  0.00     0.142 A 
ATOM     25  F   UNL d   1     -43.830-121.782 -50.767  0.00  0.00    -0.204 F 
ATOM     26  C   UNL d   1     -44.499-122.572 -49.765  0.00  0.00     0.030 A 
ATOM     27  C   UNL d   1     -44.531-123.222 -49.333  0.00  0.00     0.002 A 
ATOM     28  C   UNL d   1     -43.947-123.816 -49.405  0.00  0.00     0.000 A 
ATOM     29  C   UNL d   1     -43.312-123.768 -49.918  0.00  0.00     0.004 A 
ENDBRANCH   3  23
TORSDOF 7
ENDMDL
