MODEL 1
REMARK VINA RESULT:      78.0      0.000      0.000
REMARK  5 active torsions:
REMARK  status: ('A' for Active; 'I' for Inactive)
REMARK    1  A    between atoms: S_2  and  C_1 
REMARK    2  A    between atoms: C_7  and  S_2 
REMARK    3  A    between atoms: N_8  and  C_5 
REMARK    4  A    between atoms: C_14  and  N_8 
REMARK    5  A    between atoms: O_23  and  C_15 
ROOT
ATOM      1  C   UNL d   1     -55.885-101.181 -43.179  0.00  0.00     0.187 A 
ATOM      2  N   UNL d   1     -55.808-101.562 -42.459  0.00  0.00    -0.208 NA
ATOM      3  C   UNL d   1     -55.231-101.343 -43.640  0.00  0.00     0.118 A 
ATOM      4  C   UNL d   1     -55.094-101.971 -42.464  0.00  0.00     0.196 A 
ATOM      5  S   UNL d   1     -54.731-101.842 -43.189  0.00  0.00    -0.035 SA
ATOM      6 CL   UNL d   1     -55.097-101.056 -44.419  0.00  0.00    -0.073 Cl
ENDROOT
BRANCH   1   7
ATOM      7  S   UNL d   1     -56.510-100.692 -43.456  0.00  0.00     0.228 S 
ATOM      8  O   UNL d   1     -55.934-100.131 -43.675  0.00  0.00    -0.216 OA
ATOM      9  O   UNL d   1     -57.063-101.267 -43.228  0.00  0.00    -0.216 OA
BRANCH   7  10
ATOM     10  C   UNL d   1     -57.115-100.217 -43.724  0.00  0.00     0.089 A 
ATOM     11  C   UNL d   1     -56.968 -99.453 -44.026  0.00  0.00     0.011 A 
ATOM     12  C   UNL d   1     -57.586 -98.981 -44.294  0.00  0.00     0.001 A 
ATOM     13  C   UNL d   1     -58.373 -99.252 -44.273  0.00  0.00     0.000 A 
ATOM     14  C   UNL d   1     -58.520-100.022 -43.969  0.00  0.00     0.001 A 
ATOM     15  C   UNL d   1     -58.991 -98.784 -44.540  0.00  0.00     0.000 C 
ATOM     16  C   UNL d   1     -57.914-100.494 -43.702  0.00  0.00     0.011 A 
ENDBRANCH   7  10
ENDBRANCH   1   7
BRANCH   4  17
ATOM     17  N   UNL d   1     -54.714-102.450 -41.908  0.00  0.00    -0.221 NA
BRANCH  17  18
ATOM     18  C   UNL d   1     -54.754-102.262 -41.107  0.00  0.00     0.084 A 
ATOM     19  C   UNL d   1     -54.716-102.866 -40.542  0.00  0.00     0.021 A 
ATOM     20  C   UNL d   1     -54.755-102.693 -39.746  0.00  0.00     0.026 A 
ATOM     21  C   UNL d   1     -54.832-101.912 -39.507  0.00  0.00     0.094 A 
ATOM     22  C   UNL d   1     -54.871-101.298 -40.076  0.00  0.00     0.026 A 
ATOM     23  C   UNL d   1     -54.831-101.478 -40.865  0.00  0.00     0.021 A 
BRANCH  21  24
ATOM     24  O   UNL d   1     -54.871-101.736 -38.705  0.00  0.00    -0.328 OA
ATOM     25  C   UNL d   1     -54.955-102.358 -38.157  0.00  0.00     0.181 C 
ENDBRANCH  21  24
ENDBRANCH  17  18
ENDBRANCH   4  17
TORSDOF 5
ENDMDL
