MODEL 1
REMARK VINA RESULT:      -5.7      0.000      0.000
REMARK  6 active torsions:
REMARK  status: ('A' for Active; 'I' for Inactive)
REMARK    1  A    between atoms: C_3  and  C_1 
REMARK    2  A    between atoms: C_2  and  C_4 
REMARK    3  A    between atoms: C_9  and  C_3 
REMARK    4  A    between atoms: C_4  and  C_10 
REMARK    5  A    between atoms: C_17  and  C_9 
REMARK    6  A    between atoms: C_10  and  C_17 
ROOT
ATOM      1  C   UNL d   1     -48.140  11.901  23.325  0.00  0.00     0.006 C 
ATOM      2  C   UNL d   1     -47.987  11.104  23.566  0.00  0.00     0.000 C 
ENDROOT
BRANCH   1   3
ATOM      3  C   UNL d   1     -47.568  12.281  22.869  0.00  0.00     0.043 C 
BRANCH   3   4
ATOM      4  C   UNL d   1     -46.805  12.401  23.143  0.00  0.00     0.202 C 
ATOM      5  O   UNL d   1     -46.449  11.881  23.696  0.00  0.00    -0.286 OA
BRANCH   4   6
ATOM      6  C   UNL d   1     -46.363  13.045  22.878  0.00  0.00     0.068 A 
ATOM      7  S   UNL d   1     -45.725  12.967  22.355  0.00  0.00    -0.083 SA
ATOM      8  C   UNL d   1     -45.406  13.705  22.201  0.00  0.00     0.035 A 
ATOM      9  C   UNL d   1     -45.850  14.259  22.636  0.00  0.00     0.008 A 
ATOM     10  C   UNL d   1     -46.429  13.846  23.043  0.00  0.00     0.010 A 
ENDBRANCH   4   6
ENDBRANCH   3   4
ENDBRANCH   1   3
BRANCH   1  11
ATOM     11  C   UNL d   1     -48.832  12.289  23.536  0.00  0.00     0.043 C 
BRANCH  11  12
ATOM     12  C   UNL d   1     -49.558  12.116  23.124  0.00  0.00     0.202 C 
ATOM     13  O   UNL d   1     -49.675  11.376  22.798  0.00  0.00    -0.286 OA
BRANCH  12  14
ATOM     14  C   UNL d   1     -50.146  12.711  23.060  0.00  0.00     0.068 A 
ATOM     15  S   UNL d   1     -50.514  12.972  22.340  0.00  0.00    -0.083 SA
ATOM     16  C   UNL d   1     -51.053  13.560  22.533  0.00  0.00     0.035 A 
ATOM     17  C   UNL d   1     -51.032  13.673  23.356  0.00  0.00     0.008 A 
ATOM     18  C   UNL d   1     -50.486  13.162  23.671  0.00  0.00     0.010 A 
ENDBRANCH  12  14
ENDBRANCH  11  12
ENDBRANCH   1  11
TORSDOF 6
ENDMDL
MODEL 2
REMARK VINA RESULT:      -5.7      1.462      2.131
REMARK  6 active torsions:
REMARK  status: ('A' for Active; 'I' for Inactive)
REMARK    1  A    between atoms: C_3  and  C_1 
REMARK    2  A    between atoms: C_2  and  C_4 
REMARK    3  A    between atoms: C_9  and  C_3 
REMARK    4  A    between atoms: C_4  and  C_10 
REMARK    5  A    between atoms: C_17  and  C_9 
REMARK    6  A    between atoms: C_10  and  C_17 
ROOT
ATOM      1  C   UNL d   1     -49.280  12.597  22.781  0.00  0.00     0.006 C 
ATOM      2  C   UNL d   1     -49.583  12.060  22.201  0.00  0.00     0.000 C 
ENDROOT
BRANCH   1   3
ATOM      3  C   UNL d   1     -48.492  12.513  23.009  0.00  0.00     0.043 C 
BRANCH   3   4
ATOM      4  C   UNL d   1     -48.217  11.833  23.373  0.00  0.00     0.202 C 
ATOM      5  O   UNL d   1     -48.739  11.229  23.629  0.00  0.00    -0.286 OA
BRANCH   4   6
ATOM      6  C   UNL d   1     -47.409  11.724  23.497  0.00  0.00     0.068 A 
ATOM      7  S   UNL d   1     -46.876  12.354  23.572  0.00  0.00    -0.083 SA
ATOM      8  C   UNL d   1     -46.121  12.061  23.690  0.00  0.00     0.035 A 
ATOM      9  C   UNL d   1     -46.177  11.231  23.690  0.00  0.00     0.008 A 
ATOM     10  C   UNL d   1     -46.965  11.037  23.572  0.00  0.00     0.010 A 
ENDBRANCH   4   6
ENDBRANCH   3   4
ENDBRANCH   1   3
BRANCH   1  11
ATOM     11  C   UNL d   1     -49.750  13.184  23.110  0.00  0.00     0.043 C 
BRANCH  11  12
ATOM     12  C   UNL d   1     -50.028  13.828  22.625  0.00  0.00     0.202 C 
ATOM     13  O   UNL d   1     -50.057  13.744  21.813  0.00  0.00    -0.286 OA
BRANCH  12  14
ATOM     14  C   UNL d   1     -50.269  14.544  22.992  0.00  0.00     0.068 A 
ATOM     15  S   UNL d   1     -51.010  14.676  23.386  0.00  0.00    -0.083 SA
ATOM     16  C   UNL d   1     -51.013  15.449  23.661  0.00  0.00     0.035 A 
ATOM     17  C   UNL d   1     -50.292  15.803  23.449  0.00  0.00     0.008 A 
ATOM     18  C   UNL d   1     -49.846  15.257  23.047  0.00  0.00     0.010 A 
ENDBRANCH  12  14
ENDBRANCH  11  12
ENDBRANCH   1  11
TORSDOF 6
ENDMDL
MODEL 3
REMARK VINA RESULT:      -5.6      1.211      4.004
REMARK  6 active torsions:
REMARK  status: ('A' for Active; 'I' for Inactive)
REMARK    1  A    between atoms: C_3  and  C_1 
REMARK    2  A    between atoms: C_2  and  C_4 
REMARK    3  A    between atoms: C_9  and  C_3 
REMARK    4  A    between atoms: C_4  and  C_10 
REMARK    5  A    between atoms: C_17  and  C_9 
REMARK    6  A    between atoms: C_10  and  C_17 
ROOT
ATOM      1  C   UNL d   1     -48.630  12.821  23.115  0.00  0.00     0.006 C 
ATOM      2  C   UNL d   1     -48.915  12.037  23.265  0.00  0.00     0.000 C 
ENDROOT
BRANCH   1   3
ATOM      3  C   UNL d   1     -49.078  13.453  23.397  0.00  0.00     0.043 C 
BRANCH   3   4
ATOM      4  C   UNL d   1     -49.714  13.752  22.977  0.00  0.00     0.202 C 
ATOM      5  O   UNL d   1     -50.023  13.359  22.304  0.00  0.00    -0.286 OA
BRANCH   4   6
ATOM      6  C   UNL d   1     -50.072  14.459  23.210  0.00  0.00     0.068 A 
ATOM      7  S   UNL d   1     -50.887  14.528  23.343  0.00  0.00    -0.083 SA
ATOM      8  C   UNL d   1     -51.063  15.295  23.566  0.00  0.00     0.035 A 
ATOM      9  C   UNL d   1     -50.348  15.719  23.574  0.00  0.00     0.008 A 
ATOM     10  C   UNL d   1     -49.751  15.200  23.356  0.00  0.00     0.010 A 
ENDBRANCH   4   6
ENDBRANCH   3   4
ENDBRANCH   1   3
BRANCH   1  11
ATOM     11  C   UNL d   1     -47.931  12.953  22.704  0.00  0.00     0.043 C 
BRANCH  11  12
ATOM     12  C   UNL d   1     -47.187  12.717  23.045  0.00  0.00     0.202 C 
ATOM     13  O   UNL d   1     -47.173  12.196  23.674  0.00  0.00    -0.286 OA
BRANCH  12  14
ATOM     14  C   UNL d   1     -46.474  13.025  22.726  0.00  0.00     0.068 A 
ATOM     15  S   UNL d   1     -45.900  12.588  22.276  0.00  0.00    -0.083 SA
ATOM     16  C   UNL d   1     -45.293  13.102  22.077  0.00  0.00     0.035 A 
ATOM     17  C   UNL d   1     -45.473  13.851  22.392  0.00  0.00     0.008 A 
ATOM     18  C   UNL d   1     -46.183  13.801  22.781  0.00  0.00     0.010 A 
ENDBRANCH  12  14
ENDBRANCH  11  12
ENDBRANCH   1  11
TORSDOF 6
ENDMDL
MODEL 4
REMARK VINA RESULT:      -5.0      8.223      9.466
REMARK  6 active torsions:
REMARK  status: ('A' for Active; 'I' for Inactive)
REMARK    1  A    between atoms: C_3  and  C_1 
REMARK    2  A    between atoms: C_2  and  C_4 
REMARK    3  A    between atoms: C_9  and  C_3 
REMARK    4  A    between atoms: C_4  and  C_10 
REMARK    5  A    between atoms: C_17  and  C_9 
REMARK    6  A    between atoms: C_10  and  C_17 
ROOT
ATOM      1  C   UNL d   1     -40.542  14.513  20.070  0.00  0.00     0.006 C 
ATOM      2  C   UNL d   1     -41.351  14.415  20.302  0.00  0.00     0.000 C 
ENDROOT
BRANCH   1   3
ATOM      3  C   UNL d   1     -39.959  14.285  20.605  0.00  0.00     0.043 C 
BRANCH   3   4
ATOM      4  C   UNL d   1     -39.843  14.680  21.313  0.00  0.00     0.202 C 
ATOM      5  O   UNL d   1     -40.258  15.385  21.497  0.00  0.00    -0.286 OA
BRANCH   4   6
ATOM      6  C   UNL d   1     -39.307  14.391  21.870  0.00  0.00     0.068 A 
ATOM      7  S   UNL d   1     -38.805  14.882  22.308  0.00  0.00    -0.083 SA
ATOM      8  C   UNL d   1     -38.345  14.426  22.809  0.00  0.00     0.035 A 
ATOM      9  C   UNL d   1     -38.560  13.632  22.685  0.00  0.00     0.008 A 
ATOM     10  C   UNL d   1     -39.147  13.623  22.111  0.00  0.00     0.010 A 
ENDBRANCH   4   6
ENDBRANCH   3   4
ENDBRANCH   1   3
BRANCH   1  11
ATOM     11  C   UNL d   1     -40.340  14.823  19.337  0.00  0.00     0.043 C 
BRANCH  11  12
ATOM     12  C   UNL d   1     -40.586  14.425  18.624  0.00  0.00     0.202 C 
ATOM     13  O   UNL d   1     -41.007  13.726  18.672  0.00  0.00    -0.286 OA
BRANCH  12  14
ATOM     14  C   UNL d   1     -40.389  14.758  17.880  0.00  0.00     0.068 A 
ATOM     15  S   UNL d   1     -39.720  14.546  17.401  0.00  0.00    -0.083 SA
ATOM     16  C   UNL d   1     -39.741  15.007  16.722  0.00  0.00     0.035 A 
ATOM     17  C   UNL d   1     -40.408  15.501  16.765  0.00  0.00     0.008 A 
ATOM     18  C   UNL d   1     -40.796  15.350  17.461  0.00  0.00     0.010 A 
ENDBRANCH  12  14
ENDBRANCH  11  12
ENDBRANCH   1  11
TORSDOF 6
ENDMDL
MODEL 5
REMARK VINA RESULT:      -5.0      8.308      9.796
REMARK  6 active torsions:
REMARK  status: ('A' for Active; 'I' for Inactive)
REMARK    1  A    between atoms: C_3  and  C_1 
REMARK    2  A    between atoms: C_2  and  C_4 
REMARK    3  A    between atoms: C_9  and  C_3 
REMARK    4  A    between atoms: C_4  and  C_10 
REMARK    5  A    between atoms: C_17  and  C_9 
REMARK    6  A    between atoms: C_10  and  C_17 
ROOT
ATOM      1  C   UNL d   1     -40.412  14.438  19.925  0.00  0.00     0.006 C 
ATOM      2  C   UNL d   1     -41.197  14.403  20.240  0.00  0.00     0.000 C 
ENDROOT
BRANCH   1   3
ATOM      3  C   UNL d   1     -40.298  14.849  19.220  0.00  0.00     0.043 C 
BRANCH   3   4
ATOM      4  C   UNL d   1     -40.570  14.561  18.503  0.00  0.00     0.202 C 
ATOM      5  O   UNL d   1     -40.935  13.808  18.440  0.00  0.00    -0.286 OA
BRANCH   4   6
ATOM      6  C   UNL d   1     -40.489  15.009  17.815  0.00  0.00     0.068 A 
ATOM      7  S   UNL d   1     -39.915  14.852  17.240  0.00  0.00    -0.083 SA
ATOM      8  C   UNL d   1     -39.981  15.394  16.631  0.00  0.00     0.035 A 
ATOM      9  C   UNL d   1     -40.610  15.904  16.824  0.00  0.00     0.008 A 
ATOM     10  C   UNL d   1     -40.912  15.660  17.547  0.00  0.00     0.010 A 
ENDBRANCH   4   6
ENDBRANCH   3   4
ENDBRANCH   1   3
BRANCH   1  11
ATOM     11  C   UNL d   1     -39.780  14.077  20.305  0.00  0.00     0.043 C 
BRANCH  11  12
ATOM     12  C   UNL d   1     -39.569  14.312  21.097  0.00  0.00     0.202 C 
ATOM     13  O   UNL d   1     -39.915  14.972  21.432  0.00  0.00    -0.286 OA
BRANCH  12  14
ATOM     14  C   UNL d   1     -39.006  13.859  21.523  0.00  0.00     0.068 A 
ATOM     15  S   UNL d   1     -39.031  13.688  22.356  0.00  0.00    -0.083 SA
ATOM     16  C   UNL d   1     -38.375  13.231  22.538  0.00  0.00     0.035 A 
ATOM     17  C   UNL d   1     -37.940  13.111  21.840  0.00  0.00     0.008 A 
ATOM     18  C   UNL d   1     -38.321  13.489  21.232  0.00  0.00     0.010 A 
ENDBRANCH  12  14
ENDBRANCH  11  12
ENDBRANCH   1  11
TORSDOF 6
ENDMDL
