MODEL 1
REMARK VINA RESULT:      11.6      0.000      0.000
REMARK  6 active torsions:
REMARK  status: ('A' for Active; 'I' for Inactive)
REMARK    1  A    between atoms: C_7  and  C_1 
REMARK    2  A    between atoms: N_5  and  C_3 
REMARK       I    between atoms: C_9  and  N_5 
REMARK    3  A    between atoms: C_8  and  S_11 
REMARK    4  A    between atoms: C_13  and  C_9 
REMARK    5  A    between atoms: S_11  and  C_13 
REMARK    6  A    between atoms: O_17  and  C_14 
ROOT
ATOM      1  C   UNL d   1      45.440 -14.441  44.637  0.00  0.00     0.137 A 
ATOM      2  S   UNL d   1      45.956 -15.091  44.677  0.00  0.00    -0.026 SA
ATOM      3  C   UNL d   1      45.504 -15.777  44.766  0.00  0.00     0.219 A 
ATOM      4  N   UNL d   1      44.663 -14.732  44.702  0.00  0.00    -0.139 NA
ATOM      5  N   UNL d   1      44.702 -15.557  44.782  0.00  0.00    -0.121 NA
ENDROOT
BRANCH   3   6
ATOM      6  N   UNL d   1      45.791 -16.548  44.828  0.00  0.00    -0.181 NA
ATOM      7  C   UNL d   1      45.975 -16.987  44.148  0.00  0.00     0.287 C 
ATOM      8  O   UNL d   1      45.868 -16.645  43.403  0.00  0.00    -0.265 OA
BRANCH   7   9
ATOM      9  C   UNL d   1      46.264 -17.761  44.218  0.00  0.00     0.089 C 
ATOM     10  C   UNL d   1      46.269 -18.133  44.955  0.00  0.00     0.012 C 
BRANCH   9  11
ATOM     11  S   UNL d   1      46.547 -18.154  43.542  0.00  0.00    -0.057 SA
BRANCH  11  12
ATOM     12  C   UNL d   1      46.438 -18.971  43.479  0.00  0.00     0.141 A 
ATOM     13  N   UNL d   1      46.621 -19.548  44.052  0.00  0.00    -0.230 NA
ATOM     14  C   UNL d   1      46.418 -20.292  43.749  0.00  0.00     0.107 A 
ATOM     15  C   UNL d   1      46.108 -20.185  42.984  0.00  0.00     0.058 A 
ATOM     16  S   UNL d   1      46.119 -19.369  42.816  0.00  0.00    -0.059 SA
ENDBRANCH  11  12
ENDBRANCH   9  11
ENDBRANCH   7   9
ENDBRANCH   3   6
BRANCH   1  17
ATOM     17  C   UNL d   1      45.653 -13.644  44.548  0.00  0.00     0.048 A 
ATOM     18  C   UNL d   1      45.223 -13.151  44.066  0.00  0.00     0.096 A 
ATOM     19  C   UNL d   1      45.436 -12.370  43.982  0.00  0.00     0.024 A 
ATOM     20  C   UNL d   1      46.088 -12.099  44.393  0.00  0.00     0.002 A 
ATOM     21  C   UNL d   1      46.518 -12.572  44.869  0.00  0.00     0.000 A 
ATOM     22  C   UNL d   1      46.305 -13.358  44.954  0.00  0.00     0.004 A 
BRANCH  18  23
ATOM     23  O   UNL d   1      44.578 -13.428  43.662  0.00  0.00    -0.328 OA
ATOM     24  C   UNL d   1      44.357 -12.925  42.902  0.00  0.00     0.181 C 
ENDBRANCH  18  23
ENDBRANCH   1  17
TORSDOF 6
ENDMDL
