MODEL 1
REMARK VINA RESULT:      -8.3      0.000      0.000
REMARK  3 active torsions:
REMARK  status: ('A' for Active; 'I' for Inactive)
REMARK    1  A    between atoms: C_6  and  C_2 
REMARK    2  A    between atoms: C_8  and  C_3 
REMARK    3  A    between atoms: C_7  and  C_6 
ROOT
ATOM      1  N   UNL d   1      53.173  33.266  53.600  0.00  0.00    -0.238 NA
ATOM      2  C   UNL d   1      53.746  32.684  53.706  0.00  0.00     0.113 A 
ATOM      3  C   UNL d   1      52.523  32.942  53.162  0.00  0.00     0.088 A 
ATOM      4  S   UNL d   1      53.461  32.000  53.339  0.00  0.00    -0.066 SA
ATOM      5  C   UNL d   1      52.736  32.134  53.010  0.00  0.00     0.056 A 
ENDROOT
BRANCH   3   6
ATOM      6  C   UNL d   1      51.864  33.377  52.964  0.00  0.00     0.018 A 
ATOM      7  C   UNL d   1      51.871  33.926  52.367  0.00  0.00     0.002 A 
ATOM      8  C   UNL d   1      51.212  34.360  52.170  0.00  0.00     0.011 A 
ATOM      9  C   UNL d   1      50.500  34.235  52.600  0.00  0.00     0.058 A 
ATOM     10  C   UNL d   1      50.480  33.683  53.208  0.00  0.00     0.011 A 
ATOM     11 CL   UNL d   1      49.815  34.662  52.423  0.00  0.00    -0.082 Cl
ATOM     12  C   UNL d   1      51.158  33.247  53.399  0.00  0.00     0.002 A 
ENDBRANCH   3   6
BRANCH   2  13
ATOM     13  C   UNL d   1      54.468  32.755  54.099  0.00  0.00     0.058 C 
BRANCH  13  14
ATOM     14  C   UNL d   1      54.496  33.048  54.862  0.00  0.00     0.159 C 
ATOM     15  S   UNL d   1      54.836  33.808  55.091  0.00  0.00    -0.055 SA
ATOM     16  N   UNL d   1      54.187  32.584  55.389  0.00  0.00    -0.136 N 
ENDBRANCH  13  14
ENDBRANCH   2  13
TORSDOF 3
ENDMDL
MODEL 2
REMARK VINA RESULT:      -8.2      2.557      3.673
REMARK  3 active torsions:
REMARK  status: ('A' for Active; 'I' for Inactive)
REMARK    1  A    between atoms: C_6  and  C_2 
REMARK    2  A    between atoms: C_8  and  C_3 
REMARK    3  A    between atoms: C_7  and  C_6 
ROOT
ATOM      1  N   UNL d   1      53.717  31.301  53.634  0.00  0.00    -0.238 NA
ATOM      2  C   UNL d   1      53.138  30.960  53.159  0.00  0.00     0.113 A 
ATOM      3  C   UNL d   1      53.595  32.139  53.666  0.00  0.00     0.088 A 
ATOM      4  S   UNL d   1      52.655  31.576  52.893  0.00  0.00    -0.066 SA
ATOM      5  C   UNL d   1      52.911  32.284  53.184  0.00  0.00     0.056 A 
ENDROOT
BRANCH   3   6
ATOM      6  C   UNL d   1      54.076  32.640  54.092  0.00  0.00     0.018 A 
ATOM      7  C   UNL d   1      54.726  32.998  53.764  0.00  0.00     0.002 A 
ATOM      8  C   UNL d   1      55.206  33.498  54.190  0.00  0.00     0.011 A 
ATOM      9  C   UNL d   1      55.021  33.648  54.997  0.00  0.00     0.058 A 
ATOM     10  C   UNL d   1      54.366  33.291  55.340  0.00  0.00     0.011 A 
ATOM     11 CL   UNL d   1      55.491  34.151  55.455  0.00  0.00    -0.082 Cl
ATOM     12  C   UNL d   1      53.885  32.784  54.896  0.00  0.00     0.002 A 
ENDBRANCH   3   6
BRANCH   2  13
ATOM     13  C   UNL d   1      53.045  30.161  52.975  0.00  0.00     0.058 C 
BRANCH  13  14
ATOM     14  C   UNL d   1      52.761  29.638  53.536  0.00  0.00     0.159 C 
ATOM     15  S   UNL d   1      53.247  29.187  54.089  0.00  0.00    -0.055 SA
ATOM     16  N   UNL d   1      51.997  29.568  53.541  0.00  0.00    -0.136 N 
ENDBRANCH  13  14
ENDBRANCH   2  13
TORSDOF 3
ENDMDL
MODEL 3
REMARK VINA RESULT:      -7.9      1.318      1.918
REMARK  3 active torsions:
REMARK  status: ('A' for Active; 'I' for Inactive)
REMARK    1  A    between atoms: C_6  and  C_2 
REMARK    2  A    between atoms: C_8  and  C_3 
REMARK    3  A    between atoms: C_7  and  C_6 
ROOT
ATOM      1  N   UNL d   1      52.678  31.964  52.946  0.00  0.00    -0.238 NA
ATOM      2  C   UNL d   1      53.356  31.622  53.264  0.00  0.00     0.113 A 
ATOM      3  C   UNL d   1      52.583  32.745  53.262  0.00  0.00     0.088 A 
ATOM      4  S   UNL d   1      53.686  32.181  53.777  0.00  0.00    -0.066 SA
ATOM      5  C   UNL d   1      53.240  32.855  53.789  0.00  0.00     0.056 A 
ENDROOT
BRANCH   3   6
ATOM      6  C   UNL d   1      51.963  33.232  53.057  0.00  0.00     0.018 A 
ATOM      7  C   UNL d   1      52.031  33.799  52.481  0.00  0.00     0.002 A 
ATOM      8  C   UNL d   1      51.412  34.286  52.277  0.00  0.00     0.011 A 
ATOM      9  C   UNL d   1      50.678  34.196  52.676  0.00  0.00     0.058 A 
ATOM     10  C   UNL d   1      50.596  33.626  53.262  0.00  0.00     0.011 A 
ATOM     11 CL   UNL d   1      50.031  34.676  52.490  0.00  0.00    -0.082 Cl
ATOM     12  C   UNL d   1      51.234  33.137  53.461  0.00  0.00     0.002 A 
ENDBRANCH   3   6
BRANCH   2  13
ATOM     13  C   UNL d   1      53.659  30.871  53.112  0.00  0.00     0.058 C 
BRANCH  13  14
ATOM     14  C   UNL d   1      53.224  30.203  53.299  0.00  0.00     0.159 C 
ATOM     15  S   UNL d   1      53.249  29.788  54.056  0.00  0.00    -0.055 SA
ATOM     16  N   UNL d   1      52.770  29.956  52.733  0.00  0.00    -0.136 N 
ENDBRANCH  13  14
ENDBRANCH   2  13
TORSDOF 3
ENDMDL
MODEL 4
REMARK VINA RESULT:      -7.5      2.341      3.671
REMARK  3 active torsions:
REMARK  status: ('A' for Active; 'I' for Inactive)
REMARK    1  A    between atoms: C_6  and  C_2 
REMARK    2  A    between atoms: C_8  and  C_3 
REMARK    3  A    between atoms: C_7  and  C_6 
ROOT
ATOM      1  N   UNL d   1      52.346  32.840  53.341  0.00  0.00    -0.238 NA
ATOM      2  C   UNL d   1      52.497  33.644  53.248  0.00  0.00     0.113 A 
ATOM      3  C   UNL d   1      53.080  32.416  53.345  0.00  0.00     0.088 A 
ATOM      4  S   UNL d   1      53.318  33.727  53.193  0.00  0.00    -0.066 SA
ATOM      5  C   UNL d   1      53.681  33.007  53.249  0.00  0.00     0.056 A 
ENDROOT
BRANCH   3   6
ATOM      6  C   UNL d   1      53.121  31.607  53.428  0.00  0.00     0.018 A 
ATOM      7  C   UNL d   1      52.796  31.099  52.886  0.00  0.00     0.002 A 
ATOM      8  C   UNL d   1      52.837  30.291  52.969  0.00  0.00     0.011 A 
ATOM      9  C   UNL d   1      53.232  29.972  53.640  0.00  0.00     0.058 A 
ATOM     10  C   UNL d   1      53.566  30.476  54.196  0.00  0.00     0.011 A 
ATOM     11 CL   UNL d   1      53.290  29.155  53.752  0.00  0.00    -0.082 Cl
ATOM     12  C   UNL d   1      53.517  31.297  54.100  0.00  0.00     0.002 A 
ENDBRANCH   3   6
BRANCH   2  13
ATOM     13  C   UNL d   1      51.948  34.259  53.214  0.00  0.00     0.058 C 
BRANCH  13  14
ATOM     14  C   UNL d   1      51.318  34.222  52.694  0.00  0.00     0.159 C 
ATOM     15  S   UNL d   1      50.496  34.077  52.915  0.00  0.00    -0.055 SA
ATOM     16  N   UNL d   1      51.511  34.330  51.959  0.00  0.00    -0.136 N 
ENDBRANCH  13  14
ENDBRANCH   2  13
TORSDOF 3
ENDMDL
MODEL 5
REMARK VINA RESULT:      -7.4      2.145      3.735
REMARK  3 active torsions:
REMARK  status: ('A' for Active; 'I' for Inactive)
REMARK    1  A    between atoms: C_6  and  C_2 
REMARK    2  A    between atoms: C_8  and  C_3 
REMARK    3  A    between atoms: C_7  and  C_6 
ROOT
ATOM      1  N   UNL d   1      52.341  33.312  53.570  0.00  0.00    -0.238 NA
ATOM      2  C   UNL d   1      51.812  32.913  53.082  0.00  0.00     0.113 A 
ATOM      3  C   UNL d   1      53.049  32.854  53.649  0.00  0.00     0.088 A 
ATOM      4  S   UNL d   1      52.182  32.209  52.855  0.00  0.00    -0.066 SA
ATOM      5  C   UNL d   1      52.919  32.157  53.183  0.00  0.00     0.056 A 
ENDROOT
BRANCH   3   6
ATOM      6  C   UNL d   1      53.684  33.097  54.098  0.00  0.00     0.018 A 
ATOM      7  C   UNL d   1      53.610  33.298  54.880  0.00  0.00     0.002 A 
ATOM      8  C   UNL d   1      54.244  33.540  55.328  0.00  0.00     0.011 A 
ATOM      9  C   UNL d   1      55.002  33.583  54.967  0.00  0.00     0.058 A 
ATOM     10  C   UNL d   1      55.091  33.382  54.176  0.00  0.00     0.011 A 
ATOM     11 CL   UNL d   1      55.666  33.826  55.397  0.00  0.00    -0.082 Cl
ATOM     12  C   UNL d   1      54.437  33.137  53.730  0.00  0.00     0.002 A 
ENDBRANCH   3   6
BRANCH   2  13
ATOM     13  C   UNL d   1      51.057  33.154  52.855  0.00  0.00     0.058 C 
BRANCH  13  14
ATOM     14  C   UNL d   1      50.921  33.929  52.629  0.00  0.00     0.159 C 
ATOM     15  S   UNL d   1      50.491  34.516  53.094  0.00  0.00    -0.055 SA
ATOM     16  N   UNL d   1      51.213  34.112  51.943  0.00  0.00    -0.136 N 
ENDBRANCH  13  14
ENDBRANCH   2  13
TORSDOF 3
ENDMDL
