MODEL 1
REMARK VINA RESULT:      -5.6      0.000      0.000
REMARK  5 active torsions:
REMARK  status: ('A' for Active; 'I' for Inactive)
REMARK    1  A    between atoms: N_4  and  C_1 
REMARK    2  A    between atoms: N_5  and  C_1 
REMARK       I    between atoms: C_2  and  N_3 
REMARK    3  A    between atoms: C_8  and  C_2 
REMARK    4  A    between atoms: N_3  and  N_4 
REMARK    5  A    between atoms: C_9  and  N_5 
ROOT
ATOM      1  N   UNL d   1      57.867  -0.496  30.831  0.00  0.00    -0.273 N 
ATOM      2  H   UNL d   1      57.941  -1.305  30.729  0.00  0.00     0.189 HD
ENDROOT
BRANCH   1   3
ATOM      3  N   UNL d   1      57.356  -0.189  31.412  0.00  0.00    -0.264 N 
ATOM      4  C   UNL d   1      56.823  -0.711  31.790  0.00  0.00     0.271 C 
ATOM      5  O   UNL d   1      56.794  -1.502  31.604  0.00  0.00    -0.266 OA
ATOM      6  H   UNL d   1      57.377   0.595  31.603  0.00  0.00     0.190 HD
BRANCH   4   7
ATOM      7  C   UNL d   1      56.302  -0.407  32.380  0.00  0.00     0.057 A 
ATOM      8  C   UNL d   1      56.105   0.391  32.392  0.00  0.00     0.005 A 
ATOM      9  C   UNL d   1      55.593   0.682  32.974  0.00  0.00     0.000 A 
ATOM     10  C   UNL d   1      55.279   0.175  33.544  0.00  0.00     0.000 A 
ATOM     11  C   UNL d   1      55.478  -0.619  33.527  0.00  0.00     0.000 A 
ATOM     12  C   UNL d   1      55.984  -0.921  32.957  0.00  0.00     0.005 A 
ENDBRANCH   4   7
ENDBRANCH   1   3
BRANCH   1  13
ATOM     13  C   UNL d   1      58.307   0.013  30.348  0.00  0.00     0.191 C 
ATOM     14  S   UNL d   1      58.743   0.629  30.681  0.00  0.00    -0.039 SA
BRANCH  13  15
ATOM     15  N   UNL d   1      58.306  -0.101  29.523  0.00  0.00    -0.331 N 
ATOM     16  H   UNL d   1      57.675   0.162  29.072  0.00  0.00     0.168 HD
BRANCH  15  17
ATOM     17  C   UNL d   1      58.945  -0.479  29.168  0.00  0.00     0.058 A 
ATOM     18  C   UNL d   1      59.620  -0.038  28.979  0.00  0.00     0.017 A 
ATOM     19  C   UNL d   1      60.264  -0.416  28.622  0.00  0.00     0.002 A 
ATOM     20  C   UNL d   1      60.234  -1.223  28.456  0.00  0.00     0.000 A 
ATOM     21  C   UNL d   1      59.544  -1.648  28.655  0.00  0.00     0.002 A 
ATOM     22  C   UNL d   1      58.915  -1.287  29.002  0.00  0.00     0.017 A 
ENDBRANCH  15  17
ENDBRANCH  13  15
ENDBRANCH   1  13
TORSDOF 5
ENDMDL
MODEL 2
REMARK VINA RESULT:      -4.5      1.237      4.947
REMARK  5 active torsions:
REMARK  status: ('A' for Active; 'I' for Inactive)
REMARK    1  A    between atoms: N_4  and  C_1 
REMARK    2  A    between atoms: N_5  and  C_1 
REMARK       I    between atoms: C_2  and  N_3 
REMARK    3  A    between atoms: C_8  and  C_2 
REMARK    4  A    between atoms: N_3  and  N_4 
REMARK    5  A    between atoms: C_9  and  N_5 
ROOT
ATOM      1  N   UNL d   1      57.033   0.030  31.395  0.00  0.00    -0.273 N 
ATOM      2  H   UNL d   1      56.530   0.563  31.031  0.00  0.00     0.189 HD
ENDROOT
BRANCH   1   3
ATOM      3  N   UNL d   1      57.728  -0.225  31.013  0.00  0.00    -0.264 N 
ATOM      4  C   UNL d   1      57.912   0.101  30.265  0.00  0.00     0.271 C 
ATOM      5  O   UNL d   1      57.434   0.654  29.908  0.00  0.00    -0.266 OA
ATOM      6  H   UNL d   1      58.209  -0.773  31.359  0.00  0.00     0.190 HD
BRANCH   4   7
ATOM      7  C   UNL d   1      58.614  -0.151  29.871  0.00  0.00     0.057 A 
ATOM      8  C   UNL d   1      59.330   0.230  30.007  0.00  0.00     0.005 A 
ATOM      9  C   UNL d   1      60.015  -0.023  29.617  0.00  0.00     0.000 A 
ATOM     10  C   UNL d   1      59.984  -0.658  29.091  0.00  0.00     0.000 A 
ATOM     11  C   UNL d   1      59.269  -1.035  28.959  0.00  0.00     0.000 A 
ATOM     12  C   UNL d   1      58.583  -0.795  29.339  0.00  0.00     0.005 A 
ENDBRANCH   4   7
ENDBRANCH   1   3
BRANCH   1  13
ATOM     13  C   UNL d   1      56.843  -0.254  32.149  0.00  0.00     0.191 C 
ATOM     14  S   UNL d   1      56.558  -1.022  32.246  0.00  0.00    -0.039 SA
BRANCH  13  15
ATOM     15  N   UNL d   1      56.940   0.243  32.811  0.00  0.00    -0.331 N 
ATOM     16  H   UNL d   1      57.670   0.580  32.968  0.00  0.00     0.168 HD
BRANCH  15  17
ATOM     17  C   UNL d   1      56.298   0.389  33.304  0.00  0.00     0.058 A 
ATOM     18  C   UNL d   1      55.547   0.484  32.969  0.00  0.00     0.017 A 
ATOM     19  C   UNL d   1      54.899   0.631  33.462  0.00  0.00     0.002 A 
ATOM     20  C   UNL d   1      55.000   0.682  34.279  0.00  0.00     0.000 A 
ATOM     21  C   UNL d   1      55.766   0.583  34.595  0.00  0.00     0.002 A 
ATOM     22  C   UNL d   1      56.399   0.440  34.121  0.00  0.00     0.017 A 
ENDBRANCH  15  17
ENDBRANCH  13  15
ENDBRANCH   1  13
TORSDOF 5
ENDMDL
MODEL 3
REMARK VINA RESULT:      -3.9      1.106      1.847
REMARK  5 active torsions:
REMARK  status: ('A' for Active; 'I' for Inactive)
REMARK    1  A    between atoms: N_4  and  C_1 
REMARK    2  A    between atoms: N_5  and  C_1 
REMARK       I    between atoms: C_2  and  N_3 
REMARK    3  A    between atoms: C_8  and  C_2 
REMARK    4  A    between atoms: N_3  and  N_4 
REMARK    5  A    between atoms: C_9  and  N_5 
ROOT
ATOM      1  N   UNL d   1      56.777  -0.171  32.039  0.00  0.00    -0.273 N 
ATOM      2  H   UNL d   1      56.689  -0.963  31.850  0.00  0.00     0.189 HD
ENDROOT
BRANCH   1   3
ATOM      3  N   UNL d   1      56.318   0.172  32.644  0.00  0.00    -0.264 N 
ATOM      4  C   UNL d   1      55.849  -0.329  33.121  0.00  0.00     0.271 C 
ATOM      5  O   UNL d   1      55.832  -1.135  33.009  0.00  0.00    -0.266 OA
ATOM      6  H   UNL d   1      56.328   0.970  32.762  0.00  0.00     0.190 HD
BRANCH   4   7
ATOM      7  C   UNL d   1      55.382   0.011  33.735  0.00  0.00     0.057 A 
ATOM      8  C   UNL d   1      54.568   0.088  33.647  0.00  0.00     0.005 A 
ATOM      9  C   UNL d   1      54.116   0.422  34.254  0.00  0.00     0.000 A 
ATOM     10  C   UNL d   1      54.478   0.681  34.949  0.00  0.00     0.000 A 
ATOM     11  C   UNL d   1      55.289   0.603  35.032  0.00  0.00     0.000 A 
ATOM     12  C   UNL d   1      55.749   0.273  34.439  0.00  0.00     0.005 A 
ENDBRANCH   4   7
ENDBRANCH   1   3
BRANCH   1  13
ATOM     13  C   UNL d   1      57.328   0.284  31.622  0.00  0.00     0.191 C 
ATOM     14  S   UNL d   1      57.929   0.682  32.023  0.00  0.00    -0.039 SA
BRANCH  13  15
ATOM     15  N   UNL d   1      57.272   0.338  30.792  0.00  0.00    -0.331 N 
ATOM     16  H   UNL d   1      56.591   0.631  30.444  0.00  0.00     0.168 HD
BRANCH  15  17
ATOM     17  C   UNL d   1      57.906   0.093  30.329  0.00  0.00     0.058 A 
ATOM     18  C   UNL d   1      57.943  -0.696  30.080  0.00  0.00     0.017 A 
ATOM     19  C   UNL d   1      58.579  -0.945  29.614  0.00  0.00     0.002 A 
ATOM     20  C   UNL d   1      59.172  -0.412  29.399  0.00  0.00     0.000 A 
ATOM     21  C   UNL d   1      59.115   0.378  29.661  0.00  0.00     0.002 A 
ATOM     22  C   UNL d   1      58.499   0.625  30.114  0.00  0.00     0.017 A 
ENDBRANCH  15  17
ENDBRANCH  13  15
ENDBRANCH   1  13
TORSDOF 5
ENDMDL
MODEL 4
REMARK VINA RESULT:      -2.6      9.489     10.168
REMARK  5 active torsions:
REMARK  status: ('A' for Active; 'I' for Inactive)
REMARK    1  A    between atoms: N_4  and  C_1 
REMARK    2  A    between atoms: N_5  and  C_1 
REMARK       I    between atoms: C_2  and  N_3 
REMARK    3  A    between atoms: C_8  and  C_2 
REMARK    4  A    between atoms: N_3  and  N_4 
REMARK    5  A    between atoms: C_9  and  N_5 
ROOT
ATOM      1  N   UNL d   1      59.143  -9.630  33.509  0.00  0.00    -0.273 N 
ATOM      2  H   UNL d   1      58.558  -9.618  34.083  0.00  0.00     0.189 HD
ENDROOT
BRANCH   1   3
ATOM      3  N   UNL d   1      58.942  -9.665  32.702  0.00  0.00    -0.264 N 
ATOM      4  C   UNL d   1      58.133  -9.705  32.495  0.00  0.00     0.271 C 
ATOM      5  O   UNL d   1      57.546  -9.711  33.057  0.00  0.00    -0.266 OA
ATOM      6  H   UNL d   1      59.517  -9.659  32.136  0.00  0.00     0.190 HD
BRANCH   4   7
ATOM      7  C   UNL d   1      57.921  -9.741  31.679  0.00  0.00     0.057 A 
ATOM      8  C   UNL d   1      58.501  -9.735  31.096  0.00  0.00     0.005 A 
ATOM      9  C   UNL d   1      58.286  -9.770  30.297  0.00  0.00     0.000 A 
ATOM     10  C   UNL d   1      57.491  -9.811  30.082  0.00  0.00     0.000 A 
ATOM     11  C   UNL d   1      56.917  -9.816  30.665  0.00  0.00     0.000 A 
ATOM     12  C   UNL d   1      57.115  -9.782  31.460  0.00  0.00     0.005 A 
ENDBRANCH   4   7
ENDBRANCH   1   3
BRANCH   1  13
ATOM     13  C   UNL d   1      59.936  -9.608  33.743  0.00  0.00     0.191 C 
ATOM     14  S   UNL d   1      60.522  -9.379  33.208  0.00  0.00    -0.039 SA
BRANCH  13  15
ATOM     15  N   UNL d   1      60.141  -9.818  34.523  0.00  0.00    -0.331 N 
ATOM     16  H   UNL d   1      60.364 -10.587  34.696  0.00  0.00     0.168 HD
BRANCH  15  17
ATOM     17  C   UNL d   1      60.118  -9.246  35.113  0.00  0.00     0.058 A 
ATOM     18  C   UNL d   1      59.522  -9.283  35.687  0.00  0.00     0.017 A 
ATOM     19  C   UNL d   1      59.496  -8.709  36.283  0.00  0.00     0.002 A 
ATOM     20  C   UNL d   1      60.058  -8.106  36.305  0.00  0.00     0.000 A 
ATOM     21  C   UNL d   1      60.650  -8.087  35.716  0.00  0.00     0.002 A 
ATOM     22  C   UNL d   1      60.680  -8.642  35.135  0.00  0.00     0.017 A 
ENDBRANCH  15  17
ENDBRANCH  13  15
ENDBRANCH   1  13
TORSDOF 5
ENDMDL
