MODEL 1
REMARK VINA RESULT:      33.4      0.000      0.000
REMARK  2 active torsions:
REMARK  status: ('A' for Active; 'I' for Inactive)
REMARK    1  A    between atoms: C_10  and  N_1 
REMARK    2  A    between atoms: C_11  and  C_10 
ROOT
ATOM      1  N   UNL d   1     -56.650 -98.842 -44.526  0.00  0.00    -0.187 N 
ATOM      2  N   UNL d   1     -57.056 -98.835 -45.371  0.00  0.00    -0.162 NA
ATOM      3  C   UNL d   1     -57.930 -98.811 -45.489  0.00  0.00     0.102 A 
ATOM      4  C   UNL d   1     -58.285 -98.797 -44.747  0.00  0.00     0.024 A 
ATOM      5  C   UNL d   1     -57.156 -98.825 -43.873  0.00  0.00     0.281 A 
ATOM      6  C   UNL d   1     -57.973 -98.802 -43.984  0.00  0.00     0.059 A 
ATOM      7  C   UNL d   1     -59.109 -98.775 -44.859  0.00  0.00     0.002 A 
ATOM      8  C   UNL d   1     -58.529 -98.797 -46.054  0.00  0.00     0.019 A 
ATOM      9  C   UNL d   1     -59.255 -98.775 -45.669  0.00  0.00     0.002 A 
ATOM     10  O   UNL d   1     -56.832 -98.830 -43.098  0.00  0.00    -0.265 OA
ATOM     11  C   UNL d   1     -58.477 -98.785 -43.325  0.00  0.00     0.005 A 
ATOM     12  C   UNL d   1     -59.610 -98.758 -44.205  0.00  0.00     0.000 A 
ATOM     13  C   UNL d   1     -58.507 -98.802 -46.878  0.00  0.00     0.002 A 
ATOM     14  C   UNL d   1     -59.961 -98.757 -46.099  0.00  0.00     0.000 A 
ATOM     15  C   UNL d   1     -59.302 -98.762 -43.437  0.00  0.00     0.000 A 
ATOM     16  C   UNL d   1     -59.931 -98.762 -46.923  0.00  0.00     0.000 A 
ATOM     17  C   UNL d   1     -59.210 -98.785 -47.317  0.00  0.00     0.000 A 
ENDROOT
BRANCH   1  18
ATOM     18  C   UNL d   1     -55.875 -98.862 -44.222  0.00  0.00     0.174 C 
BRANCH  18  19
ATOM     19  C   UNL d   1     -55.262 -99.221 -44.653  0.00  0.00     0.231 C 
ATOM     20  O   UNL d   1     -54.721 -98.756 -45.049  0.00  0.00    -0.643 OA
ATOM     21  O   UNL d   1     -54.927 -99.920 -44.878  0.00  0.00    -0.643 OA
ENDBRANCH  18  19
ENDBRANCH   1  18
TORSDOF 2
ENDMDL
