MODEL 1
REMARK VINA RESULT:     -10.3      0.000      0.000
REMARK  7 active torsions:
REMARK  status: ('A' for Active; 'I' for Inactive)
REMARK    1  A    between atoms: C_21  and  C_3 
REMARK    2  A    between atoms: S_17  and  C_5 
REMARK    3  A    between atoms: C_11  and  C_16 
REMARK       I    between atoms: N_14  and  C_11 
REMARK    4  A    between atoms: C_19  and  N_14 
REMARK    5  A    between atoms: C_16  and  C_20 
REMARK    6  A    between atoms: C_20  and  S_17 
REMARK    7  A    between atoms: O_27  and  C_22 
ROOT
ATOM      1  C   UNL d   1      52.812  34.001  53.637  0.00  0.00     0.092 A 
ATOM      2  C   UNL d   1      53.281  32.650  53.693  0.00  0.00     0.057 A 
ATOM      3  C   UNL d   1      53.359  33.440  53.906  0.00  0.00     0.016 A 
ATOM      4  N   UNL d   1      52.111  32.966  52.941  0.00  0.00    -0.239 NA
ATOM      5  C   UNL d   1      52.187  33.763  53.154  0.00  0.00     0.120 A 
ATOM      6  C   UNL d   1      52.657  32.413  53.210  0.00  0.00     0.081 A 
ATOM      7  C   UNL d   1      53.826  32.097  53.961  0.00  0.00     0.193 A 
ATOM      8  C   UNL d   1      52.892  34.796  53.852  0.00  0.00     0.103 C 
ATOM      9  N   UNL d   1      52.978  35.597  54.072  0.00  0.00    -0.191 NA
ATOM     10  C   UNL d   1      53.124  31.067  53.266  0.00  0.00     0.042 A 
ATOM     11  C   UNL d   1      53.749  31.304  53.749  0.00  0.00     0.019 A 
ATOM     12  C   UNL d   1      52.578  31.623  52.997  0.00  0.00    -0.003 A 
ATOM     13  O   UNL d   1      54.450  32.334  54.444  0.00  0.00    -0.287 OA
ATOM     14  C   UNL d   1      52.625  30.575  52.819  0.00  0.00     0.009 C 
ATOM     15  C   UNL d   1      53.667  30.503  53.531  0.00  0.00     0.009 C 
ENDROOT
BRANCH   3  16
ATOM     16  C   UNL d   1      53.983  33.677  54.388  0.00  0.00     0.001 C 
ATOM     17  C   UNL d   1      53.900  33.662  55.206  0.00  0.00     0.000 C 
ENDBRANCH   3  16
BRANCH   5  18
ATOM     18  S   UNL d   1      51.640  34.321  52.884  0.00  0.00    -0.067 SA
BRANCH  18  19
ATOM     19  C   UNL d   1      50.844  34.119  52.832  0.00  0.00     0.042 C 
BRANCH  19  20
ATOM     20  C   UNL d   1      50.377  34.433  52.222  0.00  0.00     0.070 C 
BRANCH  20  21
ATOM     21  C   UNL d   1      49.613  34.714  52.394  0.00  0.00     0.280 C 
ATOM     22  N   UNL d   1      49.197  35.144  51.819  0.00  0.00    -0.208 NA
ATOM     23  O   UNL d   1      49.271  34.569  53.128  0.00  0.00    -0.265 OA
BRANCH  22  24
ATOM     24  C   UNL d   1      48.434  35.425  51.990  0.00  0.00     0.085 A 
ATOM     25  C   UNL d   1      48.312  35.942  52.619  0.00  0.00     0.021 A 
ATOM     26  C   UNL d   1      47.554  36.216  52.782  0.00  0.00     0.026 A 
ATOM     27  C   UNL d   1      46.908  35.980  52.322  0.00  0.00     0.094 A 
ATOM     28  C   UNL d   1      47.030  35.463  51.694  0.00  0.00     0.026 A 
ATOM     29  C   UNL d   1      47.794  35.181  51.522  0.00  0.00     0.021 A 
BRANCH  27  30
ATOM     30  O   UNL d   1      46.136  36.263  52.492  0.00  0.00    -0.328 OA
ATOM     31  C   UNL d   1      45.628  35.812  52.969  0.00  0.00     0.181 C 
ENDBRANCH  27  30
ENDBRANCH  22  24
ENDBRANCH  20  21
ENDBRANCH  19  20
ENDBRANCH  18  19
ENDBRANCH   5  18
TORSDOF 7
ENDMDL
MODEL 2
REMARK VINA RESULT:      -8.4      0.721      2.135
REMARK  7 active torsions:
REMARK  status: ('A' for Active; 'I' for Inactive)
REMARK    1  A    between atoms: C_21  and  C_3 
REMARK    2  A    between atoms: S_17  and  C_5 
REMARK    3  A    between atoms: C_11  and  C_16 
REMARK       I    between atoms: N_14  and  C_11 
REMARK    4  A    between atoms: C_19  and  N_14 
REMARK    5  A    between atoms: C_16  and  C_20 
REMARK    6  A    between atoms: C_20  and  S_17 
REMARK    7  A    between atoms: O_27  and  C_22 
ROOT
ATOM      1  C   UNL d   1      52.722  32.457  53.217  0.00  0.00     0.092 A 
ATOM      2  C   UNL d   1      53.640  33.067  54.130  0.00  0.00     0.057 A 
ATOM      3  C   UNL d   1      53.418  32.426  53.666  0.00  0.00     0.016 A 
ATOM      4  N   UNL d   1      52.479  33.778  53.705  0.00  0.00    -0.239 NA
ATOM      5  C   UNL d   1      52.253  33.133  53.237  0.00  0.00     0.120 A 
ATOM      6  C   UNL d   1      53.170  33.744  54.149  0.00  0.00     0.081 A 
ATOM      7  C   UNL d   1      54.330  33.033  54.574  0.00  0.00     0.193 A 
ATOM      8  C   UNL d   1      52.500  31.809  52.751  0.00  0.00     0.103 C 
ATOM      9  N   UNL d   1      52.281  31.154  52.282  0.00  0.00    -0.191 NA
ATOM     10  C   UNL d   1      54.085  34.352  55.059  0.00  0.00     0.042 A 
ATOM     11  C   UNL d   1      54.555  33.676  55.039  0.00  0.00     0.019 A 
ATOM     12  C   UNL d   1      53.392  34.386  54.613  0.00  0.00    -0.003 A 
ATOM     13  O   UNL d   1      54.800  32.356  54.554  0.00  0.00    -0.287 OA
ATOM     14  C   UNL d   1      53.821  35.115  55.258  0.00  0.00     0.009 C 
ATOM     15  C   UNL d   1      54.777  34.328  55.508  0.00  0.00     0.009 C 
ENDROOT
BRANCH   3  16
ATOM     16  C   UNL d   1      53.887  31.749  53.647  0.00  0.00     0.001 C 
ATOM     17  C   UNL d   1      53.700  31.104  54.121  0.00  0.00     0.000 C 
ENDBRANCH   3  16
BRANCH   5  18
ATOM     18  S   UNL d   1      51.559  33.166  52.790  0.00  0.00    -0.067 SA
BRANCH  18  19
ATOM     19  C   UNL d   1      51.038  33.797  52.890  0.00  0.00     0.042 C 
BRANCH  19  20
ATOM     20  C   UNL d   1      50.531  34.016  52.271  0.00  0.00     0.070 C 
BRANCH  20  21
ATOM     21  C   UNL d   1      49.847  34.459  52.438  0.00  0.00     0.280 C 
ATOM     22  N   UNL d   1      49.366  34.719  51.815  0.00  0.00    -0.208 NA
ATOM     23  O   UNL d   1      49.648  34.639  53.216  0.00  0.00    -0.265 OA
BRANCH  22  24
ATOM     24  C   UNL d   1      48.683  35.162  51.982  0.00  0.00     0.085 A 
ATOM     25  C   UNL d   1      48.655  35.651  52.644  0.00  0.00     0.021 A 
ATOM     26  C   UNL d   1      47.975  36.086  52.803  0.00  0.00     0.026 A 
ATOM     27  C   UNL d   1      47.316  36.041  52.306  0.00  0.00     0.094 A 
ATOM     28  C   UNL d   1      47.344  35.552  51.644  0.00  0.00     0.026 A 
ATOM     29  C   UNL d   1      48.027  35.109  51.476  0.00  0.00     0.021 A 
BRANCH  27  30
ATOM     30  O   UNL d   1      46.624  36.487  52.471  0.00  0.00    -0.328 OA
ATOM     31  C   UNL d   1      45.944  36.104  52.752  0.00  0.00     0.181 C 
ENDBRANCH  27  30
ENDBRANCH  22  24
ENDBRANCH  20  21
ENDBRANCH  19  20
ENDBRANCH  18  19
ENDBRANCH   5  18
TORSDOF 7
ENDMDL
