MODEL 1
REMARK VINA RESULT:      30.7      0.000      0.000
REMARK  3 active torsions:
REMARK  status: ('A' for Active; 'I' for Inactive)
REMARK    1  A    between atoms: C_4  and  C_1 
REMARK    2  A    between atoms: N_7  and  C_4 
REMARK    3  A    between atoms: C_9  and  N_7 
ROOT
ATOM      1  C   UNL d   1      13.363  12.246  -3.422  0.00  0.00     0.159 C 
ATOM      2  S   UNL d   1      13.665  11.779  -4.032  0.00  0.00    -0.055 SA
ENDROOT
BRANCH   1   3
ATOM      3  C   UNL d   1      13.653  12.156  -2.655  0.00  0.00     0.139 A 
ATOM      4  N   UNL d   1      14.444  12.228  -2.427  0.00  0.00    -0.236 NA
ATOM      5  C   UNL d   1      14.486  12.094  -1.612  0.00  0.00     0.088 A 
ATOM      6  C   UNL d   1      15.118  12.092  -1.079  0.00  0.00     0.020 A 
ATOM      7  C   UNL d   1      13.718  11.939  -1.340  0.00  0.00     0.049 A 
ATOM      8  C   UNL d   1      14.987  11.937  -0.286  0.00  0.00     0.002 A 
ATOM      9  C   UNL d   1      14.219  11.782  -0.014  0.00  0.00     0.001 A 
ATOM     10  C   UNL d   1      13.590  11.783  -0.539  0.00  0.00     0.008 A 
ATOM     11  S   UNL d   1      13.208  11.978  -1.990  0.00  0.00    -0.064 SA
ENDBRANCH   1   3
BRANCH   1  12
ATOM     12  N   UNL d   1      12.776  12.801  -3.575  0.00  0.00    -0.233 NA
BRANCH  12  13
ATOM     13  C   UNL d   1      12.946  13.465  -4.042  0.00  0.00     0.082 A 
ATOM     14  C   UNL d   1      12.799  14.221  -3.751  0.00  0.00     0.020 A 
ATOM     15  C   UNL d   1      12.965  14.883  -4.206  0.00  0.00     0.013 A 
ATOM     16  C   UNL d   1      13.284  14.783  -4.968  0.00  0.00     0.058 A 
ATOM     17  C   UNL d   1      13.432  14.026  -5.263  0.00  0.00     0.013 A 
ATOM     18 CL   UNL d   1      13.452  15.440  -5.430  0.00  0.00    -0.082 Cl
ATOM     19  C   UNL d   1      13.260  13.370  -4.793  0.00  0.00     0.020 A 
ENDBRANCH  12  13
ENDBRANCH   1  12
TORSDOF 3
ENDMDL
