MODEL 1
REMARK VINA RESULT:      -8.6      0.000      0.000
REMARK  7 active torsions:
REMARK  status: ('A' for Active; 'I' for Inactive)
REMARK    1  A    between atoms: C_9  and  N_1 
REMARK    2  A    between atoms: O_18  and  C_6 
REMARK    3  A    between atoms: C_7  and  C_8 
REMARK    4  A    between atoms: C_8  and  O_12 
REMARK    5  A    between atoms: O_12  and  C_9 
REMARK    6  A    between atoms: O_20  and  C_10 
REMARK    7  A    between atoms: O_19  and  C_11 
ROOT
ATOM      1  C   UNL d   1      51.309  34.148  52.357  0.00  0.00     0.302 C 
ATOM      2  O   UNL d   1      51.433  34.151  51.540  0.00  0.00    -0.259 OA
ENDROOT
BRANCH   1   3
ATOM      3  C   UNL d   1      51.907  33.889  52.865  0.00  0.00     0.068 A 
ATOM      4  C   UNL d   1      52.316  34.447  53.346  0.00  0.00     0.032 A 
ATOM      5  C   UNL d   1      52.903  34.172  53.842  0.00  0.00     0.118 A 
ATOM      6  C   UNL d   1      53.099  33.374  53.880  0.00  0.00     0.138 A 
ATOM      7  C   UNL d   1      52.692  32.838  53.405  0.00  0.00     0.118 A 
ATOM      8  C   UNL d   1      52.098  33.097  52.900  0.00  0.00     0.032 A 
BRANCH   5   9
ATOM      9  O   UNL d   1      53.318  34.720  54.326  0.00  0.00    -0.326 OA
ATOM     10  C   UNL d   1      53.013  35.481  54.433  0.00  0.00     0.181 C 
ENDBRANCH   5   9
BRANCH   6  11
ATOM     11  O   UNL d   1      53.702  33.117  54.393  0.00  0.00    -0.324 OA
ATOM     12  C   UNL d   1      54.473  33.013  54.131  0.00  0.00     0.182 C 
ENDBRANCH   6  11
BRANCH   7  13
ATOM     13  O   UNL d   1      52.888  32.026  53.440  0.00  0.00    -0.326 OA
ATOM     14  C   UNL d   1      52.500  31.482  52.971  0.00  0.00     0.181 C 
ENDBRANCH   7  13
ENDBRANCH   1   3
BRANCH   1  15
ATOM     15  O   UNL d   1      50.589  34.405  52.668  0.00  0.00    -0.251 OA
BRANCH  15  16
ATOM     16  C   UNL d   1      49.947  34.534  52.165  0.00  0.00     0.233 C 
BRANCH  16  17
ATOM     17  N   UNL d   1      49.307  34.995  52.420  0.00  0.00    -0.150 N 
ATOM     18  N   UNL d   1      49.325  35.349  53.167  0.00  0.00    -0.055 NA
ATOM     19  N   UNL d   1      48.687  35.807  53.418  0.00  0.00    -0.130 NA
ATOM     20  C   UNL d   1      48.037  35.912  52.930  0.00  0.00     0.109 A 
ATOM     21  C   UNL d   1      48.020  35.558  52.183  0.00  0.00     0.077 A 
ATOM     22  C   UNL d   1      47.401  36.370  53.181  0.00  0.00     0.021 A 
ATOM     23  C   UNL d   1      48.652  35.095  51.916  0.00  0.00     0.285 A 
ATOM     24  C   UNL d   1      47.366  35.663  51.691  0.00  0.00     0.006 A 
ATOM     25  O   UNL d   1      48.634  34.744  51.176  0.00  0.00    -0.265 OA
ATOM     26  C   UNL d   1      46.729  36.121  51.943  0.00  0.00     0.000 A 
ATOM     27  C   UNL d   1      46.747  36.477  52.693  0.00  0.00     0.002 A 
ENDBRANCH  16  17
ENDBRANCH  15  16
ENDBRANCH   1  15
TORSDOF 7
ENDMDL
MODEL 2
REMARK VINA RESULT:      -8.6      0.023      1.509
REMARK  7 active torsions:
REMARK  status: ('A' for Active; 'I' for Inactive)
REMARK    1  A    between atoms: C_9  and  N_1 
REMARK    2  A    between atoms: O_18  and  C_6 
REMARK    3  A    between atoms: C_7  and  C_8 
REMARK    4  A    between atoms: C_8  and  O_12 
REMARK    5  A    between atoms: O_12  and  C_9 
REMARK    6  A    between atoms: O_20  and  C_10 
REMARK    7  A    between atoms: O_19  and  C_11 
ROOT
ATOM      1  C   UNL d   1      51.315  34.148  52.370  0.00  0.00     0.302 C 
ATOM      2  O   UNL d   1      51.444  34.149  51.554  0.00  0.00    -0.259 OA
ENDROOT
BRANCH   1   3
ATOM      3  C   UNL d   1      51.909  33.889  52.883  0.00  0.00     0.068 A 
ATOM      4  C   UNL d   1      52.109  33.071  52.908  0.00  0.00     0.032 A 
ATOM      5  C   UNL d   1      52.699  32.833  53.421  0.00  0.00     0.118 A 
ATOM      6  C   UNL d   1      53.094  33.369  53.904  0.00  0.00     0.138 A 
ATOM      7  C   UNL d   1      52.889  34.167  53.870  0.00  0.00     0.118 A 
ATOM      8  C   UNL d   1      52.298  34.423  53.360  0.00  0.00     0.032 A 
BRANCH   5   9
ATOM      9  O   UNL d   1      52.906  32.019  53.455  0.00  0.00    -0.326 OA
ATOM     10  C   UNL d   1      52.512  31.478  52.970  0.00  0.00     0.181 C 
ENDBRANCH   5   9
BRANCH   6  11
ATOM     11  O   UNL d   1      53.692  33.104  54.419  0.00  0.00    -0.324 OA
ATOM     12  C   UNL d   1      54.472  33.040  54.172  0.00  0.00     0.182 C 
ENDBRANCH   6  11
BRANCH   7  13
ATOM     13  O   UNL d   1      53.289  34.715  54.359  0.00  0.00    -0.326 OA
ATOM     14  C   UNL d   1      53.010  35.477  54.445  0.00  0.00     0.181 C 
ENDBRANCH   7  13
ENDBRANCH   1   3
BRANCH   1  15
ATOM     15  O   UNL d   1      50.593  34.405  52.676  0.00  0.00    -0.251 OA
BRANCH  15  16
ATOM     16  C   UNL d   1      49.953  34.529  52.169  0.00  0.00     0.233 C 
BRANCH  16  17
ATOM     17  N   UNL d   1      49.310  34.989  52.418  0.00  0.00    -0.150 N 
ATOM     18  N   UNL d   1      49.322  35.347  53.163  0.00  0.00    -0.055 NA
ATOM     19  N   UNL d   1      48.683  35.804  53.408  0.00  0.00    -0.130 NA
ATOM     20  C   UNL d   1      48.035  35.906  52.917  0.00  0.00     0.109 A 
ATOM     21  C   UNL d   1      48.023  35.548  52.171  0.00  0.00     0.077 A 
ATOM     22  C   UNL d   1      47.396  36.363  53.162  0.00  0.00     0.021 A 
ATOM     23  C   UNL d   1      48.658  35.085  51.910  0.00  0.00     0.285 A 
ATOM     24  C   UNL d   1      47.371  35.649  51.674  0.00  0.00     0.006 A 
ATOM     25  O   UNL d   1      48.645  34.731  51.172  0.00  0.00    -0.265 OA
ATOM     26  C   UNL d   1      46.732  36.106  51.920  0.00  0.00     0.000 A 
ATOM     27  C   UNL d   1      46.745  36.466  52.669  0.00  0.00     0.002 A 
ENDBRANCH  16  17
ENDBRANCH  15  16
ENDBRANCH   1  15
TORSDOF 7
ENDMDL
MODEL 3
REMARK VINA RESULT:      -6.1      1.492      5.399
REMARK  7 active torsions:
REMARK  status: ('A' for Active; 'I' for Inactive)
REMARK    1  A    between atoms: C_9  and  N_1 
REMARK    2  A    between atoms: O_18  and  C_6 
REMARK    3  A    between atoms: C_7  and  C_8 
REMARK    4  A    between atoms: C_8  and  O_12 
REMARK    5  A    between atoms: O_12  and  C_9 
REMARK    6  A    between atoms: O_20  and  C_10 
REMARK    7  A    between atoms: O_19  and  C_11 
ROOT
ATOM      1  C   UNL d   1      49.303  34.829  52.178  0.00  0.00     0.302 C 
ATOM      2  O   UNL d   1      49.371  34.439  51.452  0.00  0.00    -0.259 OA
ENDROOT
BRANCH   1   3
ATOM      3  C   UNL d   1      48.614  35.248  52.360  0.00  0.00     0.068 A 
ATOM      4  C   UNL d   1      48.521  35.581  53.129  0.00  0.00     0.032 A 
ATOM      5  C   UNL d   1      47.833  35.991  53.291  0.00  0.00     0.118 A 
ATOM      6  C   UNL d   1      47.241  36.083  52.726  0.00  0.00     0.138 A 
ATOM      7  C   UNL d   1      47.345  35.752  51.978  0.00  0.00     0.118 A 
ATOM      8  C   UNL d   1      48.030  35.337  51.799  0.00  0.00     0.032 A 
BRANCH   5   9
ATOM      9  O   UNL d   1      47.729  36.327  54.053  0.00  0.00    -0.326 OA
ATOM     10  C   UNL d   1      48.364  36.709  54.421  0.00  0.00     0.181 C 
ENDBRANCH   5   9
BRANCH   6  11
ATOM     11  O   UNL d   1      46.549  36.505  52.914  0.00  0.00    -0.324 OA
ATOM     12  C   UNL d   1      45.905  36.136  53.265  0.00  0.00     0.182 C 
ENDBRANCH   6  11
BRANCH   7  13
ATOM     13  O   UNL d   1      46.745  35.843  51.403  0.00  0.00    -0.326 OA
ATOM     14  C   UNL d   1      46.698  35.334  50.766  0.00  0.00     0.181 C 
ENDBRANCH   7  13
ENDBRANCH   1   3
BRANCH   1  15
ATOM     15  O   UNL d   1      49.923  34.803  52.723  0.00  0.00    -0.251 OA
BRANCH  15  16
ATOM     16  C   UNL d   1      50.536  34.259  52.620  0.00  0.00     0.233 C 
BRANCH  16  17
ATOM     17  N   UNL d   1      51.233  34.332  53.064  0.00  0.00    -0.150 N 
ATOM     18  N   UNL d   1      51.484  35.077  53.319  0.00  0.00    -0.055 NA
ATOM     19  N   UNL d   1      52.176  35.147  53.760  0.00  0.00    -0.130 NA
ATOM     20  C   UNL d   1      52.616  34.482  53.946  0.00  0.00     0.109 A 
ATOM     21  C   UNL d   1      52.365  33.736  53.691  0.00  0.00     0.077 A 
ATOM     22  C   UNL d   1      53.308  34.552  54.386  0.00  0.00     0.021 A 
ATOM     23  C   UNL d   1      51.672  33.649  53.247  0.00  0.00     0.285 A 
ATOM     24  C   UNL d   1      52.807  33.065  53.877  0.00  0.00     0.006 A 
ATOM     25  O   UNL d   1      51.423  32.911  52.994  0.00  0.00    -0.265 OA
ATOM     26  C   UNL d   1      53.499  33.136  54.317  0.00  0.00     0.000 A 
ATOM     27  C   UNL d   1      53.751  33.885  54.574  0.00  0.00     0.002 A 
ENDBRANCH  16  17
ENDBRANCH  15  16
ENDBRANCH   1  15
TORSDOF 7
ENDMDL
MODEL 4
REMARK VINA RESULT:      -5.8      1.197      2.257
REMARK  7 active torsions:
REMARK  status: ('A' for Active; 'I' for Inactive)
REMARK    1  A    between atoms: C_9  and  N_1 
REMARK    2  A    between atoms: O_18  and  C_6 
REMARK    3  A    between atoms: C_7  and  C_8 
REMARK    4  A    between atoms: C_8  and  O_12 
REMARK    5  A    between atoms: O_12  and  C_9 
REMARK    6  A    between atoms: O_20  and  C_10 
REMARK    7  A    between atoms: O_19  and  C_11 
ROOT
ATOM      1  C   UNL d   1      52.372  33.986  53.186  0.00  0.00     0.302 C 
ATOM      2  O   UNL d   1      52.755  34.719  53.166  0.00  0.00    -0.259 OA
ENDROOT
BRANCH   1   3
ATOM      3  C   UNL d   1      52.764  33.322  53.482  0.00  0.00     0.068 A 
ATOM      4  C   UNL d   1      52.684  32.581  53.089  0.00  0.00     0.032 A 
ATOM      5  C   UNL d   1      53.078  31.936  53.396  0.00  0.00     0.118 A 
ATOM      6  C   UNL d   1      53.545  31.995  54.071  0.00  0.00     0.138 A 
ATOM      7  C   UNL d   1      53.616  32.725  54.447  0.00  0.00     0.118 A 
ATOM      8  C   UNL d   1      53.225  33.385  54.152  0.00  0.00     0.032 A 
BRANCH   5   9
ATOM      9  O   UNL d   1      53.005  31.192  53.012  0.00  0.00    -0.326 OA
ATOM     10  C   UNL d   1      52.622  31.147  52.281  0.00  0.00     0.181 C 
ENDBRANCH   5   9
BRANCH   6  11
ATOM     11  O   UNL d   1      53.938  31.323  54.367  0.00  0.00    -0.324 OA
ATOM     12  C   UNL d   1      53.545  30.761  54.818  0.00  0.00     0.182 C 
ENDBRANCH   6  11
BRANCH   7  13
ATOM     13  O   UNL d   1      54.089  32.790  55.134  0.00  0.00    -0.326 OA
ATOM     14  C   UNL d   1      54.559  33.446  55.256  0.00  0.00     0.181 C 
ENDBRANCH   7  13
ENDBRANCH   1   3
BRANCH   1  15
ATOM     15  O   UNL d   1      51.598  33.916  52.910  0.00  0.00    -0.251 OA
BRANCH  15  16
ATOM     16  C   UNL d   1      51.074  34.550  52.990  0.00  0.00     0.233 C 
BRANCH  16  17
ATOM     17  N   UNL d   1      50.402  34.596  52.507  0.00  0.00    -0.150 N 
ATOM     18  N   UNL d   1      50.403  34.236  51.763  0.00  0.00    -0.055 NA
ATOM     19  N   UNL d   1      49.734  34.283  51.285  0.00  0.00    -0.130 NA
ATOM     20  C   UNL d   1      49.069  34.685  51.544  0.00  0.00     0.109 A 
ATOM     21  C   UNL d   1      49.068  35.045  52.288  0.00  0.00     0.077 A 
ATOM     22  C   UNL d   1      48.401  34.731  51.066  0.00  0.00     0.021 A 
ATOM     23  C   UNL d   1      49.732  35.007  52.781  0.00  0.00     0.285 A 
ATOM     24  C   UNL d   1      48.398  35.450  52.551  0.00  0.00     0.006 A 
ATOM     25  O   UNL d   1      49.731  35.363  53.518  0.00  0.00    -0.265 OA
ATOM     26  C   UNL d   1      47.730  35.496  52.072  0.00  0.00     0.000 A 
ATOM     27  C   UNL d   1      47.731  35.134  51.324  0.00  0.00     0.002 A 
ENDBRANCH  16  17
ENDBRANCH  15  16
ENDBRANCH   1  15
TORSDOF 7
ENDMDL
MODEL 5
REMARK VINA RESULT:      -5.7      1.564      5.724
REMARK  7 active torsions:
REMARK  status: ('A' for Active; 'I' for Inactive)
REMARK    1  A    between atoms: C_9  and  N_1 
REMARK    2  A    between atoms: O_18  and  C_6 
REMARK    3  A    between atoms: C_7  and  C_8 
REMARK    4  A    between atoms: C_8  and  O_12 
REMARK    5  A    between atoms: O_12  and  C_9 
REMARK    6  A    between atoms: O_20  and  C_10 
REMARK    7  A    between atoms: O_19  and  C_11 
ROOT
ATOM      1  C   UNL d   1      48.887  35.660  53.344  0.00  0.00     0.302 C 
ATOM      2  O   UNL d   1      49.184  36.278  53.806  0.00  0.00    -0.259 OA
ENDROOT
BRANCH   1   3
ATOM      3  C   UNL d   1      48.116  35.697  53.049  0.00  0.00     0.068 A 
ATOM      4  C   UNL d   1      47.984  35.611  52.221  0.00  0.00     0.032 A 
ATOM      5  C   UNL d   1      47.215  35.651  51.947  0.00  0.00     0.118 A 
ATOM      6  C   UNL d   1      46.580  35.771  52.456  0.00  0.00     0.138 A 
ATOM      7  C   UNL d   1      46.723  35.854  53.264  0.00  0.00     0.118 A 
ATOM      8  C   UNL d   1      47.489  35.817  53.556  0.00  0.00     0.032 A 
BRANCH   5   9
ATOM      9  O   UNL d   1      47.071  35.567  51.123  0.00  0.00    -0.326 OA
ATOM     10  C   UNL d   1      47.544  35.055  50.677  0.00  0.00     0.181 C 
ENDBRANCH   5   9
BRANCH   6  11
ATOM     11  O   UNL d   1      45.805  35.808  52.153  0.00  0.00    -0.324 OA
ATOM     12  C   UNL d   1      45.449  36.526  51.974  0.00  0.00     0.182 C 
ENDBRANCH   6  11
BRANCH   7  13
ATOM     13  O   UNL d   1      46.080  35.976  53.784  0.00  0.00    -0.326 OA
ATOM     14  C   UNL d   1      46.154  35.820  54.582  0.00  0.00     0.181 C 
ENDBRANCH   7  13
ENDBRANCH   1   3
BRANCH   1  15
ATOM     15  O   UNL d   1      49.359  35.004  53.177  0.00  0.00    -0.251 OA
BRANCH  15  16
ATOM     16  C   UNL d   1      50.181  35.068  53.223  0.00  0.00     0.233 C 
BRANCH  16  17
ATOM     17  N   UNL d   1      50.652  34.388  53.171  0.00  0.00    -0.150 N 
ATOM     18  N   UNL d   1      50.302  33.653  53.026  0.00  0.00    -0.055 NA
ATOM     19  N   UNL d   1      50.773  32.979  52.975  0.00  0.00    -0.130 NA
ATOM     20  C   UNL d   1      51.585  33.034  53.067  0.00  0.00     0.109 A 
ATOM     21  C   UNL d   1      51.935  33.769  53.212  0.00  0.00     0.077 A 
ATOM     22  C   UNL d   1      52.055  32.360  53.016  0.00  0.00     0.021 A 
ATOM     23  C   UNL d   1      51.476  34.456  53.267  0.00  0.00     0.285 A 
ATOM     24  C   UNL d   1      52.753  33.826  53.306  0.00  0.00     0.006 A 
ATOM     25  O   UNL d   1      51.823  35.184  53.411  0.00  0.00    -0.265 OA
ATOM     26  C   UNL d   1      53.223  33.152  53.254  0.00  0.00     0.000 A 
ATOM     27  C   UNL d   1      52.871  32.413  53.108  0.00  0.00     0.002 A 
ENDBRANCH  16  17
ENDBRANCH  15  16
ENDBRANCH   1  15
TORSDOF 7
ENDMDL
