MODEL 1
REMARK VINA RESULT:      -9.0      0.000      0.000
REMARK  8 active torsions:
REMARK  status: ('A' for Active; 'I' for Inactive)
REMARK    1  A    between atoms: C_7  and  C_1 
REMARK    2  A    between atoms: S_2  and  N_8 
REMARK    3  A    between atoms: C_11  and  S_2 
REMARK    4  A    between atoms: O_17  and  C_7 
REMARK    5  A    between atoms: N_8  and  C_13 
REMARK    6  A    between atoms: C_22  and  O_17 
REMARK    7  A    between atoms: O_19  and  C_23 
REMARK    8  A    between atoms: C_23  and  C_22 
ROOT
ATOM      1  C   UNL d   1      52.963  34.624  53.982  0.00  0.00     0.088 A 
ATOM      2  C   UNL d   1      53.001  35.147  54.616  0.00  0.00     0.105 A 
ATOM      3  C   UNL d   1      53.482  34.007  54.127  0.00  0.00     0.031 A 
ATOM      4  O   UNL d   1      53.556  34.842  55.161  0.00  0.00    -0.307 OA
ATOM      5  C   UNL d   1      53.848  34.141  54.854  0.00  0.00     0.100 A 
ATOM      6  C   UNL d   1      53.672  33.332  53.688  0.00  0.00     0.022 A 
ATOM      7  C   UNL d   1      54.224  32.800  53.978  0.00  0.00     0.094 A 
ATOM      8  C   UNL d   1      54.403  33.602  55.142  0.00  0.00     0.026 A 
ATOM      9  C   UNL d   1      54.590  32.935  54.705  0.00  0.00     0.022 A 
ATOM     10  C   UNL d   1      52.595  35.847  54.743  0.00  0.00     0.027 C 
ENDROOT
BRANCH   7  11
ATOM     11  N   UNL d   1      54.417  32.095  53.508  0.00  0.00    -0.158 NA
BRANCH  11  12
ATOM     12  S   UNL d   1      53.915  31.430  53.514  0.00  0.00     0.285 S 
ATOM     13  O   UNL d   1      54.075  31.277  54.310  0.00  0.00    -0.198 OA
ATOM     14  O   UNL d   1      53.729  31.562  52.689  0.00  0.00    -0.198 OA
BRANCH  12  15
ATOM     15  C   UNL d   1      53.396  30.759  53.483  0.00  0.00     0.105 A 
ATOM     16  C   UNL d   1      53.622  30.085  53.904  0.00  0.00     0.013 A 
ATOM     17  C   UNL d   1      53.142  29.414  53.896  0.00  0.00     0.001 A 
ATOM     18  C   UNL d   1      52.436  29.417  53.467  0.00  0.00     0.000 A 
ATOM     19  C   UNL d   1      52.215  30.088  53.051  0.00  0.00     0.001 A 
ATOM     20  C   UNL d   1      52.695  30.759  53.059  0.00  0.00     0.013 A 
ENDBRANCH  12  15
ENDBRANCH  11  12
ENDBRANCH   7  11
BRANCH   1  21
ATOM     21  C   UNL d   1      52.456  34.753  53.321  0.00  0.00     0.302 C 
ATOM     22  O   UNL d   1      52.725  35.143  52.639  0.00  0.00    -0.259 OA
BRANCH  21  23
ATOM     23  O   UNL d   1      51.669  34.479  53.359  0.00  0.00    -0.269 OA
BRANCH  23  24
ATOM     24  C   UNL d   1      51.192  34.459  52.679  0.00  0.00     0.152 C 
BRANCH  24  25
ATOM     25  C   UNL d   1      50.382  34.320  52.734  0.00  0.00     0.143 C 
BRANCH  25  26
ATOM     26  O   UNL d   1      49.899  34.241  52.058  0.00  0.00    -0.324 OA
ATOM     27  C   UNL d   1      49.175  34.590  52.048  0.00  0.00     0.182 C 
ENDBRANCH  25  26
ENDBRANCH  24  25
ENDBRANCH  23  24
ENDBRANCH  21  23
ENDBRANCH   1  21
TORSDOF 8
ENDMDL
MODEL 2
REMARK VINA RESULT:      -7.4      1.449      4.420
REMARK  8 active torsions:
REMARK  status: ('A' for Active; 'I' for Inactive)
REMARK    1  A    between atoms: C_7  and  C_1 
REMARK    2  A    between atoms: S_2  and  N_8 
REMARK    3  A    between atoms: C_11  and  S_2 
REMARK    4  A    between atoms: O_17  and  C_7 
REMARK    5  A    between atoms: N_8  and  C_13 
REMARK    6  A    between atoms: C_22  and  O_17 
REMARK    7  A    between atoms: O_19  and  C_23 
REMARK    8  A    between atoms: C_23  and  C_22 
ROOT
ATOM      1  C   UNL d   1      53.794  33.101  54.069  0.00  0.00     0.088 A 
ATOM      2  C   UNL d   1      54.187  33.559  54.627  0.00  0.00     0.105 A 
ATOM      3  C   UNL d   1      53.190  33.551  53.747  0.00  0.00     0.031 A 
ATOM      4  O   UNL d   1      53.815  34.307  54.647  0.00  0.00    -0.307 OA
ATOM      5  C   UNL d   1      53.203  34.294  54.103  0.00  0.00     0.100 A 
ATOM      6  C   UNL d   1      52.623  33.379  53.170  0.00  0.00     0.022 A 
ATOM      7  C   UNL d   1      52.076  33.950  52.954  0.00  0.00     0.094 A 
ATOM      8  C   UNL d   1      52.649  34.867  53.883  0.00  0.00     0.026 A 
ATOM      9  C   UNL d   1      52.089  34.694  53.311  0.00  0.00     0.022 A 
ATOM     10  C   UNL d   1      54.828  33.372  55.103  0.00  0.00     0.027 C 
ENDROOT
BRANCH   7  11
ATOM     11  N   UNL d   1      51.485  33.759  52.346  0.00  0.00    -0.158 NA
BRANCH  11  12
ATOM     12  S   UNL d   1      50.730  34.110  52.362  0.00  0.00     0.285 S 
ATOM     13  O   UNL d   1      50.500  33.661  53.015  0.00  0.00    -0.198 OA
ATOM     14  O   UNL d   1      50.939  34.590  51.685  0.00  0.00    -0.198 OA
BRANCH  12  15
ATOM     15  C   UNL d   1      49.970  34.490  52.347  0.00  0.00     0.105 A 
ATOM     16  C   UNL d   1      49.550  34.468  51.637  0.00  0.00     0.013 A 
ATOM     17  C   UNL d   1      48.808  34.826  51.586  0.00  0.00     0.001 A 
ATOM     18  C   UNL d   1      48.487  35.206  52.246  0.00  0.00     0.000 A 
ATOM     19  C   UNL d   1      48.908  35.225  52.949  0.00  0.00     0.001 A 
ATOM     20  C   UNL d   1      49.650  34.867  53.000  0.00  0.00     0.013 A 
ENDBRANCH  12  15
ENDBRANCH  11  12
ENDBRANCH   7  11
BRANCH   1  21
ATOM     21  C   UNL d   1      54.019  32.307  53.898  0.00  0.00     0.302 C 
ATOM     22  O   UNL d   1      54.673  32.136  53.415  0.00  0.00    -0.259 OA
BRANCH  21  23
ATOM     23  O   UNL d   1      53.572  31.683  54.225  0.00  0.00    -0.269 OA
BRANCH  23  24
ATOM     24  C   UNL d   1      53.674  30.901  53.961  0.00  0.00     0.152 C 
BRANCH  24  25
ATOM     25  C   UNL d   1      53.316  30.272  54.353  0.00  0.00     0.143 C 
BRANCH  25  26
ATOM     26  O   UNL d   1      53.303  29.501  54.035  0.00  0.00    -0.324 OA
ATOM     27  C   UNL d   1      53.306  28.869  54.532  0.00  0.00     0.182 C 
ENDBRANCH  25  26
ENDBRANCH  24  25
ENDBRANCH  23  24
ENDBRANCH  21  23
ENDBRANCH   1  21
TORSDOF 8
ENDMDL
