MODEL 1
REMARK VINA RESULT:      -9.5      0.000      0.000
REMARK  2 active torsions:
REMARK  status: ('A' for Active; 'I' for Inactive)
REMARK    1  A    between atoms: C_9  and  N_2 
REMARK    2  A    between atoms: C_7  and  C_4 
ROOT
ATOM      1  C   UNL d   1      52.710  32.242  53.249  0.00  0.00     0.136 A 
ATOM      2  N   UNL d   1      52.616  33.049  53.398  0.00  0.00    -0.282 N 
ATOM      3  C   UNL d   1      53.391  31.855  53.518  0.00  0.00     0.152 A 
ATOM      4  C   UNL d   1      53.205  33.467  53.815  0.00  0.00     0.158 A 
ATOM      5  N   UNL d   1      53.881  33.073  54.079  0.00  0.00    -0.189 NA
ATOM      6  C   UNL d   1      53.973  32.268  53.931  0.00  0.00     0.292 A 
ATOM      7  C   UNL d   1      53.483  31.049  53.369  0.00  0.00     0.108 C 
ATOM      8  N   UNL d   1      53.580  30.239  53.222  0.00  0.00    -0.191 NA
ATOM      9  S   UNL d   1      52.133  31.821  52.837  0.00  0.00    -0.058 SA
ATOM     10  O   UNL d   1      54.653  31.870  54.196  0.00  0.00    -0.264 OA
ENDROOT
BRANCH   2  11
ATOM     11  C   UNL d   1      51.943  33.437  53.133  0.00  0.00     0.066 A 
ATOM     12  C   UNL d   1      51.269  33.452  53.608  0.00  0.00     0.018 A 
ATOM     13  C   UNL d   1      50.595  33.842  53.340  0.00  0.00     0.002 A 
ATOM     14  C   UNL d   1      50.592  34.216  52.602  0.00  0.00     0.000 A 
ATOM     15  C   UNL d   1      51.272  34.199  52.128  0.00  0.00     0.002 A 
ATOM     16  C   UNL d   1      49.917  34.606  52.335  0.00  0.00     0.000 C 
ATOM     17  C   UNL d   1      51.947  33.809  52.395  0.00  0.00     0.018 A 
ENDBRANCH   2  11
BRANCH   4  18
ATOM     18  C   UNL d   1      53.112  34.272  53.963  0.00  0.00     0.064 A 
ATOM     19  S   UNL d   1      52.809  34.603  54.650  0.00  0.00    -0.083 SA
ATOM     20  C   UNL d   1      52.819  35.418  54.559  0.00  0.00     0.035 A 
ATOM     21  C   UNL d   1      53.127  35.591  53.816  0.00  0.00     0.008 A 
ATOM     22  C   UNL d   1      53.310  34.893  53.443  0.00  0.00     0.010 A 
ENDBRANCH   4  18
TORSDOF 2
ENDMDL
MODEL 2
REMARK VINA RESULT:      -9.3      1.534      2.855
REMARK  2 active torsions:
REMARK  status: ('A' for Active; 'I' for Inactive)
REMARK    1  A    between atoms: C_9  and  N_2 
REMARK    2  A    between atoms: C_7  and  C_4 
ROOT
ATOM      1  C   UNL d   1      53.423  31.441  53.725  0.00  0.00     0.136 A 
ATOM      2  N   UNL d   1      53.356  32.265  53.737  0.00  0.00    -0.282 N 
ATOM      3  C   UNL d   1      52.848  30.992  53.333  0.00  0.00     0.152 A 
ATOM      4  C   UNL d   1      52.715  32.636  53.356  0.00  0.00     0.158 A 
ATOM      5  N   UNL d   1      52.146  32.181  52.967  0.00  0.00    -0.189 NA
ATOM      6  C   UNL d   1      52.213  31.359  52.956  0.00  0.00     0.292 A 
ATOM      7  C   UNL d   1      52.916  30.171  53.322  0.00  0.00     0.108 C 
ATOM      8  N   UNL d   1      52.980  29.344  53.309  0.00  0.00    -0.191 NA
ATOM      9  S   UNL d   1      54.055  31.065  54.100  0.00  0.00    -0.058 SA
ATOM     10  O   UNL d   1      51.642  30.899  52.566  0.00  0.00    -0.264 OA
ENDROOT
BRANCH   2  11
ATOM     11  C   UNL d   1      53.923  32.714  54.124  0.00  0.00     0.066 A 
ATOM     12  C   UNL d   1      54.588  32.975  53.711  0.00  0.00     0.018 A 
ATOM     13  C   UNL d   1      55.156  33.426  54.102  0.00  0.00     0.002 A 
ATOM     14  C   UNL d   1      55.062  33.617  54.902  0.00  0.00     0.000 A 
ATOM     15  C   UNL d   1      54.392  33.352  55.314  0.00  0.00     0.002 A 
ATOM     16  C   UNL d   1      55.630  34.068  55.293  0.00  0.00     0.000 C 
ATOM     17  C   UNL d   1      53.824  32.901  54.923  0.00  0.00     0.018 A 
ENDBRANCH   2  11
BRANCH   4  18
ATOM     18  C   UNL d   1      52.648  33.457  53.367  0.00  0.00     0.064 A 
ATOM     19  S   UNL d   1      52.239  33.900  53.925  0.00  0.00    -0.083 SA
ATOM     20  C   UNL d   1      52.318  34.690  53.722  0.00  0.00     0.035 A 
ATOM     21  C   UNL d   1      52.775  34.737  53.040  0.00  0.00     0.008 A 
ATOM     22  C   UNL d   1      52.982  33.985  52.815  0.00  0.00     0.010 A 
ENDBRANCH   4  18
TORSDOF 2
ENDMDL
MODEL 3
REMARK VINA RESULT:      -9.0      1.511      3.214
REMARK  2 active torsions:
REMARK  status: ('A' for Active; 'I' for Inactive)
REMARK    1  A    between atoms: C_9  and  N_2 
REMARK    2  A    between atoms: C_7  and  C_4 
ROOT
ATOM      1  C   UNL d   1      51.972  33.255  53.214  0.00  0.00     0.136 A 
ATOM      2  N   UNL d   1      52.698  33.089  53.571  0.00  0.00    -0.282 N 
ATOM      3  C   UNL d   1      51.686  34.032  53.216  0.00  0.00     0.152 A 
ATOM      4  C   UNL d   1      53.137  33.700  53.929  0.00  0.00     0.158 A 
ATOM      5  N   UNL d   1      52.844  34.473  53.927  0.00  0.00    -0.189 NA
ATOM      6  C   UNL d   1      52.119  34.638  53.571  0.00  0.00     0.292 A 
ATOM      7  C   UNL d   1      50.961  34.197  52.861  0.00  0.00     0.108 C 
ATOM      8  N   UNL d   1      50.232  34.368  52.503  0.00  0.00    -0.191 NA
ATOM      9  S   UNL d   1      51.531  32.656  52.857  0.00  0.00    -0.058 SA
ATOM     10  O   UNL d   1      51.824  35.414  53.568  0.00  0.00    -0.264 OA
ENDROOT
BRANCH   2  11
ATOM     11  C   UNL d   1      52.986  32.320  53.570  0.00  0.00     0.066 A 
ATOM     12  C   UNL d   1      53.434  32.053  52.931  0.00  0.00     0.018 A 
ATOM     13  C   UNL d   1      53.721  31.281  52.934  0.00  0.00     0.002 A 
ATOM     14  C   UNL d   1      53.563  30.777  53.571  0.00  0.00     0.000 A 
ATOM     15  C   UNL d   1      53.113  31.049  54.211  0.00  0.00     0.002 A 
ATOM     16  C   UNL d   1      53.851  30.005  53.572  0.00  0.00     0.000 C 
ATOM     17  C   UNL d   1      52.825  31.821  54.209  0.00  0.00     0.018 A 
ENDBRANCH   2  11
BRANCH   4  18
ATOM     18  C   UNL d   1      53.861  33.535  54.284  0.00  0.00     0.064 A 
ATOM     19  S   UNL d   1      53.981  33.373  55.080  0.00  0.00    -0.083 SA
ATOM     20  C   UNL d   1      54.783  33.243  55.189  0.00  0.00     0.035 A 
ATOM     21  C   UNL d   1      55.159  33.324  54.462  0.00  0.00     0.008 A 
ATOM     22  C   UNL d   1      54.600  33.503  53.901  0.00  0.00     0.010 A 
ENDBRANCH   4  18
TORSDOF 2
ENDMDL
MODEL 4
REMARK VINA RESULT:      -8.7      1.337      1.880
REMARK  2 active torsions:
REMARK  status: ('A' for Active; 'I' for Inactive)
REMARK    1  A    between atoms: C_9  and  N_2 
REMARK    2  A    between atoms: C_7  and  C_4 
ROOT
ATOM      1  C   UNL d   1      52.745  31.415  53.241  0.00  0.00     0.136 A 
ATOM      2  N   UNL d   1      53.143  32.066  53.557  0.00  0.00    -0.282 N 
ATOM      3  C   UNL d   1      53.053  30.655  53.355  0.00  0.00     0.152 A 
ATOM      4  C   UNL d   1      53.848  31.955  53.987  0.00  0.00     0.158 A 
ATOM      5  N   UNL d   1      54.149  31.194  54.096  0.00  0.00    -0.189 NA
ATOM      6  C   UNL d   1      53.751  30.545  53.780  0.00  0.00     0.292 A 
ATOM      7  C   UNL d   1      52.655  30.006  53.039  0.00  0.00     0.108 C 
ATOM      8  N   UNL d   1      52.258  29.350  52.723  0.00  0.00    -0.191 NA
ATOM      9  S   UNL d   1      52.046  31.516  52.815  0.00  0.00    -0.058 SA
ATOM     10  O   UNL d   1      54.052  29.778  53.889  0.00  0.00    -0.264 OA
ENDROOT
BRANCH   2  11
ATOM     11  C   UNL d   1      52.841  32.821  53.447  0.00  0.00     0.066 A 
ATOM     12  C   UNL d   1      53.071  33.260  52.787  0.00  0.00     0.018 A 
ATOM     13  C   UNL d   1      52.767  34.017  52.679  0.00  0.00     0.002 A 
ATOM     14  C   UNL d   1      52.235  34.338  53.226  0.00  0.00     0.000 A 
ATOM     15  C   UNL d   1      52.006  33.894  53.888  0.00  0.00     0.002 A 
ATOM     16  C   UNL d   1      51.931  35.095  53.116  0.00  0.00     0.000 C 
ATOM     17  C   UNL d   1      52.310  33.136  53.997  0.00  0.00     0.018 A 
ENDBRANCH   2  11
BRANCH   4  18
ATOM     18  C   UNL d   1      54.246  32.604  54.303  0.00  0.00     0.064 A 
ATOM     19  S   UNL d   1      54.140  32.914  55.056  0.00  0.00    -0.083 SA
ATOM     20  C   UNL d   1      54.647  33.554  55.134  0.00  0.00     0.035 A 
ATOM     21  C   UNL d   1      55.065  33.641  54.431  0.00  0.00     0.008 A 
ATOM     22  C   UNL d   1      54.824  33.062  53.915  0.00  0.00     0.010 A 
ENDBRANCH   4  18
TORSDOF 2
ENDMDL
MODEL 5
REMARK VINA RESULT:      -8.4      1.474      3.061
REMARK  2 active torsions:
REMARK  status: ('A' for Active; 'I' for Inactive)
REMARK    1  A    between atoms: C_9  and  N_2 
REMARK    2  A    between atoms: C_7  and  C_4 
ROOT
ATOM      1  C   UNL d   1      53.892  33.190  54.384  0.00  0.00     0.136 A 
ATOM      2  N   UNL d   1      53.207  33.064  53.940  0.00  0.00    -0.282 N 
ATOM      3  C   UNL d   1      54.034  33.936  54.713  0.00  0.00     0.152 A 
ATOM      4  C   UNL d   1      52.666  33.687  53.825  0.00  0.00     0.158 A 
ATOM      5  N   UNL d   1      52.814  34.429  54.157  0.00  0.00    -0.189 NA
ATOM      6  C   UNL d   1      53.497  34.553  54.600  0.00  0.00     0.292 A 
ATOM      7  C   UNL d   1      54.717  34.060  55.156  0.00  0.00     0.108 C 
ATOM      8  N   UNL d   1      55.404  34.188  55.603  0.00  0.00    -0.191 NA
ATOM      9  S   UNL d   1      54.434  32.578  54.502  0.00  0.00    -0.058 SA
ATOM     10  O   UNL d   1      53.649  35.298  54.934  0.00  0.00    -0.264 OA
ENDROOT
BRANCH   2  11
ATOM     11  C   UNL d   1      53.063  32.326  53.612  0.00  0.00     0.066 A 
ATOM     12  C   UNL d   1      53.316  32.165  52.843  0.00  0.00     0.018 A 
ATOM     13  C   UNL d   1      53.170  31.423  52.517  0.00  0.00     0.002 A 
ATOM     14  C   UNL d   1      52.773  30.843  52.954  0.00  0.00     0.000 A 
ATOM     15  C   UNL d   1      52.520  31.009  53.726  0.00  0.00     0.002 A 
ATOM     16  C   UNL d   1      52.627  30.101  52.627  0.00  0.00     0.000 C 
ATOM     17  C   UNL d   1      52.666  31.751  54.053  0.00  0.00     0.018 A 
ENDBRANCH   2  11
BRANCH   4  18
ATOM     18  C   UNL d   1      51.982  33.564  53.382  0.00  0.00     0.064 A 
ATOM     19  S   UNL d   1      51.892  33.721  52.581  0.00  0.00    -0.083 SA
ATOM     20  C   UNL d   1      51.126  33.515  52.372  0.00  0.00     0.035 A 
ATOM     21  C   UNL d   1      50.743  33.232  53.042  0.00  0.00     0.008 A 
ATOM     22  C   UNL d   1      51.261  33.258  53.667  0.00  0.00     0.010 A 
ENDBRANCH   4  18
TORSDOF 2
ENDMDL
MODEL 6
REMARK VINA RESULT:      -8.1      1.582      3.714
REMARK  2 active torsions:
REMARK  status: ('A' for Active; 'I' for Inactive)
REMARK    1  A    between atoms: C_9  and  N_2 
REMARK    2  A    between atoms: C_7  and  C_4 
ROOT
ATOM      1  C   UNL d   1      52.189  33.873  53.600  0.00  0.00     0.136 A 
ATOM      2  N   UNL d   1      52.712  33.238  53.673  0.00  0.00    -0.282 N 
ATOM      3  C   UNL d   1      51.462  33.760  53.221  0.00  0.00     0.152 A 
ATOM      4  C   UNL d   1      52.506  32.491  53.367  0.00  0.00     0.158 A 
ATOM      5  N   UNL d   1      51.778  32.386  52.990  0.00  0.00    -0.189 NA
ATOM      6  C   UNL d   1      51.257  33.021  52.917  0.00  0.00     0.292 A 
ATOM      7  C   UNL d   1      50.941  34.395  53.148  0.00  0.00     0.108 C 
ATOM      8  N   UNL d   1      50.414  35.031  53.073  0.00  0.00    -0.191 NA
ATOM      9  S   UNL d   1      52.386  34.616  53.900  0.00  0.00    -0.058 SA
ATOM     10  O   UNL d   1      50.525  32.918  52.538  0.00  0.00    -0.264 OA
ENDROOT
BRANCH   2  11
ATOM     11  C   UNL d   1      53.434  33.345  54.048  0.00  0.00     0.066 A 
ATOM     12  C   UNL d   1      54.098  33.550  53.603  0.00  0.00     0.018 A 
ATOM     13  C   UNL d   1      54.821  33.657  53.982  0.00  0.00     0.002 A 
ATOM     14  C   UNL d   1      54.884  33.560  54.801  0.00  0.00     0.000 A 
ATOM     15  C   UNL d   1      54.214  33.354  55.245  0.00  0.00     0.002 A 
ATOM     16  C   UNL d   1      55.608  33.667  55.180  0.00  0.00     0.000 C 
ATOM     17  C   UNL d   1      53.490  33.247  54.867  0.00  0.00     0.018 A 
ENDBRANCH   2  11
BRANCH   4  18
ATOM     18  C   UNL d   1      53.026  31.856  53.439  0.00  0.00     0.064 A 
ATOM     19  S   UNL d   1      53.033  31.306  54.048  0.00  0.00    -0.083 SA
ATOM     20  C   UNL d   1      53.640  30.776  53.898  0.00  0.00     0.035 A 
ATOM     21  C   UNL d   1      54.009  30.998  53.196  0.00  0.00     0.008 A 
ATOM     22  C   UNL d   1      53.638  31.660  52.908  0.00  0.00     0.010 A 
ENDBRANCH   4  18
TORSDOF 2
ENDMDL
MODEL 7
REMARK VINA RESULT:      -7.4      1.045      2.633
REMARK  2 active torsions:
REMARK  status: ('A' for Active; 'I' for Inactive)
REMARK    1  A    between atoms: C_9  and  N_2 
REMARK    2  A    between atoms: C_7  and  C_4 
ROOT
ATOM      1  C   UNL d   1      53.262  34.062  54.299  0.00  0.00     0.136 A 
ATOM      2  N   UNL d   1      52.929  33.455  53.847  0.00  0.00    -0.282 N 
ATOM      3  C   UNL d   1      53.923  33.902  54.771  0.00  0.00     0.152 A 
ATOM      4  C   UNL d   1      53.258  32.690  53.870  0.00  0.00     0.158 A 
ATOM      5  N   UNL d   1      53.918  32.539  54.344  0.00  0.00    -0.189 NA
ATOM      6  C   UNL d   1      54.249  33.145  54.794  0.00  0.00     0.292 A 
ATOM      7  C   UNL d   1      54.254  34.508  55.221  0.00  0.00     0.108 C 
ATOM      8  N   UNL d   1      54.590  35.115  55.675  0.00  0.00    -0.191 NA
ATOM      9  S   UNL d   1      52.941  34.822  54.283  0.00  0.00    -0.058 SA
ATOM     10  O   UNL d   1      54.913  32.995  55.271  0.00  0.00    -0.264 OA
ENDROOT
BRANCH   2  11
ATOM     11  C   UNL d   1      52.273  33.609  53.378  0.00  0.00     0.066 A 
ATOM     12  C   UNL d   1      52.380  33.889  52.609  0.00  0.00     0.018 A 
ATOM     13  C   UNL d   1      51.720  34.042  52.140  0.00  0.00     0.002 A 
ATOM     14  C   UNL d   1      50.957  33.917  52.435  0.00  0.00     0.000 A 
ATOM     15  C   UNL d   1      50.855  33.635  53.208  0.00  0.00     0.002 A 
ATOM     16  C   UNL d   1      50.298  34.070  51.965  0.00  0.00     0.000 C 
ATOM     17  C   UNL d   1      51.514  33.482  53.678  0.00  0.00     0.018 A 
ENDBRANCH   2  11
BRANCH   4  18
ATOM     18  C   UNL d   1      52.927  32.085  53.420  0.00  0.00     0.064 A 
ATOM     19  S   UNL d   1      52.347  31.560  53.671  0.00  0.00    -0.083 SA
ATOM     20  C   UNL d   1      52.184  31.053  53.047  0.00  0.00     0.035 A 
ATOM     21  C   UNL d   1      52.662  31.263  52.411  0.00  0.00     0.008 A 
ATOM     22  C   UNL d   1      53.122  31.896  52.632  0.00  0.00     0.010 A 
ENDBRANCH   4  18
TORSDOF 2
ENDMDL
