MODEL 1
REMARK VINA RESULT:      95.9      0.000      0.000
REMARK  2 active torsions:
REMARK  status: ('A' for Active; 'I' for Inactive)
REMARK    1  A    between atoms: C_13  and  C_2 
REMARK    2  A    between atoms: N_12  and  C_8 
ROOT
ATOM      1  N   UNL d   1     -49.115  26.837  34.311  0.00  0.00    -0.301 N 
ATOM      2  C   UNL d   1     -49.121  28.266  34.251  0.00  0.00     0.121 A 
ATOM      3  C   UNL d   1     -49.893  26.825  34.065  0.00  0.00     0.092 A 
ATOM      4  C   UNL d   1     -50.292  26.098  33.967  0.00  0.00     0.134 A 
ATOM      5  C   UNL d   1     -50.291  27.531  33.909  0.00  0.00     0.060 A 
ATOM      6  C   UNL d   1     -48.723  27.560  34.406  0.00  0.00     0.090 A 
ATOM      7  C   UNL d   1     -49.907  28.241  34.003  0.00  0.00     0.204 A 
ATOM      8  C   UNL d   1     -51.080  26.080  33.718  0.00  0.00     0.116 A 
ATOM      9  O   UNL d   1     -49.890  25.384  34.124  0.00  0.00    -0.301 OA
ATOM     10  C   UNL d   1     -51.478  26.786  33.563  0.00  0.00     0.158 A 
ATOM     11  C   UNL d   1     -51.068  27.511  33.663  0.00  0.00     0.036 A 
ATOM     12  C   UNL d   1     -48.719  26.134  34.466  0.00  0.00     0.089 A 
ATOM     13  O   UNL d   1     -50.308  28.953  33.846  0.00  0.00    -0.286 OA
ATOM     14  C   UNL d   1     -49.097  25.414  34.375  0.00  0.00     0.140 A 
ATOM     15  F   UNL d   1     -52.275  26.784  33.310  0.00  0.00    -0.203 F 
ATOM     16  C   UNL d   1     -47.928  26.148  34.717  0.00  0.00     0.021 C 
ENDROOT
BRANCH   8  17
ATOM     17  N   UNL d   1     -51.473  25.360  33.623  0.00  0.00    -0.298 N 
ATOM     18  C   UNL d   1     -51.040  24.681  33.399  0.00  0.00     0.100 A 
ATOM     19  C   UNL d   1     -51.450  23.960  33.307  0.00  0.00     0.100 A 
ATOM     20  N   UNL d   1     -52.264  23.918  33.433  0.00  0.00    -0.299 N 
ATOM     21  C   UNL d   1     -52.668  24.615  33.655  0.00  0.00     0.100 A 
ATOM     22  C   UNL d   1     -52.663  23.198  33.339  0.00  0.00     0.100 C 
ATOM     23  C   UNL d   1     -52.287  25.318  33.749  0.00  0.00     0.100 A 
ENDBRANCH   8  17
BRANCH   2  24
ATOM     24  C   UNL d   1     -48.739  29.004  34.342  0.00  0.00     0.215 C 
ATOM     25  O   UNL d   1     -48.007  29.062  34.738  0.00  0.00    -0.644 OA
ATOM     26  O   UNL d   1     -49.086  29.684  34.040  0.00  0.00    -0.644 OA
ENDBRANCH   2  24
TORSDOF 2
ENDMDL
MODEL 2
REMARK VINA RESULT:      96.7      1.653      4.638
REMARK  2 active torsions:
REMARK  status: ('A' for Active; 'I' for Inactive)
REMARK    1  A    between atoms: C_13  and  C_2 
REMARK    2  A    between atoms: N_12  and  C_8 
ROOT
ATOM      1  N   UNL d   1     -50.523  26.791  33.688  0.00  0.00    -0.301 N 
ATOM      2  C   UNL d   1     -50.294  25.382  33.592  0.00  0.00     0.121 A 
ATOM      3  C   UNL d   1     -49.763  26.892  33.970  0.00  0.00     0.092 A 
ATOM      4  C   UNL d   1     -49.487  27.657  34.164  0.00  0.00     0.134 A 
ATOM      5  C   UNL d   1     -49.264  26.243  34.065  0.00  0.00     0.060 A 
ATOM      6  C   UNL d   1     -50.793  26.032  33.497  0.00  0.00     0.090 A 
ATOM      7  C   UNL d   1     -49.530  25.498  33.877  0.00  0.00     0.204 A 
ATOM      8  C   UNL d   1     -48.718  27.766  34.450  0.00  0.00     0.116 A 
ATOM      9  O   UNL d   1     -49.991  28.313  34.068  0.00  0.00    -0.301 OA
ATOM     10  C   UNL d   1     -48.219  27.116  34.545  0.00  0.00     0.158 A 
ATOM     11  C   UNL d   1     -48.507  26.353  34.347  0.00  0.00     0.036 A 
ATOM     12  C   UNL d   1     -51.020  27.438  33.594  0.00  0.00     0.089 A 
ATOM     13  O   UNL d   1     -49.025  24.842  33.973  0.00  0.00    -0.286 OA
ATOM     14  C   UNL d   1     -50.762  28.192  33.780  0.00  0.00     0.140 A 
ATOM     15  F   UNL d   1     -47.440  27.211  34.833  0.00  0.00    -0.203 F 
ATOM     16  C   UNL d   1     -51.792  27.331  33.307  0.00  0.00     0.021 C 
ENDROOT
BRANCH   8  17
ATOM     17  N   UNL d   1     -48.447  28.521  34.642  0.00  0.00    -0.298 N 
ATOM     18  C   UNL d   1     -48.089  28.655  35.384  0.00  0.00     0.100 A 
ATOM     19  C   UNL d   1     -47.820  29.424  35.564  0.00  0.00     0.100 A 
ATOM     20  N   UNL d   1     -47.905  30.039  35.020  0.00  0.00    -0.299 N 
ATOM     21  C   UNL d   1     -48.267  29.873  34.286  0.00  0.00     0.100 A 
ATOM     22  C   UNL d   1     -47.634  30.800  35.207  0.00  0.00     0.100 C 
ATOM     23  C   UNL d   1     -48.532  29.136  34.098  0.00  0.00     0.100 A 
ENDBRANCH   8  17
BRANCH   2  24
ATOM     24  C   UNL d   1     -50.552  24.610  33.403  0.00  0.00     0.215 C 
ATOM     25  O   UNL d   1     -50.007  23.986  33.309  0.00  0.00    -0.644 OA
ATOM     26  O   UNL d   1     -51.354  24.459  33.307  0.00  0.00    -0.644 OA
ENDBRANCH   2  24
TORSDOF 2
ENDMDL
MODEL 3
REMARK VINA RESULT:      96.8      2.101      3.544
REMARK  2 active torsions:
REMARK  status: ('A' for Active; 'I' for Inactive)
REMARK    1  A    between atoms: C_13  and  C_2 
REMARK    2  A    between atoms: N_12  and  C_8 
ROOT
ATOM      1  N   UNL d   1     -47.641  30.023  35.191  0.00  0.00    -0.301 N 
ATOM      2  C   UNL d   1     -47.686  31.413  34.858  0.00  0.00     0.121 A 
ATOM      3  C   UNL d   1     -48.299  29.892  34.726  0.00  0.00     0.092 A 
ATOM      4  C   UNL d   1     -48.616  29.122  34.655  0.00  0.00     0.134 A 
ATOM      5  C   UNL d   1     -48.656  30.518  34.325  0.00  0.00     0.060 A 
ATOM      6  C   UNL d   1     -47.329  30.787  35.260  0.00  0.00     0.090 A 
ATOM      7  C   UNL d   1     -48.350  31.268  34.392  0.00  0.00     0.204 A 
ATOM      8  C   UNL d   1     -49.283  28.984  34.185  0.00  0.00     0.116 A 
ATOM      9  O   UNL d   1     -48.256  28.490  35.061  0.00  0.00    -0.301 OA
ATOM     10  C   UNL d   1     -49.640  29.611  33.784  0.00  0.00     0.158 A 
ATOM     11  C   UNL d   1     -49.313  30.380  33.863  0.00  0.00     0.036 A 
ATOM     12  C   UNL d   1     -47.285  29.399  35.591  0.00  0.00     0.089 A 
ATOM     13  O   UNL d   1     -48.710  31.900  33.986  0.00  0.00    -0.286 OA
ATOM     14  C   UNL d   1     -47.586  28.640  35.530  0.00  0.00     0.140 A 
ATOM     15  F   UNL d   1     -50.314  29.486  33.306  0.00  0.00    -0.203 F 
ATOM     16  C   UNL d   1     -46.616  29.535  36.063  0.00  0.00     0.021 C 
ENDROOT
BRANCH   8  17
ATOM     17  N   UNL d   1     -49.595  28.223  34.116  0.00  0.00    -0.298 N 
ATOM     18  C   UNL d   1     -49.791  27.926  33.360  0.00  0.00     0.100 A 
ATOM     19  C   UNL d   1     -50.105  27.155  33.306  0.00  0.00     0.100 A 
ATOM     20  N   UNL d   1     -50.220  26.696  33.982  0.00  0.00    -0.299 N 
ATOM     21  C   UNL d   1     -50.014  27.023  34.723  0.00  0.00     0.100 A 
ATOM     22  C   UNL d   1     -50.533  25.931  33.918  0.00  0.00     0.100 C 
ATOM     23  C   UNL d   1     -49.710  27.765  34.792  0.00  0.00     0.100 A 
ENDBRANCH   8  17
BRANCH   2  24
ATOM     24  C   UNL d   1     -47.383  32.190  34.917  0.00  0.00     0.215 C 
ATOM     25  O   UNL d   1     -47.315  32.568  35.657  0.00  0.00    -0.644 OA
ATOM     26  O   UNL d   1     -47.149  32.591  34.240  0.00  0.00    -0.644 OA
ENDBRANCH   2  24
TORSDOF 2
ENDMDL
