MODEL 1
REMARK VINA RESULT:      15.6      0.000      0.000
REMARK  3 active torsions:
REMARK  status: ('A' for Active; 'I' for Inactive)
REMARK    1  A    between atoms: N_2  and  S_1 
REMARK    2  A    between atoms: C_8  and  S_1 
REMARK    3  A    between atoms: C_3  and  N_2 
ROOT
ATOM      1  C   UNL d   1      46.077 -17.692  44.155  0.00  0.00     0.094 A 
ATOM      2  C   UNL d   1      46.268 -18.507  44.209  0.00  0.00     0.021 A 
ATOM      3  C   UNL d   1      46.409 -18.865  43.522  0.00  0.00     0.040 A 
ATOM      4  C   UNL d   1      46.390 -18.536  42.786  0.00  0.00     0.196 A 
ATOM      5  C   UNL d   1      46.041 -17.301  43.444  0.00  0.00     0.023 A 
ATOM      6  C   UNL d   1      46.199 -17.717  42.732  0.00  0.00     0.044 A 
ATOM      7  O   UNL d   1      46.556 -18.982  42.052  0.00  0.00    -0.287 OA
ATOM      8  C   UNL d   1      46.295 -18.855  44.902  0.00  0.00     0.002 A 
ATOM      9  C   UNL d   1      46.605 -19.677  43.502  0.00  0.00     0.003 A 
ATOM     10  C   UNL d   1      46.642 -20.081  44.244  0.00  0.00     0.000 A 
ATOM     11  C   UNL d   1      46.482 -19.656  44.955  0.00  0.00     0.000 A 
ENDROOT
BRANCH   1  12
ATOM     12  N   UNL d   1      45.930 -17.297  44.804  0.00  0.00    -0.158 NA
BRANCH  12  13
ATOM     13  S   UNL d   1      45.793 -16.472  44.768  0.00  0.00     0.285 S 
ATOM     14  O   UNL d   1      44.959 -16.618  44.915  0.00  0.00    -0.198 OA
ATOM     15  O   UNL d   1      46.563 -16.373  44.635  0.00  0.00    -0.198 OA
BRANCH  13  16
ATOM     16  C   UNL d   1      45.645 -15.643  44.733  0.00  0.00     0.105 A 
ATOM     17  C   UNL d   1      44.890 -15.362  44.954  0.00  0.00     0.013 A 
ATOM     18  C   UNL d   1      44.726 -14.580  44.929  0.00  0.00     0.001 A 
ATOM     19  C   UNL d   1      45.278 -14.066  44.695  0.00  0.00     0.000 A 
ATOM     20  C   UNL d   1      46.043 -14.343  44.471  0.00  0.00     0.001 A 
ATOM     21  C   UNL d   1      46.199 -15.154  44.502  0.00  0.00     0.013 A 
ENDBRANCH  13  16
ENDBRANCH  12  13
ENDBRANCH   1  12
TORSDOF 3
ENDMDL
