MODEL 1
REMARK VINA RESULT:      27.7      0.000      0.000
REMARK  4 active torsions:
REMARK  status: ('A' for Active; 'I' for Inactive)
REMARK    1  A    between atoms: C_5  and  N_1 
REMARK    2  A    between atoms: C_7  and  C_5 
REMARK    3  A    between atoms: O_14  and  C_10 
REMARK    4  A    between atoms: C_17  and  O_14 
ROOT
ATOM      1  N   UNL d   1      13.973  12.573  -2.386  0.00  0.00    -0.251 N 
ATOM      2  C   UNL d   1      13.348  12.029  -2.360  0.00  0.00     0.378 A 
ATOM      3  C   UNL d   1      14.272  12.658  -1.619  0.00  0.00     0.092 A 
ATOM      4  O   UNL d   1      13.262  11.780  -1.576  0.00  0.00    -0.258 OA
ATOM      5  C   UNL d   1      13.833  12.168  -1.120  0.00  0.00     0.121 A 
ATOM      6  O   UNL d   1      12.892  11.780  -2.998  0.00  0.00    -0.237 OA
ATOM      7  C   UNL d   1      14.883  13.118  -1.323  0.00  0.00     0.020 A 
ATOM      8  C   UNL d   1      14.016  12.145  -0.312  0.00  0.00     0.026 A 
ATOM      9  C   UNL d   1      15.063  13.093  -0.522  0.00  0.00     0.002 A 
ATOM     10  C   UNL d   1      14.628  12.605  -0.016  0.00  0.00     0.002 A 
ATOM     11  C   UNL d   1      15.676  13.553  -0.223  0.00  0.00     0.000 C 
ENDROOT
BRANCH   1  12
ATOM     12  C   UNL d   1      14.274  12.978  -3.038  0.00  0.00     0.087 C 
BRANCH  12  13
ATOM     13  C   UNL d   1      13.771  13.220  -3.648  0.00  0.00     0.041 A 
ATOM     14  C   UNL d   1      13.723  14.004  -3.853  0.00  0.00     0.102 A 
ATOM     15  C   UNL d   1      13.225  14.242  -4.457  0.00  0.00     0.025 A 
ATOM     16  C   UNL d   1      12.770  13.687  -4.859  0.00  0.00     0.002 A 
ATOM     17  C   UNL d   1      12.819  12.890  -4.650  0.00  0.00     0.000 A 
ATOM     18  C   UNL d   1      13.323  12.657  -4.041  0.00  0.00     0.004 A 
BRANCH  14  19
ATOM     19  O   UNL d   1      14.179  14.568  -3.452  0.00  0.00    -0.305 OA
BRANCH  19  20
ATOM     20  C   UNL d   1      14.282  15.321  -3.774  0.00  0.00     0.123 C 
ATOM     21  C   UNL d   1      14.582  15.935  -3.307  0.00  0.00     0.029 C 
ENDBRANCH  19  20
ENDBRANCH  14  19
ENDBRANCH  12  13
ENDBRANCH   1  12
TORSDOF 4
ENDMDL
MODEL 2
REMARK VINA RESULT:      27.7      1.705      3.433
REMARK  4 active torsions:
REMARK  status: ('A' for Active; 'I' for Inactive)
REMARK    1  A    between atoms: C_5  and  N_1 
REMARK    2  A    between atoms: C_7  and  C_5 
REMARK    3  A    between atoms: O_14  and  C_10 
REMARK    4  A    between atoms: C_17  and  O_14 
ROOT
ATOM      1  N   UNL d   1      15.191  13.720  -0.961  0.00  0.00    -0.251 N 
ATOM      2  C   UNL d   1      15.707  13.457  -0.368  0.00  0.00     0.378 A 
ATOM      3  C   UNL d   1      15.212  14.547  -0.973  0.00  0.00     0.092 A 
ATOM      4  O   UNL d   1      16.046  14.123  -0.014  0.00  0.00    -0.258 OA
ATOM      5  C   UNL d   1      15.741  14.795  -0.389  0.00  0.00     0.121 A 
ATOM      6  O   UNL d   1      15.857  12.674  -0.165  0.00  0.00    -0.237 OA
ATOM      7  C   UNL d   1      14.819  15.094  -1.441  0.00  0.00     0.020 A 
ATOM      8  C   UNL d   1      15.870  15.606  -0.278  0.00  0.00     0.026 A 
ATOM      9  C   UNL d   1      14.949  15.896  -1.329  0.00  0.00     0.002 A 
ATOM     10  C   UNL d   1      15.475  16.153  -0.747  0.00  0.00     0.002 A 
ATOM     11  C   UNL d   1      14.554  16.447  -1.798  0.00  0.00     0.000 C 
ENDROOT
BRANCH   1  12
ATOM     12  C   UNL d   1      14.722  13.271  -1.470  0.00  0.00     0.087 C 
BRANCH  12  13
ATOM     13  C   UNL d   1      14.139  12.769  -1.167  0.00  0.00     0.041 A 
ATOM     14  C   UNL d   1      13.702  12.301  -1.666  0.00  0.00     0.102 A 
ATOM     15  C   UNL d   1      13.125  11.805  -1.364  0.00  0.00     0.025 A 
ATOM     16  C   UNL d   1      12.986  11.779  -0.554  0.00  0.00     0.002 A 
ATOM     17  C   UNL d   1      13.431  12.256  -0.047  0.00  0.00     0.000 A 
ATOM     18  C   UNL d   1      14.010  12.753  -0.358  0.00  0.00     0.004 A 
BRANCH  14  19
ATOM     19  O   UNL d   1      13.838  12.323  -2.482  0.00  0.00    -0.305 OA
BRANCH  19  20
ATOM     20  C   UNL d   1      13.313  11.949  -2.999  0.00  0.00     0.123 C 
ATOM     21  C   UNL d   1      13.533  11.807  -3.784  0.00  0.00     0.029 C 
ENDBRANCH  19  20
ENDBRANCH  14  19
ENDBRANCH  12  13
ENDBRANCH   1  12
TORSDOF 4
ENDMDL
