MODEL 1
REMARK VINA RESULT:      -2.8      0.000      0.000
REMARK  2 active torsions:
REMARK  status: ('A' for Active; 'I' for Inactive)
REMARK    1  A    between atoms: C_6  and  C_1 
REMARK    2  A    between atoms: C_7  and  C_5 
ROOT
ATOM      1  C   UNL d   1      32.061  16.917 -23.614  0.00  0.00     0.085 A 
ATOM      2  C   UNL d   1      32.307  16.129 -23.621  0.00  0.00     0.137 A 
ATOM      3  C   UNL d   1      31.250  16.948 -23.607  0.00  0.00     0.013 A 
ATOM      4  S   UNL d   1      31.625  15.668 -23.619  0.00  0.00    -0.066 SA
ATOM      5  C   UNL d   1      30.984  16.161 -23.610  0.00  0.00     0.031 A 
ATOM      6  N   UNL d   1      33.097  15.886 -23.629  0.00  0.00    -0.141 N 
ENDROOT
BRANCH   5   7
ATOM      7  C   UNL d   1      30.190  15.970 -23.605  0.00  0.00     0.006 A 
ATOM      8  C   UNL d   1      29.859  15.649 -22.939  0.00  0.00     0.001 A 
ATOM      9  C   UNL d   1      29.055  15.453 -22.927  0.00  0.00     0.000 A 
ATOM     10  C   UNL d   1      28.592  15.583 -23.587  0.00  0.00     0.000 A 
ATOM     11  C   UNL d   1      28.928  15.910 -24.266  0.00  0.00     0.000 A 
ATOM     12  C   UNL d   1      29.722  16.101 -24.272  0.00  0.00     0.001 A 
ENDBRANCH   5   7
BRANCH   1  13
ATOM     13  C   UNL d   1      32.562  17.595 -23.614  0.00  0.00     0.299 C 
ATOM     14  O   UNL d   1      32.793  17.929 -22.909  0.00  0.00    -0.264 OA
ATOM     15  N   UNL d   1      32.808  17.907 -24.331  0.00  0.00    -0.102 N 
ENDBRANCH   1  13
TORSDOF 2
ENDMDL
MODEL 2
REMARK VINA RESULT:      -2.8      2.245      3.426
REMARK  2 active torsions:
REMARK  status: ('A' for Active; 'I' for Inactive)
REMARK    1  A    between atoms: C_6  and  C_1 
REMARK    2  A    between atoms: C_7  and  C_5 
ROOT
ATOM      1  C   UNL d   1      29.206  16.451 -23.950  0.00  0.00     0.085 A 
ATOM      2  C   UNL d   1      29.387  16.922 -24.604  0.00  0.00     0.137 A 
ATOM      3  C   UNL d   1      29.893  16.189 -23.606  0.00  0.00     0.013 A 
ATOM      4  S   UNL d   1      30.208  16.947 -24.658  0.00  0.00    -0.066 SA
ATOM      5  C   UNL d   1      30.517  16.505 -24.055  0.00  0.00     0.031 A 
ATOM      6  N   UNL d   1      28.824  17.284 -25.089  0.00  0.00    -0.141 N 
ENDROOT
BRANCH   5   7
ATOM      7  C   UNL d   1      31.300  16.360 -23.874  0.00  0.00     0.006 A 
ATOM      8  C   UNL d   1      31.752  16.949 -23.550  0.00  0.00     0.001 A 
ATOM      9  C   UNL d   1      32.547  16.809 -23.364  0.00  0.00     0.000 A 
ATOM     10  C   UNL d   1      32.877  16.076 -23.507  0.00  0.00     0.000 A 
ATOM     11  C   UNL d   1      32.418  15.476 -23.837  0.00  0.00     0.000 A 
ATOM     12  C   UNL d   1      31.634  15.620 -24.018  0.00  0.00     0.001 A 
ENDBRANCH   5   7
BRANCH   1  13
ATOM     13  C   UNL d   1      28.434  16.262 -23.672  0.00  0.00     0.299 C 
ATOM     14  O   UNL d   1      28.006  16.814 -23.255  0.00  0.00    -0.264 OA
ATOM     15  N   UNL d   1      28.127  15.517 -23.827  0.00  0.00    -0.102 N 
ENDBRANCH   1  13
TORSDOF 2
ENDMDL
MODEL 3
REMARK VINA RESULT:      -2.7      1.956      3.400
REMARK  2 active torsions:
REMARK  status: ('A' for Active; 'I' for Inactive)
REMARK    1  A    between atoms: C_6  and  C_1 
REMARK    2  A    between atoms: C_7  and  C_5 
ROOT
ATOM      1  C   UNL d   1      30.096  16.630 -24.136  0.00  0.00     0.085 A 
ATOM      2  C   UNL d   1      30.553  16.146 -23.647  0.00  0.00     0.137 A 
ATOM      3  C   UNL d   1      30.542  17.260 -24.387  0.00  0.00     0.013 A 
ATOM      4  S   UNL d   1      31.298  16.493 -23.600  0.00  0.00    -0.066 SA
ATOM      5  C   UNL d   1      31.294  17.167 -24.047  0.00  0.00     0.031 A 
ATOM      6  N   UNL d   1      30.280  15.453 -23.289  0.00  0.00    -0.141 N 
ENDROOT
BRANCH   5   7
ATOM      7  C   UNL d   1      31.899  17.701 -24.176  0.00  0.00     0.006 A 
ATOM      8  C   UNL d   1      32.258  18.060 -23.544  0.00  0.00     0.001 A 
ATOM      9  C   UNL d   1      32.872  18.602 -23.667  0.00  0.00     0.000 A 
ATOM     10  C   UNL d   1      33.117  18.776 -24.426  0.00  0.00     0.000 A 
ATOM     11  C   UNL d   1      32.753  18.411 -25.070  0.00  0.00     0.000 A 
ATOM     12  C   UNL d   1      32.148  17.877 -24.942  0.00  0.00     0.001 A 
ENDBRANCH   5   7
BRANCH   1  13
ATOM     13  C   UNL d   1      29.291  16.503 -24.350  0.00  0.00     0.299 C 
ATOM     14  O   UNL d   1      28.697  16.873 -23.935  0.00  0.00    -0.264 OA
ATOM     15  N   UNL d   1      29.121  16.005 -24.979  0.00  0.00    -0.102 N 
ENDBRANCH   1  13
TORSDOF 2
ENDMDL
MODEL 4
REMARK VINA RESULT:      -2.0      6.545      7.231
REMARK  2 active torsions:
REMARK  status: ('A' for Active; 'I' for Inactive)
REMARK    1  A    between atoms: C_6  and  C_1 
REMARK    2  A    between atoms: C_7  and  C_5 
ROOT
ATOM      1  C   UNL d   1      32.631  22.345 -21.292  0.00  0.00     0.085 A 
ATOM      2  C   UNL d   1      32.752  23.154 -21.176  0.00  0.00     0.137 A 
ATOM      3  C   UNL d   1      32.687  22.173 -22.084  0.00  0.00     0.013 A 
ATOM      4  S   UNL d   1      32.885  23.482 -21.919  0.00  0.00    -0.066 SA
ATOM      5  C   UNL d   1      32.846  22.891 -22.470  0.00  0.00     0.031 A 
ATOM      6  N   UNL d   1      32.736  23.527 -20.439  0.00  0.00    -0.141 N 
ENDROOT
BRANCH   5   7
ATOM      7  C   UNL d   1      32.940  22.938 -23.280  0.00  0.00     0.006 A 
ATOM      8  C   UNL d   1      32.828  23.648 -23.656  0.00  0.00     0.001 A 
ATOM      9  C   UNL d   1      32.922  23.702 -24.477  0.00  0.00     0.000 A 
ATOM     10  C   UNL d   1      33.126  23.041 -24.910  0.00  0.00     0.000 A 
ATOM     11  C   UNL d   1      33.240  22.319 -24.529  0.00  0.00     0.000 A 
ATOM     12  C   UNL d   1      33.146  22.271 -23.718  0.00  0.00     0.001 A 
ENDBRANCH   5   7
BRANCH   1  13
ATOM     13  C   UNL d   1      32.473  21.774 -20.693  0.00  0.00     0.299 C 
ATOM     14  O   UNL d   1      31.705  21.590 -20.500  0.00  0.00    -0.264 OA
ATOM     15  N   UNL d   1      33.104  21.412 -20.313  0.00  0.00    -0.102 N 
ENDBRANCH   1  13
TORSDOF 2
ENDMDL
MODEL 5
REMARK VINA RESULT:      -1.9      1.799      2.533
REMARK  2 active torsions:
REMARK  status: ('A' for Active; 'I' for Inactive)
REMARK    1  A    between atoms: C_6  and  C_1 
REMARK    2  A    between atoms: C_7  and  C_5 
ROOT
ATOM      1  C   UNL d   1      32.867  18.807 -23.387  0.00  0.00     0.085 A 
ATOM      2  C   UNL d   1      32.926  18.900 -24.206  0.00  0.00     0.137 A 
ATOM      3  C   UNL d   1      32.534  18.085 -23.220  0.00  0.00     0.013 A 
ATOM      4  S   UNL d   1      32.621  18.216 -24.545  0.00  0.00    -0.066 SA
ATOM      5  C   UNL d   1      32.383  17.721 -23.951  0.00  0.00     0.031 A 
ATOM      6  N   UNL d   1      33.239  19.569 -24.578  0.00  0.00    -0.141 N 
ENDROOT
BRANCH   5   7
ATOM      7  C   UNL d   1      32.045  16.979 -24.006  0.00  0.00     0.006 A 
ATOM      8  C   UNL d   1      32.519  16.328 -24.099  0.00  0.00     0.001 A 
ATOM      9  C   UNL d   1      32.184  15.574 -24.156  0.00  0.00     0.000 A 
ATOM     10  C   UNL d   1      31.373  15.482 -24.117  0.00  0.00     0.000 A 
ATOM     11  C   UNL d   1      30.889  16.144 -24.022  0.00  0.00     0.000 A 
ATOM     12  C   UNL d   1      31.226  16.886 -23.967  0.00  0.00     0.001 A 
ENDBRANCH   5   7
BRANCH   1  13
ATOM     13  C   UNL d   1      33.109  19.364 -22.804  0.00  0.00     0.299 C 
ATOM     14  O   UNL d   1      33.209  19.126 -22.032  0.00  0.00    -0.264 OA
ATOM     15  N   UNL d   1      33.241  20.142 -23.027  0.00  0.00    -0.102 N 
ENDBRANCH   1  13
TORSDOF 2
ENDMDL
MODEL 6
REMARK VINA RESULT:      -1.5      5.744      6.859
REMARK  2 active torsions:
REMARK  status: ('A' for Active; 'I' for Inactive)
REMARK    1  A    between atoms: C_6  and  C_1 
REMARK    2  A    between atoms: C_7  and  C_5 
ROOT
ATOM      1  C   UNL d   1      32.655  22.545 -19.817  0.00  0.00     0.085 A 
ATOM      2  C   UNL d   1      32.176  22.957 -20.350  0.00  0.00     0.137 A 
ATOM      3  C   UNL d   1      32.953  21.882 -20.178  0.00  0.00     0.013 A 
ATOM      4  S   UNL d   1      32.184  22.531 -21.053  0.00  0.00    -0.066 SA
ATOM      5  C   UNL d   1      32.654  21.880 -20.953  0.00  0.00     0.031 A 
ATOM      6  N   UNL d   1      31.779  23.660 -20.173  0.00  0.00    -0.141 N 
ENDROOT
BRANCH   5   7
ATOM      7  C   UNL d   1      32.836  21.291 -21.489  0.00  0.00     0.006 A 
ATOM      8  C   UNL d   1      32.800  20.514 -21.258  0.00  0.00     0.001 A 
ATOM      9  C   UNL d   1      32.983  19.912 -21.796  0.00  0.00     0.000 A 
ATOM     10  C   UNL d   1      33.200  20.099 -22.561  0.00  0.00     0.000 A 
ATOM     11  C   UNL d   1      33.237  20.888 -22.796  0.00  0.00     0.000 A 
ATOM     12  C   UNL d   1      33.055  21.479 -22.261  0.00  0.00     0.001 A 
ENDBRANCH   5   7
BRANCH   1  13
ATOM     13  C   UNL d   1      32.818  22.766 -19.021  0.00  0.00     0.299 C 
ATOM     14  O   UNL d   1      33.177  22.237 -18.518  0.00  0.00    -0.264 OA
ATOM     15  N   UNL d   1      32.609  23.517 -18.766  0.00  0.00    -0.102 N 
ENDBRANCH   1  13
TORSDOF 2
ENDMDL
MODEL 7
REMARK VINA RESULT:      -1.2      3.378      4.215
REMARK  2 active torsions:
REMARK  status: ('A' for Active; 'I' for Inactive)
REMARK    1  A    between atoms: C_6  and  C_1 
REMARK    2  A    between atoms: C_7  and  C_5 
ROOT
ATOM      1  C   UNL d   1      32.961  20.384 -22.166  0.00  0.00     0.085 A 
ATOM      2  C   UNL d   1      33.118  20.669 -22.925  0.00  0.00     0.137 A 
ATOM      3  C   UNL d   1      32.871  19.577 -22.193  0.00  0.00     0.013 A 
ATOM      4  S   UNL d   1      33.124  20.017 -23.426  0.00  0.00    -0.066 SA
ATOM      5  C   UNL d   1      32.975  19.355 -22.986  0.00  0.00     0.031 A 
ATOM      6  N   UNL d   1      33.241  21.466 -23.108  0.00  0.00    -0.141 N 
ENDROOT
BRANCH   5   7
ATOM      7  C   UNL d   1      32.924  18.577 -23.231  0.00  0.00     0.006 A 
ATOM      8  C   UNL d   1      33.240  17.990 -22.769  0.00  0.00     0.001 A 
ATOM      9  C   UNL d   1      33.192  17.200 -23.011  0.00  0.00     0.000 A 
ATOM     10  C   UNL d   1      32.825  17.009 -23.715  0.00  0.00     0.000 A 
ATOM     11  C   UNL d   1      32.503  17.605 -24.186  0.00  0.00     0.000 A 
ATOM     12  C   UNL d   1      32.554  18.384 -23.942  0.00  0.00     0.001 A 
ENDBRANCH   5   7
BRANCH   1  13
ATOM     13  C   UNL d   1      32.900  20.844 -21.464  0.00  0.00     0.299 C 
ATOM     14  O   UNL d   1      32.780  21.647 -21.513  0.00  0.00    -0.264 OA
ATOM     15  N   UNL d   1      32.964  20.470 -20.736  0.00  0.00    -0.102 N 
ENDBRANCH   1  13
TORSDOF 2
ENDMDL
