MODEL 1
REMARK VINA RESULT:      -8.7      0.000      0.000
REMARK  5 active torsions:
REMARK  status: ('A' for Active; 'I' for Inactive)
REMARK    1  A    between atoms: C_9  and  S_1 
REMARK    2  A    between atoms: C_14  and  S_1 
REMARK    3  A    between atoms: C_7  and  C_10 
REMARK       I    between atoms: N_11  and  C_7 
REMARK    4  A    between atoms: C_10  and  C_9 
REMARK    5  A    between atoms: C_15  and  N_11 
ROOT
ATOM      1  C   UNL d   1      50.702  34.107  52.854  0.00  0.00     0.280 C 
ATOM      2  N   UNL d   1      51.491  34.268  52.654  0.00  0.00    -0.208 NA
ATOM      3  O   UNL d   1      50.538  33.535  53.440  0.00  0.00    -0.265 OA
ENDROOT
BRANCH   1   4
ATOM      4  C   UNL d   1      50.091  34.499  52.488  0.00  0.00     0.075 C 
BRANCH   4   5
ATOM      5  C   UNL d   1      49.562  34.823  52.896  0.00  0.00     0.104 C 
BRANCH   5   6
ATOM      6  S   UNL d   1      48.859  35.201  52.643  0.00  0.00     0.211 S 
ATOM      7  O   UNL d   1      48.926  34.840  51.896  0.00  0.00    -0.217 OA
ATOM      8  O   UNL d   1      48.795  35.565  53.402  0.00  0.00    -0.217 OA
BRANCH   6   9
ATOM      9  C   UNL d   1      48.164  35.577  52.399  0.00  0.00     0.088 A 
ATOM     10  C   UNL d   1      47.790  35.345  51.702  0.00  0.00     0.011 A 
ATOM     11  C   UNL d   1      47.093  35.722  51.456  0.00  0.00     0.001 A 
ATOM     12  C   UNL d   1      46.776  36.329  51.913  0.00  0.00     0.000 A 
ATOM     13  C   UNL d   1      47.142  36.570  52.613  0.00  0.00     0.001 A 
ATOM     14  C   UNL d   1      47.841  36.191  52.857  0.00  0.00     0.011 A 
ENDBRANCH   6   9
ENDBRANCH   5   6
ENDBRANCH   4   5
ENDBRANCH   1   4
BRANCH   2  15
ATOM     15  C   UNL d   1      52.111  33.875  53.021  0.00  0.00     0.085 A 
ATOM     16  C   UNL d   1      52.525  34.237  53.625  0.00  0.00     0.027 A 
ATOM     17  C   UNL d   1      53.141  33.837  53.984  0.00  0.00     0.050 A 
ATOM     18  S   UNL d   1      53.657  34.047  54.597  0.00  0.00    -0.066 SA
ATOM     19  C   UNL d   1      53.344  33.066  53.737  0.00  0.00     0.088 A 
ATOM     20  C   UNL d   1      54.175  33.421  54.734  0.00  0.00     0.111 A 
ATOM     21  C   UNL d   1      54.776  33.399  55.295  0.00  0.00     0.028 C 
ATOM     22  N   UNL d   1      53.974  32.810  54.192  0.00  0.00    -0.239 NA
ATOM     23  C   UNL d   1      52.927  32.711  53.135  0.00  0.00     0.021 A 
ATOM     24  C   UNL d   1      52.312  33.111  52.776  0.00  0.00     0.021 A 
ENDBRANCH   2  15
TORSDOF 5
ENDMDL
MODEL 2
REMARK VINA RESULT:      -8.4      1.412      5.672
REMARK  5 active torsions:
REMARK  status: ('A' for Active; 'I' for Inactive)
REMARK    1  A    between atoms: C_9  and  S_1 
REMARK    2  A    between atoms: C_14  and  S_1 
REMARK    3  A    between atoms: C_7  and  C_10 
REMARK       I    between atoms: N_11  and  C_7 
REMARK    4  A    between atoms: C_10  and  C_9 
REMARK    5  A    between atoms: C_15  and  N_11 
ROOT
ATOM      1  C   UNL d   1      50.946  34.108  52.546  0.00  0.00     0.280 C 
ATOM      2  N   UNL d   1      50.196  34.133  52.897  0.00  0.00    -0.208 NA
ATOM      3  O   UNL d   1      51.059  34.460  51.797  0.00  0.00    -0.265 OA
ENDROOT
BRANCH   1   4
ATOM      4  C   UNL d   1      51.570  33.746  52.922  0.00  0.00     0.075 C 
BRANCH   4   5
ATOM      5  C   UNL d   1      52.199  34.123  53.040  0.00  0.00     0.104 C 
BRANCH   5   6
ATOM      6  S   UNL d   1      52.863  33.906  53.503  0.00  0.00     0.211 S 
ATOM      7  O   UNL d   1      52.767  33.110  53.282  0.00  0.00    -0.217 OA
ATOM      8  O   UNL d   1      52.957  34.716  53.724  0.00  0.00    -0.217 OA
BRANCH   6   9
ATOM      9  C   UNL d   1      53.519  33.700  53.962  0.00  0.00     0.088 A 
ATOM     10  C   UNL d   1      54.078  33.168  53.671  0.00  0.00     0.011 A 
ATOM     11  C   UNL d   1      54.736  32.960  54.130  0.00  0.00     0.001 A 
ATOM     12  C   UNL d   1      54.829  33.288  54.879  0.00  0.00     0.000 A 
ATOM     13  C   UNL d   1      54.277  33.822  55.181  0.00  0.00     0.001 A 
ATOM     14  C   UNL d   1      53.617  34.029  54.718  0.00  0.00     0.011 A 
ENDBRANCH   6   9
ENDBRANCH   5   6
ENDBRANCH   4   5
ENDBRANCH   1   4
BRANCH   2  15
ATOM     15  C   UNL d   1      49.563  34.498  52.521  0.00  0.00     0.085 A 
ATOM     16  C   UNL d   1      49.108  35.045  52.922  0.00  0.00     0.027 A 
ATOM     17  C   UNL d   1      48.480  35.402  52.539  0.00  0.00     0.050 A 
ATOM     18  S   UNL d   1      47.927  35.966  52.786  0.00  0.00    -0.066 SA
ATOM     19  C   UNL d   1      48.306  35.209  51.745  0.00  0.00     0.088 A 
ATOM     20  C   UNL d   1      47.413  36.126  52.162  0.00  0.00     0.111 A 
ATOM     21  C   UNL d   1      46.783  36.653  52.172  0.00  0.00     0.028 C 
ATOM     22  N   UNL d   1      47.657  35.649  51.513  0.00  0.00    -0.239 NA
ATOM     23  C   UNL d   1      48.763  34.663  51.352  0.00  0.00     0.021 A 
ATOM     24  C   UNL d   1      49.390  34.306  51.735  0.00  0.00     0.021 A 
ENDBRANCH   2  15
TORSDOF 5
ENDMDL
MODEL 3
REMARK VINA RESULT:      -6.1     10.371     10.906
REMARK  5 active torsions:
REMARK  status: ('A' for Active; 'I' for Inactive)
REMARK    1  A    between atoms: C_9  and  S_1 
REMARK    2  A    between atoms: C_14  and  S_1 
REMARK    3  A    between atoms: C_7  and  C_10 
REMARK       I    between atoms: N_11  and  C_7 
REMARK    4  A    between atoms: C_10  and  C_9 
REMARK    5  A    between atoms: C_15  and  N_11 
ROOT
ATOM      1  C   UNL d   1      44.949  26.948  56.695  0.00  0.00     0.280 C 
ATOM      2  N   UNL d   1      44.314  26.436  56.550  0.00  0.00    -0.208 NA
ATOM      3  O   UNL d   1      45.728  26.650  56.670  0.00  0.00    -0.265 OA
ENDROOT
BRANCH   1   4
ATOM      4  C   UNL d   1      44.821  27.734  56.861  0.00  0.00     0.075 C 
BRANCH   4   5
ATOM      5  C   UNL d   1      45.215  28.068  57.395  0.00  0.00     0.104 C 
BRANCH   5   6
ATOM      6  S   UNL d   1      45.121  28.835  57.716  0.00  0.00     0.211 S 
ATOM      7  O   UNL d   1      45.097  29.161  56.950  0.00  0.00    -0.217 OA
ATOM      8  O   UNL d   1      45.147  28.502  58.491  0.00  0.00    -0.217 OA
BRANCH   6   9
ATOM      9  C   UNL d   1      45.029  29.591  58.040  0.00  0.00     0.088 A 
ATOM     10  C   UNL d   1      45.201  29.725  58.835  0.00  0.00     0.011 A 
ATOM     11  C   UNL d   1      45.109  30.482  59.162  0.00  0.00     0.001 A 
ATOM     12  C   UNL d   1      44.845  31.100  58.686  0.00  0.00     0.000 A 
ATOM     13  C   UNL d   1      44.670  30.978  57.888  0.00  0.00     0.001 A 
ATOM     14  C   UNL d   1      44.763  30.218  57.564  0.00  0.00     0.011 A 
ENDBRANCH   6   9
ENDBRANCH   5   6
ENDBRANCH   4   5
ENDBRANCH   1   4
BRANCH   2  15
ATOM     15  C   UNL d   1      44.439  25.642  56.381  0.00  0.00     0.085 A 
ATOM     16  C   UNL d   1      44.458  25.386  55.606  0.00  0.00     0.027 A 
ATOM     17  C   UNL d   1      44.582  24.593  55.449  0.00  0.00     0.050 A 
ATOM     18  S   UNL d   1      44.631  24.168  54.740  0.00  0.00    -0.066 SA
ATOM     19  C   UNL d   1      44.689  24.051  56.075  0.00  0.00     0.088 A 
ATOM     20  C   UNL d   1      44.766  23.374  54.915  0.00  0.00     0.111 A 
ATOM     21  C   UNL d   1      44.849  22.762  54.372  0.00  0.00     0.028 C 
ATOM     22  N   UNL d   1      44.801  23.307  55.753  0.00  0.00    -0.239 NA
ATOM     23  C   UNL d   1      44.669  24.313  56.846  0.00  0.00     0.021 A 
ATOM     24  C   UNL d   1      44.544  25.105  57.002  0.00  0.00     0.021 A 
ENDBRANCH   2  15
TORSDOF 5
ENDMDL
MODEL 4
REMARK VINA RESULT:      -5.9     10.204     10.902
REMARK  5 active torsions:
REMARK  status: ('A' for Active; 'I' for Inactive)
REMARK    1  A    between atoms: C_9  and  S_1 
REMARK    2  A    between atoms: C_14  and  S_1 
REMARK    3  A    between atoms: C_7  and  C_10 
REMARK       I    between atoms: N_11  and  C_7 
REMARK    4  A    between atoms: C_10  and  C_9 
REMARK    5  A    between atoms: C_15  and  N_11 
ROOT
ATOM      1  C   UNL d   1      44.940  29.753  58.974  0.00  0.00     0.280 C 
ATOM      2  N   UNL d   1      44.317  29.348  58.607  0.00  0.00    -0.208 NA
ATOM      3  O   UNL d   1      45.717  29.653  58.687  0.00  0.00    -0.265 OA
ENDROOT
BRANCH   1   4
ATOM      4  C   UNL d   1      44.802  30.245  59.607  0.00  0.00     0.075 C 
BRANCH   4   5
ATOM      5  C   UNL d   1      45.068  30.068  60.278  0.00  0.00     0.104 C 
BRANCH   5   6
ATOM      6  S   UNL d   1      44.878  30.397  61.023  0.00  0.00     0.211 S 
ATOM      7  O   UNL d   1      44.837  31.157  60.685  0.00  0.00    -0.217 OA
ATOM      8  O   UNL d   1      44.920  29.625  61.363  0.00  0.00    -0.217 OA
BRANCH   6   9
ATOM      9  C   UNL d   1      44.690  30.717  61.762  0.00  0.00     0.088 A 
ATOM     10  C   UNL d   1      44.647  31.534  61.862  0.00  0.00     0.011 A 
ATOM     11  C   UNL d   1      44.459  31.856  62.603  0.00  0.00     0.001 A 
ATOM     12  C   UNL d   1      44.314  31.354  63.240  0.00  0.00     0.000 A 
ATOM     13  C   UNL d   1      44.354  30.534  63.152  0.00  0.00     0.001 A 
ATOM     14  C   UNL d   1      44.543  30.214  62.408  0.00  0.00     0.011 A 
ENDBRANCH   6   9
ENDBRANCH   5   6
ENDBRANCH   4   5
ENDBRANCH   1   4
BRANCH   2  15
ATOM     15  C   UNL d   1      44.452  28.851  57.968  0.00  0.00     0.085 A 
ATOM     16  C   UNL d   1      44.464  28.041  58.075  0.00  0.00     0.027 A 
ATOM     17  C   UNL d   1      44.599  27.554  57.431  0.00  0.00     0.050 A 
ATOM     18  S   UNL d   1      44.645  26.731  57.358  0.00  0.00    -0.066 SA
ATOM     19  C   UNL d   1      44.723  27.882  56.673  0.00  0.00     0.088 A 
ATOM     20  C   UNL d   1      44.794  26.542  56.569  0.00  0.00     0.111 A 
ATOM     21  C   UNL d   1      44.880  25.787  56.257  0.00  0.00     0.028 C 
ATOM     22  N   UNL d   1      44.842  27.268  56.146  0.00  0.00    -0.239 NA
ATOM     23  C   UNL d   1      44.709  28.690  56.574  0.00  0.00     0.021 A 
ATOM     24  C   UNL d   1      44.574  29.175  57.217  0.00  0.00     0.021 A 
ENDBRANCH   2  15
TORSDOF 5
ENDMDL
