MODEL 1
REMARK VINA RESULT:      35.7      0.000      0.000
REMARK  3 active torsions:
REMARK  status: ('A' for Active; 'I' for Inactive)
REMARK    1  A    between atoms: N_2  and  C_1 
REMARK    2  A    between atoms: C_6  and  C_5 
REMARK       I    between atoms: N_13  and  C_6 
REMARK    3  A    between atoms: C_17  and  N_13 
ROOT
ATOM      1  C   UNL d   1     -54.811-101.787 -40.453  0.00  0.00     0.285 C 
ATOM      2  N   UNL d   1     -54.854-102.316 -41.128  0.00  0.00    -0.208 NA
ATOM      3  O   UNL d   1     -54.743-100.991 -40.522  0.00  0.00    -0.265 OA
ENDROOT
BRANCH   2   4
ATOM      4  C   UNL d   1     -54.820-101.936 -41.906  0.00  0.00     0.086 A 
ATOM      5  C   UNL d   1     -54.856-102.402 -42.593  0.00  0.00     0.039 A 
ATOM      6  C   UNL d   1     -54.824-102.040 -43.334  0.00  0.00     0.089 A 
ATOM      7  N   UNL d   1     -54.846-102.338 -44.093  0.00  0.00    -0.238 NA
ATOM      8  C   UNL d   1     -54.756-101.213 -43.387  0.00  0.00     0.049 A 
ATOM      9  C   UNL d   1     -54.794-101.721 -44.612  0.00  0.00     0.111 A 
ATOM     10  C   UNL d   1     -54.796-101.776 -45.437  0.00  0.00     0.028 C 
ATOM     11  S   UNL d   1     -54.739-101.041 -44.196  0.00  0.00    -0.066 SA
ATOM     12  C   UNL d   1     -54.721-100.758 -42.704  0.00  0.00     0.010 A 
ATOM     13  C   UNL d   1     -54.753-101.120 -41.963  0.00  0.00     0.020 A 
ENDBRANCH   2   4
BRANCH   1  14
ATOM     14  C   UNL d   1     -54.836-102.066 -39.685  0.00  0.00     0.089 A 
ATOM     15  S   UNL d   1     -54.764-101.595 -39.031  0.00  0.00    -0.059 SA
ATOM     16  C   UNL d   1     -54.823-102.119 -38.371  0.00  0.00     0.156 A 
ATOM     17  C   UNL d   1     -54.924-102.858 -38.620  0.00  0.00     0.031 A 
ATOM     18  C   UNL d   1     -54.936-102.853 -39.448  0.00  0.00     0.014 A 
BRANCH  16  19
ATOM     19  N   UNL d   1     -54.785-101.922 -37.584  0.00  0.00    -0.107 N 
ATOM     20  O   UNL d   1     -54.764-101.155 -37.261  0.00  0.00    -0.531 OA
ATOM     21  O   UNL d   1     -54.760-102.473 -36.974  0.00  0.00    -0.531 OA
ENDBRANCH  16  19
ENDBRANCH   1  14
TORSDOF 3
ENDMDL
