MODEL 1
REMARK VINA RESULT:       4.6      0.000      0.000
REMARK  3 active torsions:
REMARK  status: ('A' for Active; 'I' for Inactive)
REMARK    1  A    between atoms: C_6  and  C_1 
REMARK    2  A    between atoms: O_10  and  C_6 
REMARK    3  A    between atoms: C_19  and  O_10 
ROOT
ATOM      1  C   UNL d   1     -41.611-122.491 -52.928  0.00  0.00     0.081 A 
ATOM      2  C   UNL d   1     -41.398-122.460 -51.478  0.00  0.00     0.056 A 
ATOM      3  C   UNL d   1     -41.473-123.267 -51.450  0.00  0.00     0.080 A 
ATOM      4  C   UNL d   1     -41.686-123.298 -52.900  0.00  0.00     0.086 A 
ATOM      5  C   UNL d   1     -41.462-122.055 -52.195  0.00  0.00     0.013 A 
ATOM      6  N   UNL d   1     -41.617-123.720 -52.136  0.00  0.00    -0.246 NA
ATOM      7  C   UNL d   1     -41.256-122.025 -50.791  0.00  0.00     0.193 A 
ATOM      8  C   UNL d   1     -41.411-123.690 -50.733  0.00  0.00    -0.003 A 
ATOM      9  C   UNL d   1     -41.266-123.237 -50.041  0.00  0.00     0.042 A 
ATOM     10  C   UNL d   1     -41.191-122.430 -50.069  0.00  0.00     0.019 A 
ATOM     11  O   UNL d   1     -41.181-121.217 -50.820  0.00  0.00    -0.287 OA
ATOM     12  C   UNL d   1     -41.340-120.747 -52.241  0.00  0.00     0.020 A 
ATOM     13  N   UNL d   1     -41.338-119.565 -53.031  0.00  0.00    -0.242 NA
ATOM     14  C   UNL d   1     -41.830-123.751 -53.587  0.00  0.00     0.021 C 
ATOM     15  C   UNL d   1     -41.415-120.385 -53.002  0.00  0.00     0.099 A 
ATOM     16  C   UNL d   1     -41.243-123.814 -49.486  0.00  0.00     0.009 C 
ATOM     17  C   UNL d   1     -41.151-123.220 -49.256  0.00  0.00     0.009 C 
ATOM     18  C   UNL d   1     -41.191-119.146 -52.297  0.00  0.00     0.099 A 
ATOM     19  C   UNL d   1     -41.201-120.353 -51.548  0.00  0.00     0.003 A 
ATOM     20  C   UNL d   1     -41.125-119.533 -51.577  0.00  0.00     0.021 A 
ENDROOT
BRANCH   1  21
ATOM     21  C   UNL d   1     -41.675-122.086 -53.645  0.00  0.00     0.301 C 
ATOM     22  O   UNL d   1     -41.124-121.528 -53.857  0.00  0.00    -0.259 OA
BRANCH  21  23
ATOM     23  O   UNL d   1     -42.311-122.262 -54.142  0.00  0.00    -0.273 OA
BRANCH  23  24
ATOM     24  C   UNL d   1     -42.287-122.056 -54.870  0.00  0.00     0.103 C 
ATOM     25  C   UNL d   1     -42.813-121.552 -55.133  0.00  0.00     0.027 C 
ATOM     26  C   UNL d   1     -41.753-122.345 -55.327  0.00  0.00     0.027 C 
ENDBRANCH  23  24
ENDBRANCH  21  23
ENDBRANCH   1  21
TORSDOF 3
ENDMDL
