MODEL 1
REMARK VINA RESULT:      -4.7      0.000      0.000
REMARK  3 active torsions:
REMARK  status: ('A' for Active; 'I' for Inactive)
REMARK    1  A    between atoms: N_9  and  C_2 
REMARK    2  A    between atoms: C_11  and  N_9 
REMARK    3  A    between atoms: O_14  and  C_13 
ROOT
ATOM      1  C   UNL d   1      55.911   0.018  32.840  0.00  0.00     0.154 A 
ATOM      2  C   UNL d   1      56.409  -0.060  32.192  0.00  0.00     0.185 A 
ATOM      3  C   UNL d   1      55.621  -0.654  33.221  0.00  0.00     0.186 A 
ATOM      4  N   UNL d   1      55.611   0.682  33.227  0.00  0.00    -0.218 NA
ATOM      5  N   UNL d   1      55.142  -0.403  33.843  0.00  0.00    -0.203 NA
ATOM      6  N   UNL d   1      56.620  -0.810  31.922  0.00  0.00    -0.203 NA
ATOM      7  N   UNL d   1      55.828  -1.402  32.955  0.00  0.00    -0.203 NA
ATOM      8  C   UNL d   1      55.135   0.414  33.848  0.00  0.00     0.201 A 
ATOM      9  C   UNL d   1      56.329  -1.482  32.304  0.00  0.00     0.202 A 
ENDROOT
BRANCH   2  10
ATOM     10  N   UNL d   1      56.700   0.612  31.811  0.00  0.00    -0.225 NA
BRANCH  10  11
ATOM     11  C   UNL d   1      57.426   0.587  31.427  0.00  0.00     0.085 A 
ATOM     12  C   UNL d   1      57.454   0.467  30.610  0.00  0.00     0.043 A 
ATOM     13  C   UNL d   1      58.182   0.442  30.222  0.00  0.00     0.096 A 
ATOM     14  C   UNL d   1      58.881   0.537  30.650  0.00  0.00     0.024 A 
ATOM     15  C   UNL d   1      58.847   0.657  31.473  0.00  0.00     0.004 A 
ATOM     16  C   UNL d   1      58.125   0.682  31.855  0.00  0.00     0.019 A 
BRANCH  13  17
ATOM     17  O   UNL d   1      58.210   0.321  29.400  0.00  0.00    -0.328 OA
ATOM     18  C   UNL d   1      58.736  -0.229  29.080  0.00  0.00     0.181 C 
ENDBRANCH  13  17
ENDBRANCH  10  11
ENDBRANCH   2  10
TORSDOF 3
ENDMDL
MODEL 2
REMARK VINA RESULT:      -3.9      9.056     10.182
REMARK  3 active torsions:
REMARK  status: ('A' for Active; 'I' for Inactive)
REMARK    1  A    between atoms: N_9  and  C_2 
REMARK    2  A    between atoms: C_11  and  N_9 
REMARK    3  A    between atoms: O_14  and  C_13 
ROOT
ATOM      1  C   UNL d   1      59.109  -9.624  33.075  0.00  0.00     0.154 A 
ATOM      2  C   UNL d   1      59.558  -9.509  33.752  0.00  0.00     0.185 A 
ATOM      3  C   UNL d   1      59.475  -9.655  32.336  0.00  0.00     0.186 A 
ATOM      4  N   UNL d   1      58.298  -9.725  32.963  0.00  0.00    -0.218 NA
ATOM      5  N   UNL d   1      58.890  -9.775  31.769  0.00  0.00    -0.203 NA
ATOM      6  N   UNL d   1      60.376  -9.424  33.695  0.00  0.00    -0.203 NA
ATOM      7  N   UNL d   1      60.290  -9.570  32.275  0.00  0.00    -0.203 NA
ATOM      8  C   UNL d   1      58.169  -9.818  32.151  0.00  0.00     0.201 A 
ATOM      9  C   UNL d   1      60.743  -9.454  32.956  0.00  0.00     0.202 A 
ENDROOT
BRANCH   2  10
ATOM     10  N   UNL d   1      59.191  -9.478  34.491  0.00  0.00    -0.225 NA
BRANCH  10  11
ATOM     11  C   UNL d   1      59.530  -9.046  35.102  0.00  0.00     0.085 A 
ATOM     12  C   UNL d   1      59.314  -8.257  35.215  0.00  0.00     0.043 A 
ATOM     13  C   UNL d   1      59.653  -7.821  35.829  0.00  0.00     0.096 A 
ATOM     14  C   UNL d   1      60.207  -8.173  36.329  0.00  0.00     0.024 A 
ATOM     15  C   UNL d   1      60.421  -8.970  36.211  0.00  0.00     0.004 A 
ATOM     16  C   UNL d   1      60.083  -9.399  35.602  0.00  0.00     0.019 A 
BRANCH  13  17
ATOM     17  O   UNL d   1      59.436  -7.026  35.942  0.00  0.00    -0.328 OA
ATOM     18  C   UNL d   1      60.010  -6.461  36.121  0.00  0.00     0.181 C 
ENDBRANCH  13  17
ENDBRANCH  10  11
ENDBRANCH   2  10
TORSDOF 3
ENDMDL
MODEL 3
REMARK VINA RESULT:      -3.7      1.815      3.649
REMARK  3 active torsions:
REMARK  status: ('A' for Active; 'I' for Inactive)
REMARK    1  A    between atoms: N_9  and  C_2 
REMARK    2  A    between atoms: C_11  and  N_9 
REMARK    3  A    between atoms: O_14  and  C_13 
ROOT
ATOM      1  C   UNL d   1      57.359  -0.026  31.070  0.00  0.00     0.154 A 
ATOM      2  C   UNL d   1      56.882  -0.029  31.737  0.00  0.00     0.185 A 
ATOM      3  C   UNL d   1      57.536  -0.733  30.684  0.00  0.00     0.186 A 
ATOM      4  N   UNL d   1      57.734   0.587  30.665  0.00  0.00    -0.218 NA
ATOM      5  N   UNL d   1      58.020  -0.556  30.042  0.00  0.00    -0.203 NA
ATOM      6  N   UNL d   1      56.578  -0.741  32.023  0.00  0.00    -0.203 NA
ATOM      7  N   UNL d   1      57.236  -1.444  30.966  0.00  0.00    -0.203 NA
ATOM      8  C   UNL d   1      58.142   0.252  30.029  0.00  0.00     0.201 A 
ATOM      9  C   UNL d   1      56.755  -1.448  31.637  0.00  0.00     0.202 A 
ENDROOT
BRANCH   2  10
ATOM     10  N   UNL d   1      56.705   0.679  32.123  0.00  0.00    -0.225 NA
BRANCH  10  11
ATOM     11  C   UNL d   1      56.535   0.680  32.927  0.00  0.00     0.085 A 
ATOM     12  C   UNL d   1      55.749   0.680  33.180  0.00  0.00     0.043 A 
ATOM     13  C   UNL d   1      55.576   0.681  33.988  0.00  0.00     0.096 A 
ATOM     14  C   UNL d   1      56.188   0.682  34.541  0.00  0.00     0.024 A 
ATOM     15  C   UNL d   1      56.979   0.681  34.280  0.00  0.00     0.004 A 
ATOM     16  C   UNL d   1      57.147   0.680  33.480  0.00  0.00     0.019 A 
BRANCH  13  17
ATOM     17  O   UNL d   1      54.784   0.682  34.242  0.00  0.00    -0.328 OA
ATOM     18  C   UNL d   1      54.609   0.648  35.048  0.00  0.00     0.181 C 
ENDBRANCH  13  17
ENDBRANCH  10  11
ENDBRANCH   2  10
TORSDOF 3
ENDMDL
MODEL 4
REMARK VINA RESULT:      -2.9      3.046      4.772
REMARK  3 active torsions:
REMARK  status: ('A' for Active; 'I' for Inactive)
REMARK    1  A    between atoms: N_9  and  C_2 
REMARK    2  A    between atoms: C_11  and  N_9 
REMARK    3  A    between atoms: O_14  and  C_13 
ROOT
ATOM      1  C   UNL d   1      59.210  -2.686  28.734  0.00  0.00     0.154 A 
ATOM      2  C   UNL d   1      59.283  -1.880  28.870  0.00  0.00     0.185 A 
ATOM      3  C   UNL d   1      59.861  -3.183  28.834  0.00  0.00     0.186 A 
ATOM      4  N   UNL d   1      58.568  -3.148  28.499  0.00  0.00    -0.218 NA
ATOM      5  N   UNL d   1      59.620  -3.951  28.660  0.00  0.00    -0.203 NA
ATOM      6  N   UNL d   1      60.009  -1.566  29.106  0.00  0.00    -0.203 NA
ATOM      7  N   UNL d   1      60.585  -2.874  29.069  0.00  0.00    -0.203 NA
ATOM      8  C   UNL d   1      58.829  -3.931  28.455  0.00  0.00     0.201 A 
ATOM      9  C   UNL d   1      60.660  -2.064  29.205  0.00  0.00     0.202 A 
ENDROOT
BRANCH   2  10
ATOM     10  N   UNL d   1      58.633  -1.382  28.770  0.00  0.00    -0.225 NA
BRANCH  10  11
ATOM     11  C   UNL d   1      58.558  -0.704  29.227  0.00  0.00     0.085 A 
ATOM     12  C   UNL d   1      58.146  -0.734  29.942  0.00  0.00     0.043 A 
ATOM     13  C   UNL d   1      58.069  -0.053  30.403  0.00  0.00     0.096 A 
ATOM     14  C   UNL d   1      58.404   0.657  30.150  0.00  0.00     0.024 A 
ATOM     15  C   UNL d   1      58.819   0.682  29.428  0.00  0.00     0.004 A 
ATOM     16  C   UNL d   1      58.893   0.006  28.974  0.00  0.00     0.019 A 
BRANCH  13  17
ATOM     17  O   UNL d   1      57.654  -0.085  31.123  0.00  0.00    -0.328 OA
ATOM     18  C   UNL d   1      57.357   0.607  31.460  0.00  0.00     0.181 C 
ENDBRANCH  13  17
ENDBRANCH  10  11
ENDBRANCH   2  10
TORSDOF 3
ENDMDL
MODEL 5
REMARK VINA RESULT:      -2.7      8.715      9.784
REMARK  3 active torsions:
REMARK  status: ('A' for Active; 'I' for Inactive)
REMARK    1  A    between atoms: N_9  and  C_2 
REMARK    2  A    between atoms: C_11  and  N_9 
REMARK    3  A    between atoms: O_14  and  C_13 
ROOT
ATOM      1  C   UNL d   1      59.647  -8.116  35.447  0.00  0.00     0.154 A 
ATOM      2  C   UNL d   1      60.030  -8.741  35.079  0.00  0.00     0.185 A 
ATOM      3  C   UNL d   1      59.129  -8.259  36.073  0.00  0.00     0.186 A 
ATOM      4  N   UNL d   1      59.670  -7.302  35.315  0.00  0.00    -0.218 NA
ATOM      5  N   UNL d   1      58.833  -7.533  36.326  0.00  0.00    -0.203 NA
ATOM      6  N   UNL d   1      59.897  -9.514  35.335  0.00  0.00    -0.203 NA
ATOM      7  N   UNL d   1      58.994  -9.027  36.330  0.00  0.00    -0.203 NA
ATOM      8  C   UNL d   1      59.163  -6.947  35.863  0.00  0.00     0.201 A 
ATOM      9  C   UNL d   1      59.379  -9.657  35.960  0.00  0.00     0.202 A 
ENDROOT
BRANCH   2  10
ATOM     10  N   UNL d   1      60.549  -8.598  34.453  0.00  0.00    -0.225 NA
BRANCH  10  11
ATOM     11  C   UNL d   1      60.460  -9.001  33.743  0.00  0.00     0.085 A 
ATOM     12  C   UNL d   1      59.717  -9.043  33.385  0.00  0.00     0.043 A 
ATOM     13  C   UNL d   1      59.625  -9.447  32.671  0.00  0.00     0.096 A 
ATOM     14  C   UNL d   1      60.275  -9.809  32.315  0.00  0.00     0.024 A 
ATOM     15  C   UNL d   1      61.023  -9.763  32.679  0.00  0.00     0.004 A 
ATOM     16  C   UNL d   1      61.110  -9.363  33.386  0.00  0.00     0.019 A 
BRANCH  13  17
ATOM     17  O   UNL d   1      58.875  -9.489  32.312  0.00  0.00    -0.328 OA
ATOM     18  C   UNL d   1      58.796  -9.816  31.558  0.00  0.00     0.181 C 
ENDBRANCH  13  17
ENDBRANCH  10  11
ENDBRANCH   2  10
TORSDOF 3
ENDMDL
MODEL 6
REMARK VINA RESULT:      -2.2      1.190      2.103
REMARK  3 active torsions:
REMARK  status: ('A' for Active; 'I' for Inactive)
REMARK    1  A    between atoms: N_9  and  C_2 
REMARK    2  A    between atoms: C_11  and  N_9 
REMARK    3  A    between atoms: O_14  and  C_13 
ROOT
ATOM      1  C   UNL d   1      55.114   0.664  34.151  0.00  0.00     0.154 A 
ATOM      2  C   UNL d   1      55.776   0.655  33.664  0.00  0.00     0.185 A 
ATOM      3  C   UNL d   1      55.203   0.674  34.971  0.00  0.00     0.186 A 
ATOM      4  N   UNL d   1      54.307   0.667  33.981  0.00  0.00    -0.218 NA
ATOM      5  N   UNL d   1      54.451   0.682  35.306  0.00  0.00    -0.203 NA
ATOM      6  N   UNL d   1      56.531   0.654  33.997  0.00  0.00    -0.203 NA
ATOM      7  N   UNL d   1      55.954   0.673  35.305  0.00  0.00    -0.203 NA
ATOM      8  C   UNL d   1      53.902   0.678  34.702  0.00  0.00     0.201 A 
ATOM      9  C   UNL d   1      56.620   0.663  34.817  0.00  0.00     0.202 A 
ENDROOT
BRANCH   2  10
ATOM     10  N   UNL d   1      55.687   0.645  32.844  0.00  0.00    -0.225 NA
BRANCH  10  11
ATOM     11  C   UNL d   1      56.224   0.238  32.375  0.00  0.00     0.085 A 
ATOM     12  C   UNL d   1      56.853   0.643  32.025  0.00  0.00     0.043 A 
ATOM     13  C   UNL d   1      57.394   0.236  31.553  0.00  0.00     0.096 A 
ATOM     14  C   UNL d   1      57.307  -0.576  31.431  0.00  0.00     0.024 A 
ATOM     15  C   UNL d   1      56.671  -0.980  31.787  0.00  0.00     0.004 A 
ATOM     16  C   UNL d   1      56.137  -0.573  32.253  0.00  0.00     0.019 A 
BRANCH  13  17
ATOM     17  O   UNL d   1      58.027   0.644  31.201  0.00  0.00    -0.328 OA
ATOM     18  C   UNL d   1      58.140   0.608  30.385  0.00  0.00     0.181 C 
ENDBRANCH  13  17
ENDBRANCH  10  11
ENDBRANCH   2  10
TORSDOF 3
ENDMDL
