MODEL 1
REMARK VINA RESULT:      57.5      0.000      0.000
REMARK  7 active torsions:
REMARK  status: ('A' for Active; 'I' for Inactive)
REMARK    1  A    between atoms: C_6  and  C_1 
REMARK    2  A    between atoms: C_7  and  C_3 
REMARK    3  A    between atoms: O_14  and  C_6 
REMARK    4  A    between atoms: C_8  and  C_7 
REMARK    5  A    between atoms: S_10  and  C_8 
REMARK    6  A    between atoms: C_13  and  S_10 
REMARK    7  A    between atoms: C_22  and  O_14 
ROOT
ATOM      1  C   UNL d   1      61.262  47.111  50.300  0.00  0.00     0.083 A 
ATOM      2  C   UNL d   1      61.238  47.933  50.243  0.00  0.00     0.028 A 
ATOM      3  C   UNL d   1      60.749  48.195  50.805  0.00  0.00     0.121 A 
ATOM      4  N   UNL d   1      60.455  47.544  51.227  0.00  0.00    -0.242 NA
ATOM      5  C   UNL d   1      60.784  46.908  50.897  0.00  0.00     0.087 A 
ATOM      6  C   UNL d   1      61.660  48.356  49.691  0.00  0.00     0.002 C 
ATOM      7  C   UNL d   1      60.662  46.090  51.128  0.00  0.00     0.021 C 
ENDROOT
BRANCH   3   8
ATOM      8  C   UNL d   1      60.617  49.016  50.879  0.00  0.00     0.220 C 
ATOM      9  O   UNL d   1      61.206  49.546  50.720  0.00  0.00    -0.284 OA
BRANCH   8  10
ATOM     10  C   UNL d   1      59.870  49.287  51.120  0.00  0.00     0.079 C 
BRANCH  10  11
ATOM     11  S   UNL d   1      59.398  49.698  50.604  0.00  0.00    -0.083 SA
BRANCH  11  12
ATOM     12  C   UNL d   1      58.566  49.691  50.722  0.00  0.00     0.030 A 
ATOM     13  C   UNL d   1      58.053  49.668  50.071  0.00  0.00     0.007 A 
ATOM     14  C   UNL d   1      57.263  49.662  50.206  0.00  0.00     0.012 A 
ATOM     15  C   UNL d   1      56.936  49.678  50.964  0.00  0.00     0.058 A 
ATOM     16  C   UNL d   1      57.444  49.700  51.577  0.00  0.00     0.012 A 
ATOM     17 CL   UNL d   1      56.117  49.672  51.124  0.00  0.00    -0.082 Cl
ATOM     18  C   UNL d   1      58.252  49.707  51.485  0.00  0.00     0.007 A 
ENDBRANCH  11  12
ENDBRANCH  10  11
ENDBRANCH   8  10
ENDBRANCH   3   8
BRANCH   1  19
ATOM     19  C   UNL d   1      61.714  46.596  49.808  0.00  0.00     0.302 C 
ATOM     20  O   UNL d   1      61.847  46.801  49.005  0.00  0.00    -0.259 OA
BRANCH  19  21
ATOM     21  O   UNL d   1      62.038  45.883  50.097  0.00  0.00    -0.271 OA
BRANCH  21  22
ATOM     22  C   UNL d   1      61.928  45.198  49.645  0.00  0.00     0.126 C 
ATOM     23  C   UNL d   1      62.567  44.876  49.200  0.00  0.00     0.029 C 
ENDBRANCH  21  22
ENDBRANCH  19  21
ENDBRANCH   1  19
TORSDOF 7
ENDMDL
MODEL 2
REMARK VINA RESULT:      58.1      2.123      4.587
REMARK  7 active torsions:
REMARK  status: ('A' for Active; 'I' for Inactive)
REMARK    1  A    between atoms: C_6  and  C_1 
REMARK    2  A    between atoms: C_7  and  C_3 
REMARK    3  A    between atoms: O_14  and  C_6 
REMARK    4  A    between atoms: C_8  and  C_7 
REMARK    5  A    between atoms: S_10  and  C_8 
REMARK    6  A    between atoms: C_13  and  S_10 
REMARK    7  A    between atoms: C_22  and  O_14 
ROOT
ATOM      1  C   UNL d   1      58.852  49.508  50.837  0.00  0.00     0.083 A 
ATOM      2  C   UNL d   1      59.491  49.361  50.339  0.00  0.00     0.028 A 
ATOM      3  C   UNL d   1      60.131  49.270  50.793  0.00  0.00     0.121 A 
ATOM      4  N   UNL d   1      59.906  49.358  51.587  0.00  0.00    -0.242 NA
ATOM      5  C   UNL d   1      59.131  49.500  51.577  0.00  0.00     0.087 A 
ATOM      6  C   UNL d   1      59.428  49.325  49.528  0.00  0.00     0.002 C 
ATOM      7  C   UNL d   1      58.626  49.633  52.259  0.00  0.00     0.021 C 
ENDROOT
BRANCH   3   8
ATOM      8  C   UNL d   1      60.868  49.113  50.433  0.00  0.00     0.220 C 
ATOM      9  O   UNL d   1      61.404  49.705  50.315  0.00  0.00    -0.284 OA
BRANCH   8  10
ATOM     10  C   UNL d   1      61.046  48.338  50.196  0.00  0.00     0.079 C 
BRANCH  10  11
ATOM     11  S   UNL d   1      61.062  47.736  50.740  0.00  0.00    -0.083 SA
BRANCH  11  12
ATOM     12  C   UNL d   1      61.209  46.953  50.474  0.00  0.00     0.030 A 
ATOM     13  C   UNL d   1      60.805  46.315  50.816  0.00  0.00     0.007 A 
ATOM     14  C   UNL d   1      60.960  45.575  50.547  0.00  0.00     0.012 A 
ATOM     15  C   UNL d   1      61.503  45.421  49.945  0.00  0.00     0.058 A 
ATOM     16  C   UNL d   1      61.881  46.045  49.628  0.00  0.00     0.012 A 
ATOM     17 CL   UNL d   1      61.678  44.658  49.652  0.00  0.00    -0.082 Cl
ATOM     18  C   UNL d   1      61.754  46.811  49.871  0.00  0.00     0.007 A 
ENDBRANCH  11  12
ENDBRANCH  10  11
ENDBRANCH   8  10
ENDBRANCH   3   8
BRANCH   1  19
ATOM     19  C   UNL d   1      58.056  49.640  50.591  0.00  0.00     0.302 C 
ATOM     20  O   UNL d   1      57.880  49.708  49.773  0.00  0.00    -0.259 OA
BRANCH  19  21
ATOM     21  O   UNL d   1      57.430  49.706  51.140  0.00  0.00    -0.271 OA
BRANCH  21  22
ATOM     22  C   UNL d   1      56.656  49.704  50.846  0.00  0.00     0.126 C 
ATOM     23  C   UNL d   1      56.197  48.998  50.866  0.00  0.00     0.029 C 
ENDBRANCH  21  22
ENDBRANCH  19  21
ENDBRANCH   1  19
TORSDOF 7
ENDMDL
