MODEL 1
REMARK VINA RESULT:      43.5      0.000      0.000
REMARK  6 active torsions:
REMARK  status: ('A' for Active; 'I' for Inactive)
REMARK    1  A    between atoms: N_2  and  S_1 
REMARK    2  A    between atoms: C_11  and  S_1 
REMARK    3  A    between atoms: C_3  and  N_2 
REMARK    4  A    between atoms: C_4  and  C_3 
REMARK    5  A    between atoms: N_5  and  C_4 
REMARK    6  A    between atoms: C_6  and  C_4 
ROOT
ATOM      1  C   UNL d   1      14.456  13.222  -1.315  0.00  0.00     0.089 C 
ENDROOT
BRANCH   1   2
ATOM      2  C   UNL d   1      13.820  12.953  -1.762  0.00  0.00     0.110 C 
ATOM      3  C   UNL d   1      13.190  12.568  -1.393  0.00  0.00     0.023 C 
BRANCH   2   4
ATOM      4  N   UNL d   1      13.811  13.068  -2.572  0.00  0.00    -0.157 NA
BRANCH   4   5
ATOM      5  S   UNL d   1      13.407  12.549  -3.067  0.00  0.00     0.285 S 
ATOM      6  O   UNL d   1      13.523  11.981  -2.474  0.00  0.00    -0.198 OA
ATOM      7  O   UNL d   1      13.120  11.781  -3.167  0.00  0.00    -0.198 OA
BRANCH   5   8
ATOM      8  C   UNL d   1      13.258  13.062  -3.691  0.00  0.00     0.105 A 
ATOM      9  C   UNL d   1      13.352  12.798  -4.467  0.00  0.00     0.013 A 
ATOM     10  C   UNL d   1      13.200  13.319  -5.089  0.00  0.00     0.001 A 
ATOM     11  C   UNL d   1      12.958  14.090  -4.944  0.00  0.00     0.000 A 
ATOM     12  C   UNL d   1      12.865  14.351  -4.167  0.00  0.00     0.001 A 
ATOM     13  C   UNL d   1      13.017  13.830  -3.546  0.00  0.00     0.013 A 
ENDBRANCH   5   8
ENDBRANCH   4   5
ENDBRANCH   2   4
ENDBRANCH   1   2
BRANCH   1  14
ATOM     14  N   UNL d   1      14.620  14.024  -1.272  0.00  0.00    -0.300 N 
ATOM     15  C   UNL d   1      14.649  14.404  -0.540  0.00  0.00     0.100 A 
ATOM     16  C   UNL d   1      14.815  15.215  -0.498  0.00  0.00     0.100 A 
ATOM     17  N   UNL d   1      14.953  15.646  -1.185  0.00  0.00    -0.299 N 
ATOM     18  C   UNL d   1      14.924  15.265  -1.921  0.00  0.00     0.100 A 
ATOM     19  C   UNL d   1      15.119  16.457  -1.140  0.00  0.00     0.100 C 
ATOM     20  C   UNL d   1      14.760  14.463  -1.963  0.00  0.00     0.100 A 
ENDBRANCH   1  14
BRANCH   1  21
ATOM     21  C   UNL d   1      14.929  12.682  -0.910  0.00  0.00     0.047 A 
ATOM     22  S   UNL d   1      14.715  12.256  -0.231  0.00  0.00    -0.085 SA
ATOM     23  C   UNL d   1      15.360  11.784  -0.019  0.00  0.00     0.035 A 
ATOM     24  C   UNL d   1      15.968  11.909  -0.550  0.00  0.00     0.007 A 
ATOM     25  C   UNL d   1      15.703  12.469  -1.108  0.00  0.00     0.009 A 
ENDBRANCH   1  21
TORSDOF 6
ENDMDL
MODEL 2
REMARK VINA RESULT:      45.0      1.938      3.490
REMARK  6 active torsions:
REMARK  status: ('A' for Active; 'I' for Inactive)
REMARK    1  A    between atoms: N_2  and  S_1 
REMARK    2  A    between atoms: C_11  and  S_1 
REMARK    3  A    between atoms: C_3  and  N_2 
REMARK    4  A    between atoms: C_4  and  C_3 
REMARK    5  A    between atoms: N_5  and  C_4 
REMARK    6  A    between atoms: C_6  and  C_4 
ROOT
ATOM      1  C   UNL d   1      13.580  13.161  -3.556  0.00  0.00     0.089 C 
ENDROOT
BRANCH   1   2
ATOM      2  C   UNL d   1      13.383  13.958  -3.607  0.00  0.00     0.110 C 
ATOM      3  C   UNL d   1      12.770  14.261  -3.147  0.00  0.00     0.023 C 
BRANCH   2   4
ATOM      4  N   UNL d   1      13.796  14.450  -4.114  0.00  0.00    -0.157 NA
BRANCH   4   5
ATOM      5  S   UNL d   1      13.470  15.160  -4.372  0.00  0.00     0.285 S 
ATOM      6  O   UNL d   1      12.778  14.725  -4.516  0.00  0.00    -0.198 OA
ATOM      7  O   UNL d   1      12.799  15.535  -4.678  0.00  0.00    -0.198 OA
BRANCH   5   8
ATOM      8  C   UNL d   1      14.119  15.649  -4.254  0.00  0.00     0.105 A 
ATOM      9  C   UNL d   1      14.275  15.944  -3.499  0.00  0.00     0.013 A 
ATOM     10  C   UNL d   1      14.929  16.434  -3.388  0.00  0.00     0.001 A 
ATOM     11  C   UNL d   1      15.423  16.629  -4.015  0.00  0.00     0.000 A 
ATOM     12  C   UNL d   1      15.264  16.332  -4.768  0.00  0.00     0.001 A 
ATOM     13  C   UNL d   1      14.610  15.842  -4.879  0.00  0.00     0.013 A 
ENDBRANCH   5   8
ENDBRANCH   4   5
ENDBRANCH   2   4
ENDBRANCH   1   2
BRANCH   1  14
ATOM     14  N   UNL d   1      13.867  12.851  -2.853  0.00  0.00    -0.300 N 
ATOM     15  C   UNL d   1      14.384  13.291  -2.385  0.00  0.00     0.100 A 
ATOM     16  C   UNL d   1      14.673  12.976  -1.675  0.00  0.00     0.100 A 
ATOM     17  N   UNL d   1      14.447  12.224  -1.433  0.00  0.00    -0.299 N 
ATOM     18  C   UNL d   1      13.927  11.780  -1.902  0.00  0.00     0.100 A 
ATOM     19  C   UNL d   1      14.737  11.911  -0.721  0.00  0.00     0.100 C 
ATOM     20  C   UNL d   1      13.640  12.091  -2.605  0.00  0.00     0.100 A 
ENDBRANCH   1  14
BRANCH   1  21
ATOM     21  C   UNL d   1      13.489  12.673  -4.215  0.00  0.00     0.047 A 
ATOM     22  S   UNL d   1      12.769  12.434  -4.549  0.00  0.00    -0.085 SA
ATOM     23  C   UNL d   1      12.944  11.951  -5.198  0.00  0.00     0.035 A 
ATOM     24  C   UNL d   1      13.755  11.886  -5.270  0.00  0.00     0.007 A 
ATOM     25  C   UNL d   1      14.099  12.336  -4.659  0.00  0.00     0.009 A 
ENDBRANCH   1  21
TORSDOF 6
ENDMDL
MODEL 3
REMARK VINA RESULT:      46.4      8.806     10.232
REMARK  6 active torsions:
REMARK  status: ('A' for Active; 'I' for Inactive)
REMARK    1  A    between atoms: N_2  and  S_1 
REMARK    2  A    between atoms: C_11  and  S_1 
REMARK    3  A    between atoms: C_3  and  N_2 
REMARK    4  A    between atoms: C_4  and  C_3 
REMARK    5  A    between atoms: N_5  and  C_4 
REMARK    6  A    between atoms: C_6  and  C_4 
ROOT
ATOM      1  C   UNL d   1      23.405  12.752  -3.256  0.00  0.00     0.089 C 
ENDROOT
BRANCH   1   2
ATOM      2  C   UNL d   1      23.856  12.459  -2.633  0.00  0.00     0.110 C 
ATOM      3  C   UNL d   1      24.480  11.941  -2.784  0.00  0.00     0.023 C 
BRANCH   2   4
ATOM      4  N   UNL d   1      23.686  12.683  -1.864  0.00  0.00    -0.157 NA
BRANCH   4   5
ATOM      5  S   UNL d   1      24.219  12.537  -1.255  0.00  0.00     0.285 S 
ATOM      6  O   UNL d   1      24.350  11.804  -1.620  0.00  0.00    -0.198 OA
ATOM      7  O   UNL d   1      24.757  12.000  -0.928  0.00  0.00    -0.198 OA
BRANCH   5   8
ATOM      8  C   UNL d   1      24.138  13.244  -0.844  0.00  0.00     0.105 A 
ATOM      9  C   UNL d   1      24.765  13.779  -0.826  0.00  0.00     0.013 A 
ATOM     10  C   UNL d   1      24.676  14.487  -0.411  0.00  0.00     0.001 A 
ATOM     11  C   UNL d   1      23.975  14.661  -0.019  0.00  0.00     0.000 A 
ATOM     12  C   UNL d   1      23.350  14.123  -0.039  0.00  0.00     0.001 A 
ATOM     13  C   UNL d   1      23.440  13.416  -0.454  0.00  0.00     0.013 A 
ENDBRANCH   5   8
ENDBRANCH   4   5
ENDBRANCH   2   4
ENDBRANCH   1   2
BRANCH   1  14
ATOM     14  N   UNL d   1      23.743  12.860  -3.995  0.00  0.00    -0.300 N 
ATOM     15  C   UNL d   1      23.844  13.619  -4.300  0.00  0.00     0.100 A 
ATOM     16  C   UNL d   1      24.186  13.726  -5.047  0.00  0.00     0.100 A 
ATOM     17  N   UNL d   1      24.427  13.076  -5.490  0.00  0.00    -0.299 N 
ATOM     18  C   UNL d   1      24.326  12.312  -5.185  0.00  0.00     0.100 A 
ATOM     19  C   UNL d   1      24.768  13.186  -6.238  0.00  0.00     0.100 C 
ATOM     20  C   UNL d   1      23.988  12.205  -4.445  0.00  0.00     0.100 A 
ENDBRANCH   1  14
BRANCH   1  21
ATOM     21  C   UNL d   1      22.611  12.937  -3.135  0.00  0.00     0.047 A 
ATOM     22  S   UNL d   1      22.091  12.548  -2.619  0.00  0.00    -0.085 SA
ATOM     23  C   UNL d   1      21.355  12.921  -2.679  0.00  0.00     0.035 A 
ATOM     24  C   UNL d   1      21.409  13.531  -3.220  0.00  0.00     0.007 A 
ATOM     25  C   UNL d   1      22.191  13.544  -3.507  0.00  0.00     0.009 A 
ENDBRANCH   1  21
TORSDOF 6
ENDMDL
