MODEL 1
REMARK VINA RESULT:      57.6      0.000      0.000
REMARK  5 active torsions:
REMARK  status: ('A' for Active; 'I' for Inactive)
REMARK    1  A    between atoms: C_10  and  N_1 
REMARK    2  A    between atoms: C_7  and  C_2 
REMARK    3  A    between atoms: C_3  and  C_11 
REMARK    4  A    between atoms: O_14  and  C_10 
REMARK    5  A    between atoms: C_11  and  O_14 
ROOT
ATOM      1  C   UNL d   1      14.523  13.203  -2.551  0.00  0.00     0.305 C 
ATOM      2  O   UNL d   1      15.188  12.981  -2.994  0.00  0.00    -0.259 OA
ENDROOT
BRANCH   1   3
ATOM      3  C   UNL d   1      13.890  12.686  -2.470  0.00  0.00     0.108 A 
ATOM      4  C   UNL d   1      13.288  12.558  -3.025  0.00  0.00     0.118 A 
ATOM      5  N   UNL d   1      12.769  12.000  -2.725  0.00  0.00    -0.126 NA
ATOM      6  O   UNL d   1      13.054  11.779  -1.975  0.00  0.00    -0.211 OA
ATOM      7  C   UNL d   1      13.742  12.204  -1.823  0.00  0.00     0.132 A 
ATOM      8  C   UNL d   1      14.197  12.151  -1.145  0.00  0.00     0.029 C 
BRANCH   4   9
ATOM      9  C   UNL d   1      13.218  12.929  -3.758  0.00  0.00     0.058 A 
ATOM     10  C   UNL d   1      13.404  12.522  -4.446  0.00  0.00     0.061 A 
ATOM     11 CL   UNL d   1      13.679  11.781  -4.814  0.00  0.00    -0.082 Cl
ATOM     12  C   UNL d   1      13.337  12.885  -5.178  0.00  0.00     0.012 A 
ATOM     13  C   UNL d   1      13.079  13.665  -5.219  0.00  0.00     0.003 A 
ATOM     14  C   UNL d   1      12.886  14.086  -4.521  0.00  0.00     0.030 A 
ATOM     15  C   UNL d   1      12.958  13.712  -3.800  0.00  0.00     0.142 A 
ATOM     16  F   UNL d   1      12.773  14.113  -3.106  0.00  0.00    -0.204 F 
ENDBRANCH   4   9
ENDBRANCH   1   3
BRANCH   1  17
ATOM     17  O   UNL d   1      14.499  13.952  -2.189  0.00  0.00    -0.252 OA
BRANCH  17  18
ATOM     18  C   UNL d   1      15.194  14.282  -1.879  0.00  0.00     0.216 C 
BRANCH  18  19
ATOM     19  N   UNL d   1      15.189  15.061  -1.599  0.00  0.00    -0.218 N 
ATOM     20  C   UNL d   1      15.084  15.736  -2.052  0.00  0.00     0.269 A 
ATOM     21  C   UNL d   1      15.119  16.394  -1.553  0.00  0.00     0.061 A 
ATOM     22  O   UNL d   1      14.963  15.757  -2.875  0.00  0.00    -0.267 OA
ATOM     23  C   UNL d   1      15.052  17.205  -1.695  0.00  0.00     0.005 A 
ATOM     24  C   UNL d   1      15.248  16.117  -0.780  0.00  0.00     0.061 A 
ATOM     25  C   UNL d   1      15.112  17.737  -1.071  0.00  0.00     0.000 A 
ATOM     26  C   UNL d   1      15.241  17.460  -0.298  0.00  0.00     0.000 A 
ATOM     27  C   UNL d   1      15.308  16.654  -0.154  0.00  0.00     0.005 A 
ATOM     28  C   UNL d   1      15.292  15.289  -0.802  0.00  0.00     0.269 A 
ATOM     29  O   UNL d   1      15.414  14.787  -0.164  0.00  0.00    -0.267 OA
ENDBRANCH  18  19
ENDBRANCH  17  18
ENDBRANCH   1  17
TORSDOF 5
ENDMDL
MODEL 2
REMARK VINA RESULT:      60.5      1.805      4.431
REMARK  5 active torsions:
REMARK  status: ('A' for Active; 'I' for Inactive)
REMARK    1  A    between atoms: C_10  and  N_1 
REMARK    2  A    between atoms: C_7  and  C_2 
REMARK    3  A    between atoms: C_3  and  C_11 
REMARK    4  A    between atoms: O_14  and  C_10 
REMARK    5  A    between atoms: C_11  and  O_14 
ROOT
ATOM      1  C   UNL d   1      14.112  13.284  -0.559  0.00  0.00     0.305 C 
ATOM      2  O   UNL d   1      13.558  13.589  -0.022  0.00  0.00    -0.259 OA
ENDROOT
BRANCH   1   3
ATOM      3  C   UNL d   1      14.907  13.245  -0.355  0.00  0.00     0.108 A 
ATOM      4  C   UNL d   1      15.407  13.890  -0.212  0.00  0.00     0.118 A 
ATOM      5  N   UNL d   1      16.153  13.608  -0.026  0.00  0.00    -0.126 NA
ATOM      6  O   UNL d   1      16.113  12.777  -0.054  0.00  0.00    -0.211 OA
ATOM      7  C   UNL d   1      15.346  12.560  -0.257  0.00  0.00     0.132 A 
ATOM      8  C   UNL d   1      15.074  11.794  -0.345  0.00  0.00     0.029 C 
BRANCH   4   9
ATOM      9  C   UNL d   1      15.194  14.686  -0.249  0.00  0.00     0.058 A 
ATOM     10  C   UNL d   1      15.767  15.262  -0.364  0.00  0.00     0.061 A 
ATOM     11 CL   UNL d   1      16.610  15.451  -0.482  0.00  0.00    -0.082 Cl
ATOM     12  C   UNL d   1      15.562  16.055  -0.402  0.00  0.00     0.012 A 
ATOM     13  C   UNL d   1      14.773  16.271  -0.323  0.00  0.00     0.003 A 
ATOM     14  C   UNL d   1      14.182  15.689  -0.204  0.00  0.00     0.030 A 
ATOM     15  C   UNL d   1      14.401  14.905  -0.169  0.00  0.00     0.142 A 
ATOM     16  F   UNL d   1      13.833  14.322  -0.053  0.00  0.00    -0.204 F 
ENDBRANCH   4   9
ENDBRANCH   1   3
BRANCH   1  17
ATOM     17  O   UNL d   1      13.860  13.016  -1.306  0.00  0.00    -0.252 OA
BRANCH  17  18
ATOM     18  C   UNL d   1      14.119  13.405  -1.991  0.00  0.00     0.216 C 
BRANCH  18  19
ATOM     19  N   UNL d   1      13.861  13.144  -2.734  0.00  0.00    -0.218 N 
ATOM     20  C   UNL d   1      13.874  13.577  -3.429  0.00  0.00     0.269 A 
ATOM     21  C   UNL d   1      13.568  13.108  -4.036  0.00  0.00     0.061 A 
ATOM     22  O   UNL d   1      14.150  14.357  -3.512  0.00  0.00    -0.267 OA
ATOM     23  C   UNL d   1      13.447  13.246  -4.841  0.00  0.00     0.005 A 
ATOM     24  C   UNL d   1      13.362  12.372  -3.706  0.00  0.00     0.061 A 
ATOM     25  C   UNL d   1      13.124  12.658  -5.315  0.00  0.00     0.000 A 
ATOM     26  C   UNL d   1      12.918  11.923  -4.986  0.00  0.00     0.000 A 
ATOM     27  C   UNL d   1      13.037  11.782  -4.185  0.00  0.00     0.005 A 
ATOM     28  C   UNL d   1      13.542  12.389  -2.897  0.00  0.00     0.269 A 
ATOM     29  O   UNL d   1      13.430  11.781  -2.356  0.00  0.00    -0.267 OA
ENDBRANCH  18  19
ENDBRANCH  17  18
ENDBRANCH   1  17
TORSDOF 5
ENDMDL
