MODEL 1
REMARK VINA RESULT:      13.9      0.000      0.000
REMARK  4 active torsions:
REMARK  status: ('A' for Active; 'I' for Inactive)
REMARK    1  A    between atoms: C_2  and  C_3 
REMARK    2  A    between atoms: N_4  and  C_2 
REMARK    3  A    between atoms: C_12  and  N_4 
REMARK    4  A    between atoms: N_8  and  C_7 
ROOT
ATOM      1  C   UNL d   1      45.990 -16.625  44.051  0.00  0.00     0.153 C 
ATOM      2  S   UNL d   1      46.069 -16.260  43.315  0.00  0.00    -0.056 SA
ENDROOT
BRANCH   1   3
ATOM      3  C   UNL d   1      46.130 -17.433  44.122  0.00  0.00     0.109 A 
ATOM      4  N   UNL d   1      46.225 -17.899  43.445  0.00  0.00    -0.243 NA
ATOM      5  C   UNL d   1      46.364 -18.706  43.517  0.00  0.00     0.081 A 
ATOM      6  C   UNL d   1      46.410 -19.053  44.264  0.00  0.00     0.018 A 
ATOM      7  C   UNL d   1      46.459 -19.175  42.838  0.00  0.00     0.019 A 
ATOM      8  C   UNL d   1      46.316 -18.594  44.943  0.00  0.00     0.003 A 
ATOM      9  C   UNL d   1      46.550 -19.869  44.332  0.00  0.00     0.002 A 
ATOM     10  C   UNL d   1      46.176 -17.782  44.874  0.00  0.00     0.021 A 
ATOM     11  C   UNL d   1      46.644 -20.330  43.657  0.00  0.00     0.000 A 
ATOM     12  C   UNL d   1      46.599 -19.983  42.910  0.00  0.00     0.002 A 
ENDBRANCH   1   3
BRANCH   1  13
ATOM     13  N   UNL d   1      45.773 -16.184  44.713  0.00  0.00    -0.233 NA
BRANCH  13  14
ATOM     14  C   UNL d   1      45.699 -15.368  44.655  0.00  0.00     0.083 A 
ATOM     15  C   UNL d   1      46.362 -14.911  44.461  0.00  0.00     0.021 A 
ATOM     16  C   UNL d   1      46.286 -14.094  44.404  0.00  0.00     0.019 A 
ATOM     17  C   UNL d   1      45.547 -13.732  44.540  0.00  0.00     0.064 A 
ATOM     18  C   UNL d   1      44.893 -14.192  44.732  0.00  0.00     0.019 A 
ATOM     19  C   UNL d   1      44.968 -15.010  44.790  0.00  0.00     0.021 A 
BRANCH  17  20
ATOM     20  N   UNL d   1      45.477 -12.904  44.480  0.00  0.00    -0.301 N 
ATOM     21  C   UNL d   1      45.937 -12.424  44.955  0.00  0.00     0.100 C 
ATOM     22  C   UNL d   1      44.948 -12.572  43.949  0.00  0.00     0.100 C 
ENDBRANCH  17  20
ENDBRANCH  13  14
ENDBRANCH   1  13
TORSDOF 4
ENDMDL
