MODEL 1
REMARK VINA RESULT:     -10.0      0.000      0.000
REMARK  4 active torsions:
REMARK  status: ('A' for Active; 'I' for Inactive)
REMARK    1  A    between atoms: C_2  and  N_1 
REMARK    2  A    between atoms: C_12  and  C_5 
REMARK    3  A    between atoms: O_20  and  C_12 
REMARK    4  A    between atoms: C_21  and  C_13 
ROOT
ATOM      1  N   UNL d   1      53.902  32.244  53.965  0.00  0.00    -0.237 N 
ATOM      2  C   UNL d   1      54.525  32.679  53.614  0.00  0.00     0.263 A 
ATOM      3  C   UNL d   1      53.843  32.476  54.762  0.00  0.00     0.263 A 
ATOM      4  C   UNL d   1      54.422  33.049  54.905  0.00  0.00     0.039 A 
ATOM      5  C   UNL d   1      54.844  33.173  54.192  0.00  0.00     0.039 A 
ATOM      6  C   UNL d   1      54.625  33.479  55.596  0.00  0.00     0.049 A 
ATOM      7  C   UNL d   1      55.473  33.729  54.165  0.00  0.00     0.049 A 
ATOM      8  C   UNL d   1      55.261  34.038  55.560  0.00  0.00    -0.026 A 
ATOM      9  C   UNL d   1      55.677  34.157  54.846  0.00  0.00    -0.026 A 
ATOM     10  C   UNL d   1      54.773  33.338  54.829  0.00  0.00     0.018 A 
ATOM     11  O   UNL d   1      53.319  32.191  55.281  0.00  0.00    -0.267 OA
ATOM     12  O   UNL d   1      54.758  32.619  52.863  0.00  0.00    -0.267 OA
ENDROOT
BRANCH   1  13
ATOM     13  C   UNL d   1      53.445  31.699  53.591  0.00  0.00     0.105 A 
ATOM     14  C   UNL d   1      52.792  31.856  53.167  0.00  0.00     0.086 A 
ATOM     15  C   UNL d   1      52.505  31.160  52.890  0.00  0.00     0.014 A 
ATOM     16  C   UNL d   1      52.986  30.589  53.151  0.00  0.00     0.031 A 
ATOM     17  S   UNL d   1      53.565  30.910  53.581  0.00  0.00    -0.069 SA
BRANCH  14  18
ATOM     18  C   UNL d   1      52.479  32.578  53.039  0.00  0.00     0.298 C 
ATOM     19  O   UNL d   1      52.768  33.045  52.459  0.00  0.00    -0.259 OA
BRANCH  18  20
ATOM     20  O   UNL d   1      51.869  32.839  53.496  0.00  0.00    -0.296 OA
ATOM     21  C   UNL d   1      51.386  33.333  53.111  0.00  0.00     0.185 C 
ENDBRANCH  18  20
ENDBRANCH  14  18
BRANCH  16  22
ATOM     22  C   UNL d   1      52.831  29.827  52.956  0.00  0.00     0.006 C 
ATOM     23  C   UNL d   1      52.876  29.241  53.520  0.00  0.00     0.001 C 
ENDBRANCH  16  22
ENDBRANCH   1  13
TORSDOF 4
ENDMDL
MODEL 2
REMARK VINA RESULT:      -9.1      1.259      3.681
REMARK  4 active torsions:
REMARK  status: ('A' for Active; 'I' for Inactive)
REMARK    1  A    between atoms: C_2  and  N_1 
REMARK    2  A    between atoms: C_12  and  C_5 
REMARK    3  A    between atoms: O_20  and  C_12 
REMARK    4  A    between atoms: C_21  and  C_13 
ROOT
ATOM      1  N   UNL d   1      52.438  33.419  53.410  0.00  0.00    -0.237 N 
ATOM      2  C   UNL d   1      51.638  33.366  53.649  0.00  0.00     0.263 A 
ATOM      3  C   UNL d   1      52.463  33.819  52.681  0.00  0.00     0.263 A 
ATOM      4  C   UNL d   1      51.687  34.014  52.470  0.00  0.00     0.039 A 
ATOM      5  C   UNL d   1      51.177  33.731  53.072  0.00  0.00     0.039 A 
ATOM      6  C   UNL d   1      51.372  34.414  51.804  0.00  0.00     0.049 A 
ATOM      7  C   UNL d   1      50.348  33.848  53.011  0.00  0.00     0.049 A 
ATOM      8  C   UNL d   1      50.534  34.527  51.750  0.00  0.00    -0.026 A 
ATOM      9  C   UNL d   1      50.031  34.243  52.353  0.00  0.00    -0.026 A 
ATOM     10  C   UNL d   1      51.228  34.047  52.492  0.00  0.00     0.018 A 
ATOM     11  O   UNL d   1      53.120  33.980  52.273  0.00  0.00    -0.267 OA
ATOM     12  O   UNL d   1      51.380  33.024  54.312  0.00  0.00    -0.267 OA
ENDROOT
BRANCH   1  13
ATOM     13  C   UNL d   1      53.067  33.130  53.818  0.00  0.00     0.105 A 
ATOM     14  C   UNL d   1      53.382  32.406  53.730  0.00  0.00     0.086 A 
ATOM     15  C   UNL d   1      53.998  32.342  54.239  0.00  0.00     0.014 A 
ATOM     16  C   UNL d   1      54.050  33.028  54.630  0.00  0.00     0.031 A 
ATOM     17  S   UNL d   1      53.483  33.516  54.379  0.00  0.00    -0.069 SA
BRANCH  14  18
ATOM     18  C   UNL d   1      53.130  31.844  53.224  0.00  0.00     0.298 C 
ATOM     19  O   UNL d   1      53.303  31.894  52.446  0.00  0.00    -0.259 OA
BRANCH  18  20
ATOM     20  O   UNL d   1      52.698  31.220  53.499  0.00  0.00    -0.296 OA
ATOM     21  C   UNL d   1      52.818  30.558  53.084  0.00  0.00     0.185 C 
ENDBRANCH  18  20
ENDBRANCH  14  18
BRANCH  16  22
ATOM     22  C   UNL d   1      54.624  33.121  55.182  0.00  0.00     0.006 C 
ATOM     23  C   UNL d   1      55.053  33.812  55.216  0.00  0.00     0.001 C 
ENDBRANCH  16  22
ENDBRANCH   1  13
TORSDOF 4
ENDMDL
MODEL 3
REMARK VINA RESULT:      -8.4      0.981      3.126
REMARK  4 active torsions:
REMARK  status: ('A' for Active; 'I' for Inactive)
REMARK    1  A    between atoms: C_2  and  N_1 
REMARK    2  A    between atoms: C_12  and  C_5 
REMARK    3  A    between atoms: O_20  and  C_12 
REMARK    4  A    between atoms: C_21  and  C_13 
ROOT
ATOM      1  N   UNL d   1      52.367  32.519  53.126  0.00  0.00    -0.237 N 
ATOM      2  C   UNL d   1      51.637  32.691  53.495  0.00  0.00     0.263 A 
ATOM      3  C   UNL d   1      52.493  33.084  52.528  0.00  0.00     0.263 A 
ATOM      4  C   UNL d   1      51.848  33.601  52.526  0.00  0.00     0.039 A 
ATOM      5  C   UNL d   1      51.317  33.356  53.126  0.00  0.00     0.039 A 
ATOM      6  C   UNL d   1      51.669  34.270  52.053  0.00  0.00     0.049 A 
ATOM      7  C   UNL d   1      50.604  33.779  53.258  0.00  0.00     0.049 A 
ATOM      8  C   UNL d   1      50.947  34.692  52.192  0.00  0.00    -0.026 A 
ATOM      9  C   UNL d   1      50.423  34.442  52.792  0.00  0.00    -0.026 A 
ATOM     10  C   UNL d   1      51.445  33.791  52.644  0.00  0.00     0.018 A 
ATOM     11  O   UNL d   1      53.124  33.110  52.053  0.00  0.00    -0.267 OA
ATOM     12  O   UNL d   1      51.317  32.284  54.090  0.00  0.00    -0.267 OA
ENDROOT
BRANCH   1  13
ATOM     13  C   UNL d   1      52.857  31.912  53.320  0.00  0.00     0.105 A 
ATOM     14  C   UNL d   1      53.505  31.970  53.776  0.00  0.00     0.086 A 
ATOM     15  C   UNL d   1      53.833  31.240  53.831  0.00  0.00     0.014 A 
ATOM     16  C   UNL d   1      53.380  30.748  53.407  0.00  0.00     0.031 A 
ATOM     17  S   UNL d   1      52.780  31.152  53.091  0.00  0.00    -0.069 SA
BRANCH  14  18
ATOM     18  C   UNL d   1      53.780  32.635  54.118  0.00  0.00     0.298 C 
ATOM     19  O   UNL d   1      54.214  33.156  53.695  0.00  0.00    -0.259 OA
BRANCH  18  20
ATOM     20  O   UNL d   1      53.620  32.784  54.894  0.00  0.00    -0.296 OA
ATOM     21  C   UNL d   1      54.212  33.159  55.262  0.00  0.00     0.185 C 
ENDBRANCH  18  20
ENDBRANCH  14  18
BRANCH  16  22
ATOM     22  C   UNL d   1      53.578  29.973  53.364  0.00  0.00     0.006 C 
ATOM     23  C   UNL d   1      53.211  29.426  53.842  0.00  0.00     0.001 C 
ENDBRANCH  16  22
ENDBRANCH   1  13
TORSDOF 4
ENDMDL
MODEL 4
REMARK VINA RESULT:      -8.3      1.114      3.504
REMARK  4 active torsions:
REMARK  status: ('A' for Active; 'I' for Inactive)
REMARK    1  A    between atoms: C_2  and  N_1 
REMARK    2  A    between atoms: C_12  and  C_5 
REMARK    3  A    between atoms: O_20  and  C_12 
REMARK    4  A    between atoms: C_21  and  C_13 
ROOT
ATOM      1  N   UNL d   1      53.108  31.989  53.611  0.00  0.00    -0.237 N 
ATOM      2  C   UNL d   1      53.244  31.550  54.310  0.00  0.00     0.263 A 
ATOM      3  C   UNL d   1      53.048  31.453  52.977  0.00  0.00     0.263 A 
ATOM      4  C   UNL d   1      53.146  30.689  53.279  0.00  0.00     0.039 A 
ATOM      5  C   UNL d   1      53.267  30.751  54.106  0.00  0.00     0.039 A 
ATOM      6  C   UNL d   1      53.140  29.937  52.909  0.00  0.00     0.049 A 
ATOM      7  C   UNL d   1      53.384  30.060  54.568  0.00  0.00     0.049 A 
ATOM      8  C   UNL d   1      53.260  29.244  53.382  0.00  0.00    -0.026 A 
ATOM      9  C   UNL d   1      53.380  29.313  54.206  0.00  0.00    -0.026 A 
ATOM     10  C   UNL d   1      53.215  30.350  53.582  0.00  0.00     0.018 A 
ATOM     11  O   UNL d   1      52.919  31.654  52.224  0.00  0.00    -0.267 OA
ATOM     12  O   UNL d   1      53.333  31.854  55.032  0.00  0.00    -0.267 OA
ENDROOT
BRANCH   1  13
ATOM     13  C   UNL d   1      53.047  32.789  53.567  0.00  0.00     0.105 A 
ATOM     14  C   UNL d   1      53.655  33.300  53.574  0.00  0.00     0.086 A 
ATOM     15  C   UNL d   1      53.354  34.042  53.520  0.00  0.00     0.014 A 
ATOM     16  C   UNL d   1      52.567  33.972  53.482  0.00  0.00     0.031 A 
ATOM     17  S   UNL d   1      52.370  33.209  53.510  0.00  0.00    -0.069 SA
BRANCH  14  18
ATOM     18  C   UNL d   1      54.427  33.109  53.625  0.00  0.00     0.298 C 
ATOM     19  O   UNL d   1      54.816  32.828  52.987  0.00  0.00    -0.259 OA
BRANCH  18  20
ATOM     20  O   UNL d   1      54.818  33.198  54.325  0.00  0.00    -0.296 OA
ATOM     21  C   UNL d   1      55.551  33.482  54.232  0.00  0.00     0.185 C 
ENDBRANCH  18  20
ENDBRANCH  14  18
BRANCH  16  22
ATOM     22  C   UNL d   1      52.118  34.634  53.424  0.00  0.00     0.006 C 
ATOM     23  C   UNL d   1      51.359  34.591  53.134  0.00  0.00     0.001 C 
ENDBRANCH  16  22
ENDBRANCH   1  13
TORSDOF 4
ENDMDL
MODEL 5
REMARK VINA RESULT:      -8.2      1.199      2.232
REMARK  4 active torsions:
REMARK  status: ('A' for Active; 'I' for Inactive)
REMARK    1  A    between atoms: C_2  and  N_1 
REMARK    2  A    between atoms: C_12  and  C_5 
REMARK    3  A    between atoms: O_20  and  C_12 
REMARK    4  A    between atoms: C_21  and  C_13 
ROOT
ATOM      1  N   UNL d   1      53.149  33.501  53.718  0.00  0.00    -0.237 N 
ATOM      2  C   UNL d   1      53.938  33.551  53.446  0.00  0.00     0.263 A 
ATOM      3  C   UNL d   1      53.163  33.503  54.550  0.00  0.00     0.263 A 
ATOM      4  C   UNL d   1      53.952  33.554  54.792  0.00  0.00     0.039 A 
ATOM      5  C   UNL d   1      54.432  33.583  54.106  0.00  0.00     0.039 A 
ATOM      6  C   UNL d   1      54.303  33.577  55.554  0.00  0.00     0.049 A 
ATOM      7  C   UNL d   1      55.267  33.637  54.177  0.00  0.00     0.049 A 
ATOM      8  C   UNL d   1      55.146  33.631  55.617  0.00  0.00    -0.026 A 
ATOM      9  C   UNL d   1      55.619  33.660  54.929  0.00  0.00    -0.026 A 
ATOM     10  C   UNL d   1      54.411  33.583  54.768  0.00  0.00     0.018 A 
ATOM     11  O   UNL d   1      52.525  33.464  55.015  0.00  0.00    -0.267 OA
ATOM     12  O   UNL d   1      54.162  33.564  52.690  0.00  0.00    -0.267 OA
ENDROOT
BRANCH   1  13
ATOM     13  C   UNL d   1      52.496  33.459  53.251  0.00  0.00     0.105 A 
ATOM     14  C   UNL d   1      52.219  32.801  52.902  0.00  0.00     0.086 A 
ATOM     15  C   UNL d   1      51.562  33.000  52.489  0.00  0.00     0.014 A 
ATOM     16  C   UNL d   1      51.447  33.776  52.592  0.00  0.00     0.031 A 
ATOM     17  S   UNL d   1      52.015  34.066  53.057  0.00  0.00    -0.069 SA
BRANCH  14  18
ATOM     18  C   UNL d   1      52.540  32.073  52.955  0.00  0.00     0.298 C 
ATOM     19  O   UNL d   1      53.167  31.875  52.502  0.00  0.00    -0.259 OA
BRANCH  18  20
ATOM     20  O   UNL d   1      52.230  31.533  53.468  0.00  0.00    -0.296 OA
ATOM     21  C   UNL d   1      52.325  30.788  53.222  0.00  0.00     0.185 C 
ENDBRANCH  18  20
ENDBRANCH  14  18
BRANCH  16  22
ATOM     22  C   UNL d   1      50.821  34.130  52.237  0.00  0.00     0.006 C 
ATOM     23  C   UNL d   1      50.237  34.478  52.685  0.00  0.00     0.001 C 
ENDBRANCH  16  22
ENDBRANCH   1  13
TORSDOF 4
ENDMDL
