MODEL 1
REMARK VINA RESULT:      -4.9      0.000      0.000
REMARK  3 active torsions:
REMARK  status: ('A' for Active; 'I' for Inactive)
REMARK    1  A    between atoms: C_12  and  C_3 
REMARK       I    between atoms: C_6  and  N_9 
REMARK    2  A    between atoms: C_7  and  C_6 
REMARK    3  A    between atoms: N_9  and  C_22 
ROOT
ATOM      1  C   UNL d   1     -41.630-122.455 -52.927  0.00  0.00     0.019 A 
ATOM      2  C   UNL d   1     -41.348-123.184 -52.662  0.00  0.00     0.003 A 
ATOM      3  C   UNL d   1     -41.839-121.871 -52.382  0.00  0.00     0.003 A 
ATOM      4  C   UNL d   1     -41.483-122.745 -51.309  0.00  0.00     0.085 A 
ATOM      5  C   UNL d   1     -41.765-122.016 -51.573  0.00  0.00     0.019 A 
ATOM      6  C   UNL d   1     -41.274-123.329 -51.853  0.00  0.00     0.019 A 
ENDROOT
BRANCH   4   7
ATOM      7  N   UNL d   1     -41.409-122.889 -50.504  0.00  0.00    -0.208 NA
ATOM      8  C   UNL d   1     -42.009-123.267 -50.097  0.00  0.00     0.279 C 
ATOM      9  O   UNL d   1     -42.698-123.509 -50.497  0.00  0.00    -0.265 OA
BRANCH   8  10
ATOM     10  C   UNL d   1     -41.935-123.412 -49.288  0.00  0.00     0.060 A 
ATOM     11  C   UNL d   1     -42.594-123.371 -48.799  0.00  0.00     0.031 A 
ATOM     12  C   UNL d   1     -42.520-123.516 -47.990  0.00  0.00     0.119 A 
ATOM     13  O   UNL d   1     -43.077-123.513 -47.378  0.00  0.00    -0.300 OA
ATOM     14  C   UNL d   1     -41.787-123.702 -47.670  0.00  0.00     0.119 A 
ATOM     15  C   UNL d   1     -42.686-123.699 -46.676  0.00  0.00     0.304 A 
ATOM     16  O   UNL d   1     -41.885-123.816 -46.855  0.00  0.00    -0.300 OA
ATOM     17  C   UNL d   1     -41.123-123.744 -48.159  0.00  0.00     0.026 A 
ATOM     18  C   UNL d   1     -41.196-123.599 -48.968  0.00  0.00     0.007 A 
ENDBRANCH   8  10
ENDBRANCH   4   7
BRANCH   1  19
ATOM     19  C   UNL d   1     -41.704-122.310 -53.735  0.00  0.00     0.101 A 
ATOM     20  N   UNL d   1     -41.130-122.348 -54.314  0.00  0.00    -0.221 NA
ATOM     21  C   UNL d   1     -41.486-122.152 -55.041  0.00  0.00     0.179 A 
ATOM     22  N   UNL d   1     -42.267-121.997 -54.913  0.00  0.00    -0.282 N 
ATOM     23  S   UNL d   1     -41.329-122.061 -55.842  0.00  0.00    -0.048 SA
ATOM     24  C   UNL d   1     -42.414-122.092 -54.104  0.00  0.00     0.101 A 
ATOM     25  C   UNL d   1     -42.604-121.806 -55.639  0.00  0.00     0.089 A 
ATOM     26  C   UNL d   1     -42.037-121.844 -56.202  0.00  0.00     0.057 A 
ENDBRANCH   1  19
TORSDOF 3
ENDMDL
