MODEL 1
REMARK VINA RESULT:      -2.6      0.000      0.000
REMARK  3 active torsions:
REMARK  status: ('A' for Active; 'I' for Inactive)
REMARK    1  A    between atoms: N_4  and  C_1 
REMARK    2  A    between atoms: C_11  and  C_3 
REMARK       I    between atoms: C_5  and  N_4 
REMARK    3  A    between atoms: C_8  and  C_5 
ROOT
ATOM      1  N   UNL d   1     -41.488-120.948 -51.406  0.00  0.00    -0.183 NA
ATOM      2  C   UNL d   1     -41.410-120.919 -52.229  0.00  0.00     0.281 C 
ATOM      3  O   UNL d   1     -41.297-120.182 -52.597  0.00  0.00    -0.265 OA
ENDROOT
BRANCH   1   4
ATOM      4  C   UNL d   1     -41.600-121.666 -51.021  0.00  0.00     0.197 A 
ATOM      5  N   UNL d   1     -42.214-121.839 -50.494  0.00  0.00    -0.219 NA
ATOM      6  C   UNL d   1     -42.116-122.626 -50.235  0.00  0.00     0.108 A 
ATOM      7  C   UNL d   1     -41.442-122.932 -50.606  0.00  0.00     0.059 A 
ATOM      8  S   UNL d   1     -41.123-122.337 -51.093  0.00  0.00    -0.046 SA
BRANCH   6   9
ATOM      9  C   UNL d   1     -42.611-123.028 -49.700  0.00  0.00     0.100 A 
ATOM     10  N   UNL d   1     -43.319-123.346 -49.959  0.00  0.00    -0.242 NA
ATOM     11  C   UNL d   1     -43.816-123.747 -49.435  0.00  0.00     0.099 A 
ATOM     12  C   UNL d   1     -43.582-123.817 -48.650  0.00  0.00     0.021 A 
ATOM     13  C   UNL d   1     -42.879-123.500 -48.394  0.00  0.00     0.003 A 
ATOM     14  C   UNL d   1     -42.379-123.101 -48.905  0.00  0.00     0.021 A 
ENDBRANCH   6   9
ENDBRANCH   1   4
BRANCH   2  15
ATOM     15  C   UNL d   1     -41.449-121.640 -52.651  0.00  0.00     0.060 A 
ATOM     16  C   UNL d   1     -41.809-121.670 -53.389  0.00  0.00     0.032 A 
ATOM     17  C   UNL d   1     -41.849-122.380 -53.808  0.00  0.00     0.123 A 
ATOM     18  O   UNL d   1     -42.211-122.412 -54.551  0.00  0.00    -0.301 OA
ATOM     19  C   UNL d   1     -41.517-123.066 -53.468  0.00  0.00     0.123 A 
ATOM     20  C   UNL d   1     -42.249-123.127 -54.968  0.00  0.00     0.149 A 
ATOM     21  C   UNL d   1     -41.916-123.817 -54.629  0.00  0.00     0.149 A 
ATOM     22  O   UNL d   1     -41.556-123.788 -53.891  0.00  0.00    -0.301 OA
ATOM     23  C   UNL d   1     -41.159-123.031 -52.733  0.00  0.00     0.027 A 
ATOM     24  C   UNL d   1     -41.123-122.320 -52.321  0.00  0.00     0.007 A 
ENDBRANCH   2  15
TORSDOF 3
ENDMDL
