MODEL 1
REMARK VINA RESULT:      -7.3      0.000      0.000
REMARK  3 active torsions:
REMARK  status: ('A' for Active; 'I' for Inactive)
REMARK    1  A    between atoms: C_9  and  C_4 
REMARK    2  A    between atoms: C_10  and  C_7 
REMARK    3  A    between atoms: C_13  and  C_10 
ROOT
ATOM      1  C   UNL d   1     -46.674  12.727  23.148  0.00  0.00     0.179 A 
ATOM      2  N   UNL d   1     -47.114  12.087  23.444  0.00  0.00    -0.282 N 
ATOM      3  N   UNL d   1     -45.894  12.488  23.065  0.00  0.00    -0.221 NA
ATOM      4  C   UNL d   1     -45.843  11.692  23.311  0.00  0.00     0.101 A 
ATOM      5  S   UNL d   1     -47.187  13.365  23.047  0.00  0.00    -0.048 SA
ATOM      6  C   UNL d   1     -46.594  11.454  23.542  0.00  0.00     0.101 A 
ATOM      7  C   UNL d   1     -47.943  13.119  23.281  0.00  0.00     0.050 A 
ATOM      8  C   UNL d   1     -47.891  12.341  23.522  0.00  0.00     0.089 A 
ENDROOT
BRANCH   7   9
ATOM      9  C   UNL d   1     -48.623  13.593  23.268  0.00  0.00     0.008 C 
BRANCH   9  10
ATOM     10  C   UNL d   1     -49.216  13.455  22.722  0.00  0.00     0.001 A 
ATOM     11  C   UNL d   1     -49.216  13.865  21.998  0.00  0.00     0.002 A 
ATOM     12  C   UNL d   1     -49.818  13.723  21.445  0.00  0.00     0.030 A 
ATOM     13  C   UNL d   1     -50.414  13.180  21.612  0.00  0.00     0.140 A 
ATOM     14  C   UNL d   1     -50.416  12.772  22.330  0.00  0.00     0.030 A 
ATOM     15  F   UNL d   1     -51.017  13.029  21.075  0.00  0.00    -0.204 F 
ATOM     16  C   UNL d   1     -49.816  12.911  22.883  0.00  0.00     0.002 A 
ENDBRANCH   9  10
ENDBRANCH   7   9
BRANCH   4  17
ATOM     17  C   UNL d   1     -45.162  11.237  23.319  0.00  0.00     0.019 A 
ATOM     18  C   UNL d   1     -44.487  11.518  22.949  0.00  0.00     0.004 A 
ATOM     19  C   UNL d   1     -43.792  11.067  22.949  0.00  0.00     0.030 A 
ATOM     20  C   UNL d   1     -43.786  10.330  23.326  0.00  0.00     0.140 A 
ATOM     21  C   UNL d   1     -44.461  10.048  23.696  0.00  0.00     0.030 A 
ATOM     22  F   UNL d   1     -43.195   9.765  23.420  0.00  0.00    -0.204 F 
ATOM     23  C   UNL d   1     -45.151  10.497  23.695  0.00  0.00     0.004 A 
ENDBRANCH   4  17
TORSDOF 3
ENDMDL
MODEL 2
REMARK VINA RESULT:      -6.2      1.299      1.751
REMARK  3 active torsions:
REMARK  status: ('A' for Active; 'I' for Inactive)
REMARK    1  A    between atoms: C_9  and  C_4 
REMARK    2  A    between atoms: C_10  and  C_7 
REMARK    3  A    between atoms: C_13  and  C_10 
ROOT
ATOM      1  C   UNL d   1     -46.574  13.680  22.724  0.00  0.00     0.179 A 
ATOM      2  N   UNL d   1     -46.768  12.874  22.776  0.00  0.00    -0.282 N 
ATOM      3  N   UNL d   1     -45.785  13.742  22.504  0.00  0.00    -0.221 NA
ATOM      4  C   UNL d   1     -45.483  12.969  22.417  0.00  0.00     0.101 A 
ATOM      5  S   UNL d   1     -47.246  14.118  22.914  0.00  0.00    -0.048 SA
ATOM      6  C   UNL d   1     -46.090  12.443  22.585  0.00  0.00     0.101 A 
ATOM      7  C   UNL d   1     -47.855  13.582  23.083  0.00  0.00     0.050 A 
ATOM      8  C   UNL d   1     -47.558  12.827  22.997  0.00  0.00     0.089 A 
ENDROOT
BRANCH   7   9
ATOM      9  C   UNL d   1     -48.627  13.792  23.300  0.00  0.00     0.008 C 
BRANCH   9  10
ATOM     10  C   UNL d   1     -49.232  13.780  22.749  0.00  0.00     0.001 A 
ATOM     11  C   UNL d   1     -49.681  13.087  22.644  0.00  0.00     0.002 A 
ATOM     12  C   UNL d   1     -50.294  13.076  22.085  0.00  0.00     0.030 A 
ATOM     13  C   UNL d   1     -50.459  13.748  21.637  0.00  0.00     0.140 A 
ATOM     14  C   UNL d   1     -50.014  14.436  21.741  0.00  0.00     0.030 A 
ATOM     15  F   UNL d   1     -51.063  13.752  21.081  0.00  0.00    -0.204 F 
ATOM     16  C   UNL d   1     -49.401  14.449  22.297  0.00  0.00     0.002 A 
ENDBRANCH   9  10
ENDBRANCH   7   9
BRANCH   4  17
ATOM     17  C   UNL d   1     -44.716  12.777  22.202  0.00  0.00     0.019 A 
ATOM     18  C   UNL d   1     -44.350  12.133  22.553  0.00  0.00     0.004 A 
ATOM     19  C   UNL d   1     -43.574  11.929  22.344  0.00  0.00     0.030 A 
ATOM     20  C   UNL d   1     -43.173  12.381  21.777  0.00  0.00     0.140 A 
ATOM     21  C   UNL d   1     -43.540  13.025  21.426  0.00  0.00     0.030 A 
ATOM     22  F   UNL d   1     -42.417  12.319  21.460  0.00  0.00    -0.204 F 
ATOM     23  C   UNL d   1     -44.310  13.226  21.635  0.00  0.00     0.004 A 
ENDBRANCH   4  17
TORSDOF 3
ENDMDL
MODEL 3
REMARK VINA RESULT:      -6.2      8.440      9.944
REMARK  3 active torsions:
REMARK  status: ('A' for Active; 'I' for Inactive)
REMARK    1  A    between atoms: C_9  and  C_4 
REMARK    2  A    between atoms: C_10  and  C_7 
REMARK    3  A    between atoms: C_13  and  C_10 
ROOT
ATOM      1  C   UNL d   1     -39.783  14.340  18.910  0.00  0.00     0.179 A 
ATOM      2  N   UNL d   1     -39.276  14.997  18.939  0.00  0.00    -0.282 N 
ATOM      3  N   UNL d   1     -39.653  13.943  18.203  0.00  0.00    -0.221 NA
ATOM      4  C   UNL d   1     -39.059  14.355  17.786  0.00  0.00     0.101 A 
ATOM      5  S   UNL d   1     -40.230  14.330  19.603  0.00  0.00    -0.048 SA
ATOM      6  C   UNL d   1     -38.833  14.998  18.243  0.00  0.00     0.101 A 
ATOM      7  C   UNL d   1     -39.998  14.981  20.060  0.00  0.00     0.050 A 
ATOM      8  C   UNL d   1     -39.417  15.383  19.650  0.00  0.00     0.089 A 
ENDROOT
BRANCH   7   9
ATOM      9  C   UNL d   1     -40.311  15.178  20.802  0.00  0.00     0.008 C 
BRANCH   9  10
ATOM     10  C   UNL d   1     -39.834  15.186  21.466  0.00  0.00     0.001 A 
ATOM     11  C   UNL d   1     -39.606  15.913  21.804  0.00  0.00     0.002 A 
ATOM     12  C   UNL d   1     -39.123  15.919  22.477  0.00  0.00     0.030 A 
ATOM     13  C   UNL d   1     -38.868  15.210  22.811  0.00  0.00     0.140 A 
ATOM     14  C   UNL d   1     -39.092  14.489  22.478  0.00  0.00     0.030 A 
ATOM     15  F   UNL d   1     -38.388  15.202  23.478  0.00  0.00    -0.204 F 
ATOM     16  C   UNL d   1     -39.575  14.480  21.806  0.00  0.00     0.002 A 
ENDBRANCH   9  10
ENDBRANCH   7   9
BRANCH   4  17
ATOM     17  C   UNL d   1     -38.759  14.148  17.052  0.00  0.00     0.019 A 
ATOM     18  C   UNL d   1     -38.251  13.507  16.992  0.00  0.00     0.004 A 
ATOM     19  C   UNL d   1     -37.942  13.288  16.255  0.00  0.00     0.030 A 
ATOM     20  C   UNL d   1     -38.150  13.721  15.581  0.00  0.00     0.140 A 
ATOM     21  C   UNL d   1     -38.658  14.362  15.641  0.00  0.00     0.030 A 
ATOM     22  F   UNL d   1     -37.940  13.642  14.790  0.00  0.00    -0.204 F 
ATOM     23  C   UNL d   1     -38.965  14.579  16.373  0.00  0.00     0.004 A 
ENDBRANCH   4  17
TORSDOF 3
ENDMDL
MODEL 4
REMARK VINA RESULT:      -5.9      8.465      9.971
REMARK  3 active torsions:
REMARK  status: ('A' for Active; 'I' for Inactive)
REMARK    1  A    between atoms: C_9  and  C_4 
REMARK    2  A    between atoms: C_10  and  C_7 
REMARK    3  A    between atoms: C_13  and  C_10 
ROOT
ATOM      1  C   UNL d   1     -39.222  15.465  19.325  0.00  0.00     0.179 A 
ATOM      2  N   UNL d   1     -39.270  14.648  19.181  0.00  0.00    -0.282 N 
ATOM      3  N   UNL d   1     -39.691  15.853  18.774  0.00  0.00    -0.221 NA
ATOM      4  C   UNL d   1     -40.037  15.274  18.282  0.00  0.00     0.101 A 
ATOM      5  S   UNL d   1     -38.719  15.582  19.968  0.00  0.00    -0.048 SA
ATOM      6  C   UNL d   1     -39.774  14.540  18.537  0.00  0.00     0.101 A 
ATOM      7  C   UNL d   1     -38.458  14.838  20.221  0.00  0.00     0.050 A 
ATOM      8  C   UNL d   1     -38.797  14.274  19.738  0.00  0.00     0.089 A 
ENDROOT
BRANCH   7   9
ATOM      9  C   UNL d   1     -37.942  14.705  20.856  0.00  0.00     0.008 C 
BRANCH   9  10
ATOM     10  C   UNL d   1     -38.181  14.265  21.502  0.00  0.00     0.001 A 
ATOM     11  C   UNL d   1     -38.656  14.616  22.090  0.00  0.00     0.002 A 
ATOM     12  C   UNL d   1     -38.897  14.168  22.745  0.00  0.00     0.030 A 
ATOM     13  C   UNL d   1     -38.669  13.379  22.814  0.00  0.00     0.140 A 
ATOM     14  C   UNL d   1     -38.199  13.030  22.232  0.00  0.00     0.030 A 
ATOM     15  F   UNL d   1     -38.901  12.923  23.457  0.00  0.00    -0.204 F 
ATOM     16  C   UNL d   1     -37.956  13.475  21.578  0.00  0.00     0.002 A 
ENDBRANCH   9  10
ENDBRANCH   7   9
BRANCH   4  17
ATOM     17  C   UNL d   1     -40.546  15.422  17.657  0.00  0.00     0.019 A 
ATOM     18  C   UNL d   1     -40.320  15.213  16.897  0.00  0.00     0.004 A 
ATOM     19  C   UNL d   1     -40.826  15.356  16.256  0.00  0.00     0.030 A 
ATOM     20  C   UNL d   1     -41.561  15.712  16.391  0.00  0.00     0.140 A 
ATOM     21  C   UNL d   1     -41.788  15.921  17.151  0.00  0.00     0.030 A 
ATOM     22  F   UNL d   1     -42.172  15.922  15.882  0.00  0.00    -0.204 F 
ATOM     23  C   UNL d   1     -41.284  15.778  17.786  0.00  0.00     0.004 A 
ENDBRANCH   4  17
TORSDOF 3
ENDMDL
MODEL 5
REMARK VINA RESULT:      -4.5      1.385      5.445
REMARK  3 active torsions:
REMARK  status: ('A' for Active; 'I' for Inactive)
REMARK    1  A    between atoms: C_9  and  C_4 
REMARK    2  A    between atoms: C_10  and  C_7 
REMARK    3  A    between atoms: C_13  and  C_10 
ROOT
ATOM      1  C   UNL d   1     -46.724  13.891  22.778  0.00  0.00     0.179 A 
ATOM      2  N   UNL d   1     -47.053  13.285  22.315  0.00  0.00    -0.282 N 
ATOM      3  N   UNL d   1     -47.330  14.388  23.023  0.00  0.00    -0.221 NA
ATOM      4  C   UNL d   1     -48.044  14.091  22.710  0.00  0.00     0.101 A 
ATOM      5  S   UNL d   1     -45.909  13.768  22.820  0.00  0.00    -0.048 SA
ATOM      6  C   UNL d   1     -47.867  13.416  22.279  0.00  0.00     0.101 A 
ATOM      7  C   UNL d   1     -45.737  13.085  22.383  0.00  0.00     0.050 A 
ATOM      8  C   UNL d   1     -46.436  12.797  22.079  0.00  0.00     0.089 A 
ENDROOT
BRANCH   7   9
ATOM      9  C   UNL d   1     -44.979  12.765  22.282  0.00  0.00     0.008 C 
BRANCH   9  10
ATOM     10  C   UNL d   1     -44.777  12.055  22.634  0.00  0.00     0.001 A 
ATOM     11  C   UNL d   1     -45.353  11.619  23.049  0.00  0.00     0.002 A 
ATOM     12  C   UNL d   1     -45.146  10.900  23.405  0.00  0.00     0.030 A 
ATOM     13  C   UNL d   1     -44.374  10.616  23.350  0.00  0.00     0.140 A 
ATOM     14  C   UNL d   1     -43.801  11.048  22.940  0.00  0.00     0.030 A 
ATOM     15  F   UNL d   1     -44.154   9.906  23.698  0.00  0.00    -0.204 F 
ATOM     16  C   UNL d   1     -44.006  11.766  22.583  0.00  0.00     0.002 A 
ENDBRANCH   9  10
ENDBRANCH   7   9
BRANCH   4  17
ATOM     17  C   UNL d   1     -48.787  14.420  22.819  0.00  0.00     0.019 A 
ATOM     18  C   UNL d   1     -49.380  13.968  23.160  0.00  0.00     0.004 A 
ATOM     19  C   UNL d   1     -50.136  14.289  23.275  0.00  0.00     0.030 A 
ATOM     20  C   UNL d   1     -50.285  15.070  23.044  0.00  0.00     0.140 A 
ATOM     21  C   UNL d   1     -49.692  15.522  22.704  0.00  0.00     0.030 A 
ATOM     22  F   UNL d   1     -50.962  15.535  23.085  0.00  0.00    -0.204 F 
ATOM     23  C   UNL d   1     -48.942  15.202  22.590  0.00  0.00     0.004 A 
ENDBRANCH   4  17
TORSDOF 3
ENDMDL
