MODEL 1
REMARK VINA RESULT:      -5.0      0.000      0.000
REMARK  2 active torsions:
REMARK  status: ('A' for Active; 'I' for Inactive)
REMARK    1  A    between atoms: CA_2  and  C_1 
REMARK    2  A    between atoms: C_3  and  CA_2 
ROOT
ATOM      1  C   UNL d   1     -41.653-122.502 -53.448  0.00  0.00     0.025 A 
ATOM      2  C   UNL d   1     -41.229-122.839 -54.067  0.00  0.00     0.002 A 
ATOM      3  C   UNL d   1     -42.270-121.970 -53.607  0.00  0.00     0.002 A 
ATOM      4  C   UNL d   1     -41.418-122.648 -54.846  0.00  0.00     0.000 A 
ATOM      5  C   UNL d   1     -42.458-121.779 -54.385  0.00  0.00     0.000 A 
ATOM      6  C   UNL d   1     -42.035-122.116 -55.005  0.00  0.00     0.000 A 
ATOM      7  C   UNL d   1     -42.223-121.926 -55.787  0.00  0.00     0.000 C 
ENDROOT
BRANCH   1   8
ATOM      8  CA  UNL d   1     -41.458-122.699 -52.668  0.00  0.00     0.167 C 
ATOM      9  N   UNL d   1     -41.124-123.440 -52.501  0.00  0.00    -0.142 N 
BRANCH   8  10
ATOM     10  C   UNL d   1     -41.594-122.163 -52.055  0.00  0.00     0.231 C 
ATOM     11  O   UNL d   1     -42.205-122.301 -51.514  0.00  0.00    -0.643 OA
ATOM     12  OXT UNL d   1     -41.123-121.492 -51.981  0.00  0.00    -0.643 OA
ENDBRANCH   8  10
ENDBRANCH   1   8
TORSDOF 2
ENDMDL
MODEL 2
REMARK VINA RESULT:      -4.1      2.261      4.043
REMARK  2 active torsions:
REMARK  status: ('A' for Active; 'I' for Inactive)
REMARK    1  A    between atoms: CA_2  and  C_1 
REMARK    2  A    between atoms: C_3  and  CA_2 
ROOT
ATOM      1  C   UNL d   1     -41.821-122.502 -50.606  0.00  0.00     0.025 A 
ATOM      2  C   UNL d   1     -42.610-122.365 -50.416  0.00  0.00     0.002 A 
ATOM      3  C   UNL d   1     -41.344-122.955 -50.100  0.00  0.00     0.002 A 
ATOM      4  C   UNL d   1     -42.926-122.678 -49.723  0.00  0.00     0.000 A 
ATOM      5  C   UNL d   1     -41.660-123.268 -49.407  0.00  0.00     0.000 A 
ATOM      6  C   UNL d   1     -42.449-123.131 -49.217  0.00  0.00     0.000 A 
ATOM      7  C   UNL d   1     -42.767-123.443 -48.522  0.00  0.00     0.000 C 
ENDROOT
BRANCH   1   8
ATOM      8  CA  UNL d   1     -41.510-122.185 -51.304  0.00  0.00     0.167 C 
ATOM      9  N   UNL d   1     -41.123-121.451 -51.287  0.00  0.00    -0.142 N 
BRANCH   8  10
ATOM     10  C   UNL d   1     -41.580-122.594 -52.018  0.00  0.00     0.231 C 
ATOM     11  O   UNL d   1     -41.134-123.278 -52.148  0.00  0.00    -0.643 OA
ATOM     12  OXT UNL d   1     -42.095-122.321 -52.600  0.00  0.00    -0.643 OA
ENDBRANCH   8  10
ENDBRANCH   1   8
TORSDOF 2
ENDMDL
MODEL 3
REMARK VINA RESULT:      -3.3      2.032      2.848
REMARK  2 active torsions:
REMARK  status: ('A' for Active; 'I' for Inactive)
REMARK    1  A    between atoms: CA_2  and  C_1 
REMARK    2  A    between atoms: C_3  and  CA_2 
ROOT
ATOM      1  C   UNL d   1     -41.607-122.939 -50.749  0.00  0.00     0.025 A 
ATOM      2  C   UNL d   1     -41.412-123.572 -51.237  0.00  0.00     0.002 A 
ATOM      3  C   UNL d   1     -41.640-122.170 -51.059  0.00  0.00     0.002 A 
ATOM      4  C   UNL d   1     -41.251-123.442 -52.034  0.00  0.00     0.000 A 
ATOM      5  C   UNL d   1     -41.479-122.039 -51.855  0.00  0.00     0.000 A 
ATOM      6  C   UNL d   1     -41.285-122.673 -52.344  0.00  0.00     0.000 A 
ATOM      7  C   UNL d   1     -41.122-122.543 -53.144  0.00  0.00     0.000 C 
ENDROOT
BRANCH   1   8
ATOM      8  CA  UNL d   1     -41.768-123.077 -49.949  0.00  0.00     0.167 C 
ATOM      9  N   UNL d   1     -41.141-123.172 -49.413  0.00  0.00    -0.142 N 
BRANCH   8  10
ATOM     10  C   UNL d   1     -42.547-123.119 -49.680  0.00  0.00     0.231 C 
ATOM     11  O   UNL d   1     -42.981-123.816 -49.782  0.00  0.00    -0.643 OA
ATOM     12  OXT UNL d   1     -42.892-122.470 -49.310  0.00  0.00    -0.643 OA
ENDBRANCH   8  10
ENDBRANCH   1   8
TORSDOF 2
ENDMDL
