MODEL 1
REMARK VINA RESULT:      -9.9      0.000      0.000
REMARK  3 active torsions:
REMARK  status: ('A' for Active; 'I' for Inactive)
REMARK       I    between atoms: C_6  and  N_7 
REMARK    1  A    between atoms: C_9  and  C_6 
REMARK    2  A    between atoms: N_7  and  C_13 
REMARK    3  A    between atoms: C_15  and  C_14 
ROOT
ATOM      1  C   UNL d   1      54.011  33.985  54.780  0.00  0.00     0.279 C 
ATOM      2  N   UNL d   1      53.560  34.618  54.518  0.00  0.00    -0.208 NA
ATOM      3  O   UNL d   1      54.534  34.090  55.403  0.00  0.00    -0.265 OA
ENDROOT
BRANCH   2   4
ATOM      4  C   UNL d   1      53.033  34.516  53.892  0.00  0.00     0.085 A 
ATOM      5  C   UNL d   1      52.251  34.330  54.050  0.00  0.00     0.024 A 
ATOM      6  C   UNL d   1      51.724  34.229  53.424  0.00  0.00     0.064 A 
ATOM      7  C   UNL d   1      50.917  34.042  53.409  0.00  0.00     0.282 A 
ATOM      8  C   UNL d   1      51.970  34.311  52.648  0.00  0.00     0.063 A 
ATOM      9  N   UNL d   1      50.679  34.013  52.623  0.00  0.00    -0.169 NA
ATOM     10  O   UNL d   1      50.424  33.907  54.053  0.00  0.00    -0.265 OA
ATOM     11  C   UNL d   1      51.329  34.179  52.155  0.00  0.00     0.282 A 
ATOM     12  O   UNL d   1      51.344  34.209  51.332  0.00  0.00    -0.265 OA
ATOM     13  C   UNL d   1      52.758  34.499  52.490  0.00  0.00     0.006 A 
ATOM     14  C   UNL d   1      53.292  34.602  53.109  0.00  0.00     0.019 A 
ENDBRANCH   2   4
BRANCH   1  15
ATOM     15  C   UNL d   1      53.944  33.254  54.425  0.00  0.00     0.058 A 
ATOM     16  C   UNL d   1      54.353  33.087  53.734  0.00  0.00     0.005 A 
ATOM     17  C   UNL d   1      54.279  32.343  53.380  0.00  0.00     0.003 A 
ATOM     18  C   UNL d   1      53.795  31.768  53.721  0.00  0.00     0.039 A 
ATOM     19  C   UNL d   1      53.384  31.938  54.416  0.00  0.00     0.003 A 
ATOM     20  C   UNL d   1      53.458  32.682  54.770  0.00  0.00     0.005 A 
BRANCH  18  21
ATOM     21  C   UNL d   1      53.721  31.024  53.367  0.00  0.00     0.196 C 
ATOM     22  O   UNL d   1      54.349  30.491  53.391  0.00  0.00    -0.287 OA
ATOM     23  C   UNL d   1      53.016  30.817  52.990  0.00  0.00     0.045 C 
ENDBRANCH  18  21
ENDBRANCH   1  15
TORSDOF 3
ENDMDL
MODEL 2
REMARK VINA RESULT:      -9.6      1.439      3.874
REMARK  3 active torsions:
REMARK  status: ('A' for Active; 'I' for Inactive)
REMARK       I    between atoms: C_6  and  N_7 
REMARK    1  A    between atoms: C_9  and  C_6 
REMARK    2  A    between atoms: N_7  and  C_13 
REMARK    3  A    between atoms: C_15  and  C_14 
ROOT
ATOM      1  C   UNL d   1      52.888  31.498  52.963  0.00  0.00     0.279 C 
ATOM      2  N   UNL d   1      53.552  31.348  53.421  0.00  0.00    -0.208 NA
ATOM      3  O   UNL d   1      52.599  30.913  52.465  0.00  0.00    -0.265 OA
ENDROOT
BRANCH   2   4
ATOM      4  C   UNL d   1      53.846  31.933  53.923  0.00  0.00     0.085 A 
ATOM      5  C   UNL d   1      54.476  32.395  53.677  0.00  0.00     0.024 A 
ATOM      6  C   UNL d   1      54.770  32.980  54.179  0.00  0.00     0.064 A 
ATOM      7  C   UNL d   1      55.389  33.524  54.088  0.00  0.00     0.282 A 
ATOM      8  C   UNL d   1      54.441  33.106  54.918  0.00  0.00     0.063 A 
ATOM      9  N   UNL d   1      55.431  33.975  54.772  0.00  0.00    -0.169 NA
ATOM     10  O   UNL d   1      55.883  33.611  53.437  0.00  0.00    -0.265 OA
ATOM     11  C   UNL d   1      54.847  33.717  55.284  0.00  0.00     0.282 A 
ATOM     12  O   UNL d   1      54.688  34.014  56.035  0.00  0.00    -0.265 OA
ATOM     13  C   UNL d   1      53.807  32.640  55.164  0.00  0.00     0.006 A 
ATOM     14  C   UNL d   1      53.507  32.053  54.670  0.00  0.00     0.019 A 
ENDBRANCH   2   4
BRANCH   1  15
ATOM     15  C   UNL d   1      52.514  32.221  53.000  0.00  0.00     0.058 A 
ATOM     16  C   UNL d   1      51.924  32.357  53.554  0.00  0.00     0.005 A 
ATOM     17  C   UNL d   1      51.549  33.094  53.585  0.00  0.00     0.003 A 
ATOM     18  C   UNL d   1      51.768  33.693  53.061  0.00  0.00     0.039 A 
ATOM     19  C   UNL d   1      52.361  33.554  52.505  0.00  0.00     0.003 A 
ATOM     20  C   UNL d   1      52.736  32.817  52.474  0.00  0.00     0.005 A 
BRANCH  18  21
ATOM     21  C   UNL d   1      51.393  34.429  53.092  0.00  0.00     0.196 C 
ATOM     22  O   UNL d   1      51.791  35.083  53.399  0.00  0.00    -0.287 OA
ATOM     23  C   UNL d   1      50.619  34.508  52.816  0.00  0.00     0.045 C 
ENDBRANCH  18  21
ENDBRANCH   1  15
TORSDOF 3
ENDMDL
MODEL 3
REMARK VINA RESULT:      -9.4      1.105      2.626
REMARK  3 active torsions:
REMARK  status: ('A' for Active; 'I' for Inactive)
REMARK       I    between atoms: C_6  and  N_7 
REMARK    1  A    between atoms: C_9  and  C_6 
REMARK    2  A    between atoms: N_7  and  C_13 
REMARK    3  A    between atoms: C_15  and  C_14 
ROOT
ATOM      1  C   UNL d   1      53.465  31.425  53.185  0.00  0.00     0.279 C 
ATOM      2  N   UNL d   1      52.731  31.477  52.821  0.00  0.00    -0.208 NA
ATOM      3  O   UNL d   1      53.928  30.758  53.067  0.00  0.00    -0.265 OA
ENDROOT
BRANCH   2   4
ATOM      4  C   UNL d   1      52.262  32.146  52.937  0.00  0.00     0.085 A 
ATOM      5  C   UNL d   1      52.292  32.757  52.393  0.00  0.00     0.024 A 
ATOM      6  C   UNL d   1      51.822  33.426  52.509  0.00  0.00     0.064 A 
ATOM      7  C   UNL d   1      51.734  34.120  52.064  0.00  0.00     0.282 A 
ATOM      8  C   UNL d   1      51.328  33.487  53.158  0.00  0.00     0.063 A 
ATOM      9  N   UNL d   1      51.187  34.597  52.448  0.00  0.00    -0.169 NA
ATOM     10  O   UNL d   1      52.117  34.315  51.363  0.00  0.00    -0.265 OA
ATOM     11  C   UNL d   1      50.937  34.206  53.122  0.00  0.00     0.282 A 
ATOM     12  O   UNL d   1      50.389  34.481  53.671  0.00  0.00    -0.265 OA
ATOM     13  C   UNL d   1      51.299  32.870  53.705  0.00  0.00     0.006 A 
ATOM     14  C   UNL d   1      51.764  32.199  53.598  0.00  0.00     0.019 A 
ENDBRANCH   2   4
BRANCH   1  15
ATOM     15  C   UNL d   1      53.735  32.028  53.661  0.00  0.00     0.058 A 
ATOM     16  C   UNL d   1      53.530  32.055  54.455  0.00  0.00     0.005 A 
ATOM     17  C   UNL d   1      53.809  32.671  54.932  0.00  0.00     0.003 A 
ATOM     18  C   UNL d   1      54.291  33.259  54.612  0.00  0.00     0.039 A 
ATOM     19  C   UNL d   1      54.495  33.230  53.813  0.00  0.00     0.003 A 
ATOM     20  C   UNL d   1      54.217  32.614  53.336  0.00  0.00     0.005 A 
BRANCH  18  21
ATOM     21  C   UNL d   1      54.569  33.874  55.089  0.00  0.00     0.196 C 
ATOM     22  O   UNL d   1      54.102  34.541  55.216  0.00  0.00    -0.287 OA
ATOM     23  C   UNL d   1      55.316  33.819  55.436  0.00  0.00     0.045 C 
ENDBRANCH  18  21
ENDBRANCH   1  15
TORSDOF 3
ENDMDL
MODEL 4
REMARK VINA RESULT:      -9.2      1.291      3.446
REMARK  3 active torsions:
REMARK  status: ('A' for Active; 'I' for Inactive)
REMARK       I    between atoms: C_6  and  N_7 
REMARK    1  A    between atoms: C_9  and  C_6 
REMARK    2  A    between atoms: N_7  and  C_13 
REMARK    3  A    between atoms: C_15  and  C_14 
ROOT
ATOM      1  C   UNL d   1      53.205  35.349  54.515  0.00  0.00     0.279 C 
ATOM      2  N   UNL d   1      53.742  34.849  54.882  0.00  0.00    -0.208 NA
ATOM      3  O   UNL d   1      53.185  36.143  54.719  0.00  0.00    -0.265 OA
ENDROOT
BRANCH   2   4
ATOM      4  C   UNL d   1      53.765  34.049  54.679  0.00  0.00     0.085 A 
ATOM      5  C   UNL d   1      54.309  33.791  54.124  0.00  0.00     0.024 A 
ATOM      6  C   UNL d   1      54.332  32.992  53.921  0.00  0.00     0.064 A 
ATOM      7  C   UNL d   1      54.810  32.573  53.390  0.00  0.00     0.282 A 
ATOM      8  C   UNL d   1      53.820  32.454  54.266  0.00  0.00     0.063 A 
ATOM      9  N   UNL d   1      54.585  31.783  53.416  0.00  0.00    -0.169 NA
ATOM     10  O   UNL d   1      55.408  32.874  52.913  0.00  0.00    -0.265 OA
ATOM     11  C   UNL d   1      53.974  31.711  53.956  0.00  0.00     0.282 A 
ATOM     12  O   UNL d   1      53.580  31.018  54.158  0.00  0.00    -0.265 OA
ATOM     13  C   UNL d   1      53.273  32.716  54.825  0.00  0.00     0.006 A 
ATOM     14  C   UNL d   1      53.242  33.513  55.033  0.00  0.00     0.019 A 
ENDBRANCH   2   4
BRANCH   1  15
ATOM     15  C   UNL d   1      52.691  35.062  53.950  0.00  0.00     0.058 A 
ATOM     16  C   UNL d   1      51.966  34.747  54.169  0.00  0.00     0.005 A 
ATOM     17  C   UNL d   1      51.450  34.458  53.590  0.00  0.00     0.003 A 
ATOM     18  C   UNL d   1      51.664  34.485  52.793  0.00  0.00     0.039 A 
ATOM     19  C   UNL d   1      52.394  34.802  52.576  0.00  0.00     0.003 A 
ATOM     20  C   UNL d   1      52.910  35.091  53.155  0.00  0.00     0.005 A 
BRANCH  18  21
ATOM     21  C   UNL d   1      51.149  34.196  52.214  0.00  0.00     0.196 C 
ATOM     22  O   UNL d   1      51.434  34.009  51.464  0.00  0.00    -0.287 OA
ATOM     23  C   UNL d   1      50.348  34.096  52.390  0.00  0.00     0.045 C 
ENDBRANCH  18  21
ENDBRANCH   1  15
TORSDOF 3
ENDMDL
MODEL 5
REMARK VINA RESULT:      -8.9      1.245      3.271
REMARK  3 active torsions:
REMARK  status: ('A' for Active; 'I' for Inactive)
REMARK       I    between atoms: C_6  and  N_7 
REMARK    1  A    between atoms: C_9  and  C_6 
REMARK    2  A    between atoms: N_7  and  C_13 
REMARK    3  A    between atoms: C_15  and  C_14 
ROOT
ATOM      1  C   UNL d   1      53.892  34.035  54.638  0.00  0.00     0.279 C 
ATOM      2  N   UNL d   1      54.336  33.346  54.656  0.00  0.00    -0.208 NA
ATOM      3  O   UNL d   1      54.118  34.676  55.098  0.00  0.00    -0.265 OA
ENDROOT
BRANCH   2   4
ATOM      4  C   UNL d   1      54.112  32.699  54.195  0.00  0.00     0.085 A 
ATOM      5  C   UNL d   1      53.800  32.035  54.559  0.00  0.00     0.024 A 
ATOM      6  C   UNL d   1      53.575  31.389  54.099  0.00  0.00     0.064 A 
ATOM      7  C   UNL d   1      53.249  30.654  54.303  0.00  0.00     0.282 A 
ATOM      8  C   UNL d   1      53.660  31.401  53.285  0.00  0.00     0.063 A 
ATOM      9  N   UNL d   1      53.139  30.227  53.611  0.00  0.00    -0.169 NA
ATOM     10  O   UNL d   1      53.063  30.384  55.056  0.00  0.00    -0.265 OA
ATOM     11  C   UNL d   1      53.392  30.687  52.983  0.00  0.00     0.282 A 
ATOM     12  O   UNL d   1      53.382  30.478  52.188  0.00  0.00    -0.265 OA
ATOM     13  C   UNL d   1      53.974  32.071  52.920  0.00  0.00     0.006 A 
ATOM     14  C   UNL d   1      54.201  32.721  53.372  0.00  0.00     0.019 A 
ENDBRANCH   2   4
BRANCH   1  15
ATOM     15  C   UNL d   1      53.228  34.087  54.167  0.00  0.00     0.058 A 
ATOM     16  C   UNL d   1      52.504  33.811  54.436  0.00  0.00     0.005 A 
ATOM     17  C   UNL d   1      51.835  33.868  53.952  0.00  0.00     0.003 A 
ATOM     18  C   UNL d   1      51.895  34.201  53.200  0.00  0.00     0.039 A 
ATOM     19  C   UNL d   1      52.624  34.478  52.932  0.00  0.00     0.003 A 
ATOM     20  C   UNL d   1      53.293  34.422  53.415  0.00  0.00     0.005 A 
BRANCH  18  21
ATOM     21  C   UNL d   1      51.226  34.258  52.716  0.00  0.00     0.196 C 
ATOM     22  O   UNL d   1      51.307  34.236  51.897  0.00  0.00    -0.287 OA
ATOM     23  C   UNL d   1      50.478  34.336  53.057  0.00  0.00     0.045 C 
ENDBRANCH  18  21
ENDBRANCH   1  15
TORSDOF 3
ENDMDL
MODEL 6
REMARK VINA RESULT:      -8.2      1.821      3.754
REMARK  3 active torsions:
REMARK  status: ('A' for Active; 'I' for Inactive)
REMARK       I    between atoms: C_6  and  N_7 
REMARK    1  A    between atoms: C_9  and  C_6 
REMARK    2  A    between atoms: N_7  and  C_13 
REMARK    3  A    between atoms: C_15  and  C_14 
ROOT
ATOM      1  C   UNL d   1      52.679  32.721  52.610  0.00  0.00     0.279 C 
ATOM      2  N   UNL d   1      52.494  31.963  52.359  0.00  0.00    -0.208 NA
ATOM      3  O   UNL d   1      52.390  33.367  52.195  0.00  0.00    -0.265 OA
ENDROOT
BRANCH   2   4
ATOM      4  C   UNL d   1      52.783  31.310  52.774  0.00  0.00     0.085 A 
ATOM      5  C   UNL d   1      52.268  30.862  53.225  0.00  0.00     0.024 A 
ATOM      6  C   UNL d   1      52.556  30.209  53.640  0.00  0.00     0.064 A 
ATOM      7  C   UNL d   1      52.179  29.660  54.134  0.00  0.00     0.282 A 
ATOM      8  C   UNL d   1      53.348  30.005  53.607  0.00  0.00     0.063 A 
ATOM      9  N   UNL d   1      52.745  29.127  54.396  0.00  0.00    -0.169 NA
ATOM     10  O   UNL d   1      51.383  29.637  54.336  0.00  0.00    -0.265 OA
ATOM     11  C   UNL d   1      53.466  29.340  54.071  0.00  0.00     0.282 A 
ATOM     12  O   UNL d   1      54.186  28.958  54.186  0.00  0.00    -0.265 OA
ATOM     13  C   UNL d   1      53.865  30.458  53.151  0.00  0.00     0.006 A 
ATOM     14  C   UNL d   1      53.586  31.111  52.734  0.00  0.00     0.019 A 
ENDBRANCH   2   4
BRANCH   1  15
ATOM     15  C   UNL d   1      53.147  32.837  53.267  0.00  0.00     0.058 A 
ATOM     16  C   UNL d   1      53.964  32.827  53.204  0.00  0.00     0.005 A 
ATOM     17  C   UNL d   1      54.432  32.946  53.876  0.00  0.00     0.003 A 
ATOM     18  C   UNL d   1      54.078  33.074  54.610  0.00  0.00     0.039 A 
ATOM     19  C   UNL d   1      53.255  33.084  54.672  0.00  0.00     0.003 A 
ATOM     20  C   UNL d   1      52.788  32.966  54.000  0.00  0.00     0.005 A 
BRANCH  18  21
ATOM     21  C   UNL d   1      54.546  33.193  55.282  0.00  0.00     0.196 C 
ATOM     22  O   UNL d   1      54.411  32.747  55.962  0.00  0.00    -0.287 OA
ATOM     23  C   UNL d   1      55.147  33.759  55.269  0.00  0.00     0.045 C 
ENDBRANCH  18  21
ENDBRANCH   1  15
TORSDOF 3
ENDMDL
MODEL 7
REMARK VINA RESULT:      -7.6      1.352      3.205
REMARK  3 active torsions:
REMARK  status: ('A' for Active; 'I' for Inactive)
REMARK       I    between atoms: C_6  and  N_7 
REMARK    1  A    between atoms: C_9  and  C_6 
REMARK    2  A    between atoms: N_7  and  C_13 
REMARK    3  A    between atoms: C_15  and  C_14 
ROOT
ATOM      1  C   UNL d   1      52.117  33.342  52.591  0.00  0.00     0.279 C 
ATOM      2  N   UNL d   1      52.479  33.958  52.994  0.00  0.00    -0.208 NA
ATOM      3  O   UNL d   1      51.606  33.508  51.970  0.00  0.00    -0.265 OA
ENDROOT
BRANCH   2   4
ATOM      4  C   UNL d   1      52.993  33.796  53.618  0.00  0.00     0.085 A 
ATOM      5  C   UNL d   1      53.795  33.727  53.471  0.00  0.00     0.024 A 
ATOM      6  C   UNL d   1      54.309  33.565  54.095  0.00  0.00     0.064 A 
ATOM      7  C   UNL d   1      55.132  33.465  54.119  0.00  0.00     0.282 A 
ATOM      8  C   UNL d   1      54.030  33.472  54.858  0.00  0.00     0.063 A 
ATOM      9  N   UNL d   1      55.345  33.312  54.897  0.00  0.00    -0.169 NA
ATOM     10  O   UNL d   1      55.658  33.508  53.489  0.00  0.00    -0.265 OA
ATOM     11  C   UNL d   1      54.665  33.317  55.353  0.00  0.00     0.282 A 
ATOM     12  O   UNL d   1      54.619  33.188  56.165  0.00  0.00    -0.265 OA
ATOM     13  C   UNL d   1      53.221  33.541  55.006  0.00  0.00     0.006 A 
ATOM     14  C   UNL d   1      52.700  33.703  54.388  0.00  0.00     0.019 A 
ENDBRANCH   2   4
BRANCH   1  15
ATOM     15  C   UNL d   1      52.261  32.568  52.803  0.00  0.00     0.058 A 
ATOM     16  C   UNL d   1      51.804  32.201  53.377  0.00  0.00     0.005 A 
ATOM     17  C   UNL d   1      51.957  31.416  53.586  0.00  0.00     0.003 A 
ATOM     18  C   UNL d   1      52.567  31.000  53.219  0.00  0.00     0.039 A 
ATOM     19  C   UNL d   1      53.026  31.370  52.642  0.00  0.00     0.003 A 
ATOM     20  C   UNL d   1      52.873  32.156  52.433  0.00  0.00     0.005 A 
BRANCH  18  21
ATOM     21  C   UNL d   1      52.720  30.214  53.429  0.00  0.00     0.196 C 
ATOM     22  O   UNL d   1      52.118  29.653  53.390  0.00  0.00    -0.287 OA
ATOM     23  C   UNL d   1      53.476  29.995  53.676  0.00  0.00     0.045 C 
ENDBRANCH  18  21
ENDBRANCH   1  15
TORSDOF 3
ENDMDL
MODEL 8
REMARK VINA RESULT:      -7.6      1.558      3.474
REMARK  3 active torsions:
REMARK  status: ('A' for Active; 'I' for Inactive)
REMARK       I    between atoms: C_6  and  N_7 
REMARK    1  A    between atoms: C_9  and  C_6 
REMARK    2  A    between atoms: N_7  and  C_13 
REMARK    3  A    between atoms: C_15  and  C_14 
ROOT
ATOM      1  C   UNL d   1      52.531  32.644  52.803  0.00  0.00     0.279 C 
ATOM      2  N   UNL d   1      53.220  32.918  53.153  0.00  0.00    -0.208 NA
ATOM      3  O   UNL d   1      52.512  31.889  52.483  0.00  0.00    -0.265 OA
ENDROOT
BRANCH   2   4
ATOM      4  C   UNL d   1      53.244  33.676  53.477  0.00  0.00     0.085 A 
ATOM      5  C   UNL d   1      53.206  33.768  54.290  0.00  0.00     0.024 A 
ATOM      6  C   UNL d   1      53.230  34.527  54.613  0.00  0.00     0.064 A 
ATOM      7  C   UNL d   1      53.203  34.791  55.398  0.00  0.00     0.282 A 
ATOM      8  C   UNL d   1      53.291  35.188  54.134  0.00  0.00     0.063 A 
ATOM      9  N   UNL d   1      53.247  35.611  55.390  0.00  0.00    -0.169 NA
ATOM     10  O   UNL d   1      53.142  34.332  56.077  0.00  0.00    -0.265 OA
ATOM     11  C   UNL d   1      53.302  35.855  54.610  0.00  0.00     0.282 A 
ATOM     12  O   UNL d   1      53.358  36.632  54.344  0.00  0.00    -0.265 OA
ATOM     13  C   UNL d   1      53.329  35.093  53.316  0.00  0.00     0.006 A 
ATOM     14  C   UNL d   1      53.306  34.340  52.984  0.00  0.00     0.019 A 
ENDBRANCH   2   4
BRANCH   1  15
ATOM     15  C   UNL d   1      51.867  33.116  52.771  0.00  0.00     0.058 A 
ATOM     16  C   UNL d   1      51.773  33.661  52.165  0.00  0.00     0.005 A 
ATOM     17  C   UNL d   1      51.097  34.137  52.139  0.00  0.00     0.003 A 
ATOM     18  C   UNL d   1      50.516  34.064  52.721  0.00  0.00     0.039 A 
ATOM     19  C   UNL d   1      50.613  33.515  53.330  0.00  0.00     0.003 A 
ATOM     20  C   UNL d   1      51.290  33.040  53.355  0.00  0.00     0.005 A 
BRANCH  18  21
ATOM     21  C   UNL d   1      49.840  34.540  52.696  0.00  0.00     0.196 C 
ATOM     22  O   UNL d   1      49.643  35.012  53.342  0.00  0.00    -0.287 OA
ATOM     23  C   UNL d   1      49.363  34.540  52.022  0.00  0.00     0.045 C 
ENDBRANCH  18  21
ENDBRANCH   1  15
TORSDOF 3
ENDMDL
