MODEL 1
REMARK VINA RESULT:      53.6      0.000      0.000
REMARK  9 active torsions:
REMARK  status: ('A' for Active; 'I' for Inactive)
REMARK    1  A    between atoms: C_7  and  N_1 
REMARK    2  A    between atoms: C_8  and  C_3 
REMARK    3  A    between atoms: O_9  and  C_6 
REMARK    4  A    between atoms: O_19  and  C_8 
REMARK    5  A    between atoms: C_18  and  O_9 
REMARK    6  A    between atoms: C_10  and  C_18 
REMARK       I    between atoms: N_11  and  C_10 
REMARK    7  A    between atoms: C_14  and  N_11 
REMARK    8  A    between atoms: C_28  and  O_19 
REMARK    9  A    between atoms: O_23  and  C_20 
ROOT
ATOM      1  N   UNL d   1      46.148 -18.705  42.359  0.00  0.00    -0.194 N 
ATOM      2  N   UNL d   1      46.086 -19.232  41.726  0.00  0.00    -0.155 NA
ATOM      3  C   UNL d   1      46.032 -18.941  40.960  0.00  0.00     0.187 A 
ATOM      4  C   UNL d   1      46.156 -17.892  42.220  0.00  0.00     0.282 A 
ATOM      5  C   UNL d   1      46.101 -17.606  41.449  0.00  0.00     0.089 A 
ATOM      6  C   UNL d   1      46.039 -18.128  40.821  0.00  0.00     0.130 A 
ATOM      7  O   UNL d   1      46.218 -17.367  42.851  0.00  0.00    -0.265 OA
ENDROOT
BRANCH   6   8
ATOM      8  O   UNL d   1      45.984 -17.842  40.049  0.00  0.00    -0.298 OA
BRANCH   8   9
ATOM      9  C   UNL d   1      45.855 -17.044  39.911  0.00  0.00     0.185 C 
BRANCH   9  10
ATOM     10  C   UNL d   1      45.513 -16.804  39.197  0.00  0.00     0.304 C 
ATOM     11  N   UNL d   1      45.821 -16.155  38.794  0.00  0.00    -0.206 NA
ATOM     12  O   UNL d   1      44.871 -17.212  38.893  0.00  0.00    -0.263 OA
BRANCH  11  13
ATOM     13  C   UNL d   1      45.479 -15.915  38.080  0.00  0.00     0.087 A 
ATOM     14  C   UNL d   1      44.713 -16.120  37.899  0.00  0.00     0.043 A 
ATOM     15  C   UNL d   1      44.364 -15.888  37.196  0.00  0.00     0.096 A 
ATOM     16  C   UNL d   1      44.800 -15.438  36.660  0.00  0.00     0.024 A 
ATOM     17  C   UNL d   1      45.578 -15.228  36.838  0.00  0.00     0.004 A 
ATOM     18  C   UNL d   1      45.916 -15.465  37.544  0.00  0.00     0.019 A 
BRANCH  15  19
ATOM     19  O   UNL d   1      43.592 -16.102  37.029  0.00  0.00    -0.328 OA
ATOM     20  C   UNL d   1      43.427 -16.515  36.332  0.00  0.00     0.181 C 
ENDBRANCH  15  19
ENDBRANCH  11  13
ENDBRANCH   9  10
ENDBRANCH   8   9
ENDBRANCH   6   8
BRANCH   3  21
ATOM     21  C   UNL d   1      45.970 -19.463  40.333  0.00  0.00     0.322 C 
ATOM     22  O   UNL d   1      45.230 -19.748  40.103  0.00  0.00    -0.257 OA
BRANCH  21  23
ATOM     23  O   UNL d   1      46.647 -19.712  39.923  0.00  0.00    -0.270 OA
BRANCH  23  24
ATOM     24  C   UNL d   1      46.597 -20.299  39.354  0.00  0.00     0.126 C 
ATOM     25  C   UNL d   1      46.050 -20.234  38.740  0.00  0.00     0.029 C 
ENDBRANCH  23  24
ENDBRANCH  21  23
ENDBRANCH   3  21
BRANCH   1  26
ATOM     26  C   UNL d   1      46.203 -18.993  43.128  0.00  0.00     0.097 A 
ATOM     27  C   UNL d   1      46.456 -19.779  43.261  0.00  0.00     0.075 A 
ATOM     28 CL   UNL d   1      46.647 -20.257  42.625  0.00  0.00    -0.081 Cl
ATOM     29  C   UNL d   1      46.507 -20.059  44.028  0.00  0.00     0.013 A 
ATOM     30  C   UNL d   1      46.314 -19.576  44.670  0.00  0.00     0.001 A 
ATOM     31  C   UNL d   1      46.063 -18.795  44.531  0.00  0.00     0.002 A 
ATOM     32  C   UNL d   1      46.010 -18.509  43.759  0.00  0.00     0.020 A 
ENDBRANCH   1  26
TORSDOF 9
ENDMDL
MODEL 2
REMARK VINA RESULT:      54.9      2.676      4.908
REMARK  9 active torsions:
REMARK  status: ('A' for Active; 'I' for Inactive)
REMARK    1  A    between atoms: C_7  and  N_1 
REMARK    2  A    between atoms: C_8  and  C_3 
REMARK    3  A    between atoms: O_9  and  C_6 
REMARK    4  A    between atoms: O_19  and  C_8 
REMARK    5  A    between atoms: C_18  and  O_9 
REMARK    6  A    between atoms: C_10  and  C_18 
REMARK       I    between atoms: N_11  and  C_10 
REMARK    7  A    between atoms: C_14  and  N_11 
REMARK    8  A    between atoms: C_28  and  O_19 
REMARK    9  A    between atoms: O_23  and  C_20 
ROOT
ATOM      1  N   UNL d   1      45.972 -18.246  41.434  0.00  0.00    -0.194 N 
ATOM      2  N   UNL d   1      45.999 -18.791  42.055  0.00  0.00    -0.155 NA
ATOM      3  C   UNL d   1      46.005 -18.522  42.830  0.00  0.00     0.187 A 
ATOM      4  C   UNL d   1      45.951 -17.437  41.596  0.00  0.00     0.282 A 
ATOM      5  C   UNL d   1      45.957 -17.173  42.377  0.00  0.00     0.089 A 
ATOM      6  C   UNL d   1      45.984 -17.714  42.992  0.00  0.00     0.130 A 
ATOM      7  O   UNL d   1      45.924 -16.894  40.978  0.00  0.00    -0.265 OA
ENDROOT
BRANCH   6   8
ATOM      8  O   UNL d   1      45.990 -17.450  43.773  0.00  0.00    -0.298 OA
BRANCH   8   9
ATOM      9  C   UNL d   1      46.474 -16.826  43.998  0.00  0.00     0.185 C 
BRANCH   9  10
ATOM     10  C   UNL d   1      46.135 -16.102  44.209  0.00  0.00     0.304 C 
ATOM     11  N   UNL d   1      46.233 -15.447  43.720  0.00  0.00    -0.206 NA
ATOM     12  O   UNL d   1      45.704 -16.039  44.903  0.00  0.00    -0.263 OA
BRANCH  11  13
ATOM     13  C   UNL d   1      45.894 -14.723  43.932  0.00  0.00     0.087 A 
ATOM     14  C   UNL d   1      45.619 -14.214  43.360  0.00  0.00     0.043 A 
ATOM     15  C   UNL d   1      45.282 -13.494  43.556  0.00  0.00     0.096 A 
ATOM     16  C   UNL d   1      45.220 -13.282  44.351  0.00  0.00     0.024 A 
ATOM     17  C   UNL d   1      45.498 -13.795  44.935  0.00  0.00     0.004 A 
ATOM     18  C   UNL d   1      45.833 -14.511  44.727  0.00  0.00     0.019 A 
BRANCH  15  19
ATOM     19  O   UNL d   1      45.009 -12.993  42.969  0.00  0.00    -0.328 OA
ATOM     20  C   UNL d   1      45.554 -12.573  42.510  0.00  0.00     0.181 C 
ENDBRANCH  15  19
ENDBRANCH  11  13
ENDBRANCH   9  10
ENDBRANCH   8   9
ENDBRANCH   6   8
BRANCH   3  21
ATOM     21  C   UNL d   1      46.031 -19.062  43.445  0.00  0.00     0.322 C 
ATOM     22  O   UNL d   1      45.454 -19.648  43.506  0.00  0.00    -0.257 OA
BRANCH  21  23
ATOM     23  O   UNL d   1      46.637 -19.028  44.010  0.00  0.00    -0.270 OA
BRANCH  23  24
ATOM     24  C   UNL d   1      46.633 -19.532  44.656  0.00  0.00     0.126 C 
ATOM     25  C   UNL d   1      46.074 -20.136  44.704  0.00  0.00     0.029 C 
ENDBRANCH  23  24
ENDBRANCH  21  23
ENDBRANCH   3  21
BRANCH   1  26
ATOM     26  C   UNL d   1      45.966 -18.512  40.656  0.00  0.00     0.097 A 
ATOM     27  C   UNL d   1      45.267 -18.452  40.200  0.00  0.00     0.075 A 
ATOM     28 CL   UNL d   1      44.593 -18.129  40.532  0.00  0.00    -0.081 Cl
ATOM     29  C   UNL d   1      45.269 -18.719  39.426  0.00  0.00     0.013 A 
ATOM     30  C   UNL d   1      45.950 -19.046  39.091  0.00  0.00     0.001 A 
ATOM     31  C   UNL d   1      46.642 -19.102  39.550  0.00  0.00     0.002 A 
ATOM     32  C   UNL d   1      46.644 -18.834  40.331  0.00  0.00     0.020 A 
ENDBRANCH   1  26
TORSDOF 9
ENDMDL
