MODEL 1
REMARK VINA RESULT:      -5.8      0.000      0.000
REMARK  1 active torsions:
REMARK  status: ('A' for Active; 'I' for Inactive)
REMARK    1  A    between atoms: C_11  and  C_9 
ROOT
ATOM      1  C   UNL d   1      57.366  -0.414  31.122  0.00  0.00     0.215 A 
ATOM      2  N   UNL d   1      56.977  -1.075  31.411  0.00  0.00    -0.219 NA
ATOM      3  S   UNL d   1      57.175   0.228  31.594  0.00  0.00    -0.045 SA
ATOM      4  C   UNL d   1      56.659  -0.040  32.186  0.00  0.00     0.050 A 
ATOM      5  C   UNL d   1      56.536  -0.842  32.073  0.00  0.00     0.090 A 
ATOM      6  C   UNL d   1      56.289   0.355  32.810  0.00  0.00     0.008 A 
ATOM      7  N   UNL d   1      57.869  -0.398  30.462  0.00  0.00    -0.120 N 
ATOM      8  C   UNL d   1      56.043  -1.266  32.581  0.00  0.00     0.020 A 
ATOM      9  C   UNL d   1      55.805  -0.067  33.306  0.00  0.00     0.001 A 
ATOM     10  C   UNL d   1      55.682  -0.875  33.192  0.00  0.00     0.002 A 
ENDROOT
BRANCH   9  11
ATOM     11  C   UNL d   1      55.432   0.322  33.933  0.00  0.00     0.000 C 
ATOM     12  C   UNL d   1      54.671   0.612  33.839  0.00  0.00     0.000 C 
ENDBRANCH   9  11
TORSDOF 1
ENDMDL
MODEL 2
REMARK VINA RESULT:      -5.3      1.620      2.799
REMARK  1 active torsions:
REMARK  status: ('A' for Active; 'I' for Inactive)
REMARK    1  A    between atoms: C_11  and  C_9 
ROOT
ATOM      1  C   UNL d   1      55.256   0.191  33.877  0.00  0.00     0.215 A 
ATOM      2  N   UNL d   1      55.372  -0.584  33.639  0.00  0.00    -0.219 NA
ATOM      3  S   UNL d   1      55.686   0.682  33.382  0.00  0.00    -0.045 SA
ATOM      4  C   UNL d   1      56.076   0.203  32.828  0.00  0.00     0.050 A 
ATOM      5  C   UNL d   1      55.882  -0.578  32.986  0.00  0.00     0.090 A 
ATOM      6  C   UNL d   1      56.581   0.388  32.202  0.00  0.00     0.008 A 
ATOM      7  N   UNL d   1      54.782   0.438  34.512  0.00  0.00    -0.120 N 
ATOM      8  C   UNL d   1      56.190  -1.188  32.522  0.00  0.00     0.020 A 
ATOM      9  C   UNL d   1      56.880  -0.216  31.750  0.00  0.00     0.001 A 
ATOM     10  C   UNL d   1      56.684  -1.002  31.910  0.00  0.00     0.002 A 
ENDROOT
BRANCH   9  11
ATOM     11  C   UNL d   1      57.386  -0.037  31.121  0.00  0.00     0.000 C 
ATOM     12  C   UNL d   1      57.721  -0.642  30.681  0.00  0.00     0.000 C 
ENDBRANCH   9  11
TORSDOF 1
ENDMDL
MODEL 3
REMARK VINA RESULT:      -4.4      1.929      3.043
REMARK  1 active torsions:
REMARK  status: ('A' for Active; 'I' for Inactive)
REMARK    1  A    between atoms: C_11  and  C_9 
ROOT
ATOM      1  C   UNL d   1      55.286   0.412  34.336  0.00  0.00     0.215 A 
ATOM      2  N   UNL d   1      56.060   0.682  34.334  0.00  0.00    -0.219 NA
ATOM      3  S   UNL d   1      55.157  -0.010  33.645  0.00  0.00    -0.045 SA
ATOM      4  C   UNL d   1      55.862  -0.002  33.209  0.00  0.00     0.050 A 
ATOM      5  C   UNL d   1      56.419   0.425  33.633  0.00  0.00     0.090 A 
ATOM      6  C   UNL d   1      56.058  -0.332  32.478  0.00  0.00     0.008 A 
ATOM      7  N   UNL d   1      54.727   0.544  34.936  0.00  0.00    -0.120 N 
ATOM      8  C   UNL d   1      57.182   0.529  33.336  0.00  0.00     0.020 A 
ATOM      9  C   UNL d   1      56.809  -0.226  32.191  0.00  0.00     0.001 A 
ATOM     10  C   UNL d   1      57.370   0.203  32.619  0.00  0.00     0.002 A 
ENDROOT
BRANCH   9  11
ATOM     11  C   UNL d   1      57.012  -0.554  31.460  0.00  0.00     0.000 C 
ATOM     12  C   UNL d   1      57.438  -0.111  30.917  0.00  0.00     0.000 C 
ENDBRANCH   9  11
TORSDOF 1
ENDMDL
MODEL 4
REMARK VINA RESULT:      -4.3      8.346      9.019
REMARK  1 active torsions:
REMARK  status: ('A' for Active; 'I' for Inactive)
REMARK    1  A    between atoms: C_11  and  C_9 
ROOT
ATOM      1  C   UNL d   1      60.737  -5.847  36.109  0.00  0.00     0.215 A 
ATOM      2  N   UNL d   1      59.937  -5.959  35.971  0.00  0.00    -0.219 NA
ATOM      3  S   UNL d   1      61.079  -6.576  36.259  0.00  0.00    -0.045 SA
ATOM      4  C   UNL d   1      60.481  -7.150  36.214  0.00  0.00     0.050 A 
ATOM      5  C   UNL d   1      59.777  -6.770  36.036  0.00  0.00     0.090 A 
ATOM      6  C   UNL d   1      60.499  -7.969  36.313  0.00  0.00     0.008 A 
ATOM      7  N   UNL d   1      61.133  -5.118  36.098  0.00  0.00    -0.120 N 
ATOM      8  C   UNL d   1      59.078  -7.201  35.954  0.00  0.00     0.020 A 
ATOM      9  C   UNL d   1      59.809  -8.387  36.232  0.00  0.00     0.001 A 
ATOM     10  C   UNL d   1      59.100  -8.004  36.053  0.00  0.00     0.002 A 
ENDROOT
BRANCH   9  11
ATOM     11  C   UNL d   1      59.820  -9.208  36.330  0.00  0.00     0.000 C 
ATOM     12  C   UNL d   1      59.117  -9.631  36.316  0.00  0.00     0.000 C 
ENDBRANCH   9  11
TORSDOF 1
ENDMDL
MODEL 5
REMARK VINA RESULT:      -3.5      1.341      3.140
REMARK  1 active torsions:
REMARK  status: ('A' for Active; 'I' for Inactive)
REMARK    1  A    between atoms: C_11  and  C_9 
ROOT
ATOM      1  C   UNL d   1      56.422  -0.658  32.360  0.00  0.00     0.215 A 
ATOM      2  N   UNL d   1      56.672  -1.220  31.819  0.00  0.00    -0.219 NA
ATOM      3  S   UNL d   1      56.769   0.060  32.169  0.00  0.00    -0.045 SA
ATOM      4  C   UNL d   1      57.242  -0.060  31.498  0.00  0.00     0.050 A 
ATOM      5  C   UNL d   1      57.183  -0.848  31.282  0.00  0.00     0.090 A 
ATOM      6  C   UNL d   1      57.716   0.457  31.063  0.00  0.00     0.008 A 
ATOM      7  N   UNL d   1      55.904  -0.793  32.995  0.00  0.00    -0.120 N 
ATOM      8  C   UNL d   1      57.596  -1.135  30.627  0.00  0.00     0.020 A 
ATOM      9  C   UNL d   1      58.120   0.169  30.421  0.00  0.00     0.001 A 
ATOM     10  C   UNL d   1      58.060  -0.624  30.204  0.00  0.00     0.002 A 
ENDROOT
BRANCH   9  11
ATOM     11  C   UNL d   1      58.596   0.682  29.981  0.00  0.00     0.000 C 
ATOM     12  C   UNL d   1      58.591   0.643  29.162  0.00  0.00     0.000 C 
ENDBRANCH   9  11
TORSDOF 1
ENDMDL
