MODEL 1
REMARK VINA RESULT:      86.4      0.000      0.000
REMARK  9 active torsions:
REMARK  status: ('A' for Active; 'I' for Inactive)
REMARK    1  A    between atoms: C_19  and  N_1 
REMARK    2  A    between atoms: S_10  and  C_2 
REMARK    3  A    between atoms: N_8  and  C_9 
REMARK    4  A    between atoms: C_20  and  S_10 
REMARK    5  A    between atoms: C_11  and  C_20 
REMARK       I    between atoms: N_13  and  C_11 
REMARK    6  A    between atoms: C_15  and  N_13 
REMARK    7  A    between atoms: C_32  and  C_19 
REMARK    8  A    between atoms: O_25  and  C_22 
REMARK    9  A    between atoms: C_33  and  C_32 
ROOT
ATOM      1  N   UNL d   1     -50.080  27.284  35.844  0.00  0.00    -0.253 N 
ATOM      2  C   UNL d   1     -49.735  27.737  35.244  0.00  0.00     0.182 A 
ATOM      3  C   UNL d   1     -50.501  26.609  35.663  0.00  0.00     0.268 A 
ATOM      4  C   UNL d   1     -50.580  26.383  34.870  0.00  0.00     0.076 A 
ATOM      5  N   UNL d   1     -49.811  27.517  34.463  0.00  0.00    -0.222 NA
ATOM      6  C   UNL d   1     -50.236  26.834  34.273  0.00  0.00     0.088 A 
ATOM      7  C   UNL d   1     -50.999  25.712  34.692  0.00  0.00     0.024 A 
ATOM      8  C   UNL d   1     -51.085  25.473  33.897  0.00  0.00     0.065 A 
ATOM      9  O   UNL d   1     -50.846  26.156  36.263  0.00  0.00    -0.267 OA
ATOM     10  C   UNL d   1     -50.313  26.611  33.490  0.00  0.00     0.021 A 
ATOM     11  C   UNL d   1     -50.736  25.934  33.306  0.00  0.00     0.019 A 
ENDROOT
BRANCH   2  12
ATOM     12  S   UNL d   1     -49.303  28.430  35.439  0.00  0.00    -0.044 SA
BRANCH  12  13
ATOM     13  C   UNL d   1     -48.489  28.388  35.554  0.00  0.00     0.101 C 
BRANCH  13  14
ATOM     14  C   UNL d   1     -48.016  29.034  35.376  0.00  0.00     0.286 C 
ATOM     15  N   UNL d   1     -48.205  29.770  35.669  0.00  0.00    -0.207 NA
ATOM     16  O   UNL d   1     -47.349  28.940  34.901  0.00  0.00    -0.265 OA
BRANCH  15  17
ATOM     17  C   UNL d   1     -47.730  30.429  35.493  0.00  0.00     0.087 A 
ATOM     18  C   UNL d   1     -47.986  30.956  34.915  0.00  0.00     0.043 A 
ATOM     19  C   UNL d   1     -47.512  31.614  34.739  0.00  0.00     0.096 A 
ATOM     20  C   UNL d   1     -46.804  31.735  35.134  0.00  0.00     0.024 A 
ATOM     21  C   UNL d   1     -46.557  31.200  35.713  0.00  0.00     0.004 A 
ATOM     22  C   UNL d   1     -47.023  30.550  35.889  0.00  0.00     0.019 A 
BRANCH  19  23
ATOM     23  O   UNL d   1     -47.765  32.154  34.151  0.00  0.00    -0.328 OA
ATOM     24  C   UNL d   1     -48.319  32.725  34.329  0.00  0.00     0.181 C 
ENDBRANCH  19  23
ENDBRANCH  15  17
ENDBRANCH  13  14
ENDBRANCH  12  13
ENDBRANCH   2  12
BRANCH   1  25
ATOM     25  C   UNL d   1     -49.994  27.523  36.640  0.00  0.00     0.085 C 
BRANCH  25  26
ATOM     26  C   UNL d   1     -50.548  27.284  37.193  0.00  0.00     0.019 C 
BRANCH  26  27
ATOM     27  C   UNL d   1     -50.464  27.505  37.985  0.00  0.00     0.002 C 
ATOM     28  C   UNL d   1     -51.116  27.805  38.399  0.00  0.00     0.000 C 
ENDBRANCH  26  27
ENDBRANCH  25  26
ENDBRANCH   1  25
BRANCH   8  29
ATOM     29  N   UNL d   1     -51.509  24.793  33.705  0.00  0.00    -0.300 N 
ATOM     30  C   UNL d   1     -52.339  24.814  33.700  0.00  0.00     0.107 A 
ATOM     31  C   UNL d   1     -52.753  24.126  33.505  0.00  0.00     0.142 A 
ATOM     32  O   UNL d   1     -52.347  23.424  33.317  0.00  0.00    -0.300 OA
ATOM     33  C   UNL d   1     -51.516  23.417  33.326  0.00  0.00     0.142 A 
ATOM     34  C   UNL d   1     -51.094  24.101  33.519  0.00  0.00     0.107 A 
ENDBRANCH   8  29
TORSDOF 9
ENDMDL
