MODEL 1
REMARK VINA RESULT:      -8.5      0.000      0.000
REMARK  2 active torsions:
REMARK  status: ('A' for Active; 'I' for Inactive)
REMARK       I    between atoms: C_2  and  N_4 
REMARK       I    between atoms: N_7  and  C_2 
REMARK    1  A    between atoms: N_4  and  C_8 
REMARK    2  A    between atoms: C_12  and  N_7 
ROOT
ATOM      1  C   UNL d   1      53.135  32.618  53.667  0.00  0.00     0.369 C 
ATOM      2  N   UNL d   1      53.072  33.426  53.547  0.00  0.00    -0.190 NA
ATOM      3  N   UNL d   1      53.000  32.093  53.049  0.00  0.00    -0.191 NA
ATOM      4  O   UNL d   1      53.336  32.334  54.415  0.00  0.00    -0.242 OA
ENDROOT
BRANCH   2   5
ATOM      5  C   UNL d   1      53.206  33.950  54.159  0.00  0.00     0.098 A 
ATOM      6  C   UNL d   1      52.890  34.548  53.680  0.00  0.00     0.118 A 
ATOM      7  S   UNL d   1      52.912  35.255  54.107  0.00  0.00     0.213 S 
ATOM      8  O   UNL d   1      52.599  35.317  53.351  0.00  0.00    -0.217 OA
ATOM      9  O   UNL d   1      52.966  35.917  54.593  0.00  0.00    -0.217 OA
ATOM     10  C   UNL d   1      53.238  35.099  54.848  0.00  0.00     0.100 A 
ATOM     11  C   UNL d   1      53.422  34.292  54.884  0.00  0.00     0.032 A 
ENDBRANCH   2   5
BRANCH   3  12
ATOM     12  C   UNL d   1      53.065  31.283  53.174  0.00  0.00     0.086 A 
ATOM     13  C   UNL d   1      52.390  30.810  53.157  0.00  0.00     0.019 A 
ATOM     14  C   UNL d   1      52.452  30.009  53.280  0.00  0.00     0.002 A 
ATOM     15  C   UNL d   1      53.188  29.665  53.423  0.00  0.00     0.000 A 
ATOM     16  C   UNL d   1      53.864  30.137  53.441  0.00  0.00     0.002 A 
ATOM     17  C   UNL d   1      53.799  30.947  53.316  0.00  0.00     0.019 A 
ENDBRANCH   3  12
TORSDOF 2
ENDMDL
MODEL 2
REMARK VINA RESULT:      -8.1      2.158      3.330
REMARK  2 active torsions:
REMARK  status: ('A' for Active; 'I' for Inactive)
REMARK       I    between atoms: C_2  and  N_4 
REMARK       I    between atoms: N_7  and  C_2 
REMARK    1  A    between atoms: N_4  and  C_8 
REMARK    2  A    between atoms: C_12  and  N_7 
ROOT
ATOM      1  C   UNL d   1      52.410  34.001  53.618  0.00  0.00     0.369 C 
ATOM      2  N   UNL d   1      53.066  34.151  54.085  0.00  0.00    -0.190 NA
ATOM      3  N   UNL d   1      51.995  34.621  53.272  0.00  0.00    -0.191 NA
ATOM      4  O   UNL d   1      52.168  33.222  53.496  0.00  0.00    -0.242 OA
ENDROOT
BRANCH   2   5
ATOM      5  C   UNL d   1      53.480  33.536  54.430  0.00  0.00     0.098 A 
ATOM      6  C   UNL d   1      53.997  34.100  54.749  0.00  0.00     0.118 A 
ATOM      7  S   UNL d   1      54.571  33.700  55.189  0.00  0.00     0.213 S 
ATOM      8  O   UNL d   1      54.651  34.517  55.177  0.00  0.00    -0.217 OA
ATOM      9  O   UNL d   1      55.105  33.233  55.606  0.00  0.00    -0.217 OA
ATOM     10  C   UNL d   1      54.414  32.892  55.145  0.00  0.00     0.100 A 
ATOM     11  C   UNL d   1      53.739  32.786  54.675  0.00  0.00     0.032 A 
ENDBRANCH   2   5
BRANCH   3  12
ATOM     12  C   UNL d   1      51.337  34.467  52.804  0.00  0.00     0.086 A 
ATOM     13  C   UNL d   1      50.583  34.496  53.134  0.00  0.00     0.019 A 
ATOM     14  C   UNL d   1      49.931  34.344  52.673  0.00  0.00     0.002 A 
ATOM     15  C   UNL d   1      50.020  34.160  51.874  0.00  0.00     0.000 A 
ATOM     16  C   UNL d   1      50.775  34.130  51.542  0.00  0.00     0.002 A 
ATOM     17  C   UNL d   1      51.432  34.284  52.011  0.00  0.00     0.019 A 
ENDBRANCH   3  12
TORSDOF 2
ENDMDL
MODEL 3
REMARK VINA RESULT:      -8.0      1.758      4.260
REMARK  2 active torsions:
REMARK  status: ('A' for Active; 'I' for Inactive)
REMARK       I    between atoms: C_2  and  N_4 
REMARK       I    between atoms: N_7  and  C_2 
REMARK    1  A    between atoms: N_4  and  C_8 
REMARK    2  A    between atoms: C_12  and  N_7 
ROOT
ATOM      1  C   UNL d   1      53.190  32.545  53.650  0.00  0.00     0.369 C 
ATOM      2  N   UNL d   1      53.458  31.784  53.506  0.00  0.00    -0.190 NA
ATOM      3  N   UNL d   1      53.722  33.146  53.827  0.00  0.00    -0.191 NA
ATOM      4  O   UNL d   1      52.382  32.704  53.616  0.00  0.00    -0.242 OA
ENDROOT
BRANCH   2   5
ATOM      5  C   UNL d   1      52.931  31.184  53.329  0.00  0.00     0.098 A 
ATOM      6  C   UNL d   1      53.526  30.641  53.526  0.00  0.00     0.118 A 
ATOM      7  S   UNL d   1      53.221  29.880  53.423  0.00  0.00     0.213 S 
ATOM      8  O   UNL d   1      54.000  29.910  53.681  0.00  0.00    -0.217 OA
ATOM      9  O   UNL d   1      52.849  29.157  53.297  0.00  0.00    -0.217 OA
ATOM     10  C   UNL d   1      52.442  29.947  53.164  0.00  0.00     0.100 A 
ATOM     11  C   UNL d   1      52.258  30.754  53.105  0.00  0.00     0.032 A 
ENDBRANCH   2   5
BRANCH   3  12
ATOM     12  C   UNL d   1      53.449  33.909  53.971  0.00  0.00     0.086 A 
ATOM     13  C   UNL d   1      53.456  34.208  54.739  0.00  0.00     0.019 A 
ATOM     14  C   UNL d   1      53.187  34.962  54.884  0.00  0.00     0.002 A 
ATOM     15  C   UNL d   1      52.907  35.430  54.264  0.00  0.00     0.000 A 
ATOM     16  C   UNL d   1      52.900  35.131  53.496  0.00  0.00     0.002 A 
ATOM     17  C   UNL d   1      53.173  34.369  53.353  0.00  0.00     0.019 A 
ENDBRANCH   3  12
TORSDOF 2
ENDMDL
MODEL 4
REMARK VINA RESULT:      -7.8      2.111      3.097
REMARK  2 active torsions:
REMARK  status: ('A' for Active; 'I' for Inactive)
REMARK       I    between atoms: C_2  and  N_4 
REMARK       I    between atoms: N_7  and  C_2 
REMARK    1  A    between atoms: N_4  and  C_8 
REMARK    2  A    between atoms: C_12  and  N_7 
ROOT
ATOM      1  C   UNL d   1      52.470  33.745  53.521  0.00  0.00     0.369 C 
ATOM      2  N   UNL d   1      51.999  33.862  52.861  0.00  0.00    -0.190 NA
ATOM      3  N   UNL d   1      53.261  33.539  53.436  0.00  0.00    -0.191 NA
ATOM      4  O   UNL d   1      52.145  33.835  54.274  0.00  0.00    -0.242 OA
ENDROOT
BRANCH   2   5
ATOM      5  C   UNL d   1      51.212  34.067  52.943  0.00  0.00     0.098 A 
ATOM      6  C   UNL d   1      51.162  34.097  52.117  0.00  0.00     0.118 A 
ATOM      7  S   UNL d   1      50.388  34.305  51.915  0.00  0.00     0.213 S 
ATOM      8  O   UNL d   1      50.892  34.186  51.278  0.00  0.00    -0.217 OA
ATOM      9  O   UNL d   1      49.601  34.514  51.793  0.00  0.00    -0.217 OA
ATOM     10  C   UNL d   1      49.958  34.403  52.611  0.00  0.00     0.100 A 
ATOM     11  C   UNL d   1      50.464  34.257  53.250  0.00  0.00     0.032 A 
ENDBRANCH   2   5
BRANCH   3  12
ATOM     12  C   UNL d   1      53.731  33.422  54.101  0.00  0.00     0.086 A 
ATOM     13  C   UNL d   1      53.752  32.682  54.463  0.00  0.00     0.019 A 
ATOM     14  C   UNL d   1      54.216  32.564  55.121  0.00  0.00     0.002 A 
ATOM     15  C   UNL d   1      54.667  33.183  55.428  0.00  0.00     0.000 A 
ATOM     16  C   UNL d   1      54.647  33.923  55.066  0.00  0.00     0.002 A 
ATOM     17  C   UNL d   1      54.177  34.039  54.402  0.00  0.00     0.019 A 
ENDBRANCH   3  12
TORSDOF 2
ENDMDL
