MODEL 1
REMARK VINA RESULT:      48.1      0.000      0.000
REMARK  9 active torsions:
REMARK  status: ('A' for Active; 'I' for Inactive)
REMARK    1  A    between atoms: C_2  and  N_11 
REMARK    2  A    between atoms: S_3  and  N_22 
REMARK    3  A    between atoms: C_16  and  S_3 
REMARK    4  A    between atoms: C_21  and  C_5 
REMARK       I    between atoms: N_11  and  C_17 
REMARK    5  A    between atoms: S_23  and  C_12 
REMARK    6  A    between atoms: C_17  and  C_27 
REMARK    7  A    between atoms: C_28  and  C_21 
REMARK    8  A    between atoms: N_22  and  C_28 
REMARK    9  A    between atoms: C_27  and  S_23 
ROOT
ATOM      1  N   UNL d   1      46.212 -18.595  42.105  0.00  0.00    -0.191 N 
ATOM      2  C   UNL d   1      46.083 -19.359  42.399  0.00  0.00     0.187 A 
ATOM      3  C   UNL d   1      46.442 -18.659  41.316  0.00  0.00     0.188 A 
ATOM      4  N   UNL d   1      46.099 -17.947  42.602  0.00  0.00    -0.156 NA
ATOM      5  N   UNL d   1      46.237 -19.888  41.781  0.00  0.00    -0.127 NA
ATOM      6  N   UNL d   1      46.456 -19.462  41.124  0.00  0.00    -0.127 NA
ATOM      7  C   UNL d   1      45.863 -18.059  43.377  0.00  0.00     0.131 A 
ATOM      8  C   UNL d   1      45.846 -19.471  43.174  0.00  0.00     0.043 A 
ATOM      9  C   UNL d   1      45.735 -18.819  43.667  0.00  0.00     0.031 A 
ENDROOT
BRANCH   7  10
ATOM     10  S   UNL d   1      45.753 -17.403  43.867  0.00  0.00    -0.061 SA
BRANCH  10  11
ATOM     11  C   UNL d   1      46.325 -16.805  43.895  0.00  0.00     0.099 C 
BRANCH  11  12
ATOM     12  C   UNL d   1      46.100 -16.040  44.111  0.00  0.00     0.288 C 
ATOM     13  N   UNL d   1      46.275 -15.415  43.622  0.00  0.00    -0.182 NA
ATOM     14  O   UNL d   1      45.701 -15.909  44.817  0.00  0.00    -0.265 OA
BRANCH  13  15
ATOM     15  C   UNL d   1      46.059 -14.652  43.823  0.00  0.00     0.197 A 
ATOM     16  N   UNL d   1      45.520 -14.182  43.405  0.00  0.00    -0.221 NA
ATOM     17  C   UNL d   1      45.468 -13.458  43.801  0.00  0.00     0.090 A 
ATOM     18  C   UNL d   1      45.027 -12.789  43.642  0.00  0.00     0.020 A 
ATOM     19  C   UNL d   1      45.972 -13.484  44.459  0.00  0.00     0.050 A 
ATOM     20  C   UNL d   1      45.079 -12.127  44.137  0.00  0.00     0.002 A 
ATOM     21  C   UNL d   1      45.591 -12.158  44.803  0.00  0.00     0.001 A 
ATOM     22  C   UNL d   1      46.028 -12.830  44.955  0.00  0.00     0.008 A 
ATOM     23  S   UNL d   1      46.332 -14.207  44.477  0.00  0.00    -0.047 SA
ENDBRANCH  13  15
ENDBRANCH  11  12
ENDBRANCH  10  11
ENDBRANCH   7  10
BRANCH   3  24
ATOM     24  C   UNL d   1      46.625 -18.030  40.818  0.00  0.00     0.062 C 
BRANCH  24  25
ATOM     25  C   UNL d   1      46.129 -17.842  40.184  0.00  0.00     0.115 C 
BRANCH  25  26
ATOM     26  N   UNL d   1      46.448 -17.512  39.495  0.00  0.00    -0.157 NA
BRANCH  26  27
ATOM     27  S   UNL d   1      45.954 -17.122  38.956  0.00  0.00     0.285 S 
ATOM     28  O   UNL d   1      45.288 -17.391  39.372  0.00  0.00    -0.198 OA
ATOM     29  O   UNL d   1      46.618 -16.854  38.539  0.00  0.00    -0.198 OA
BRANCH  27  30
ATOM     30  C   UNL d   1      45.472 -16.735  38.420  0.00  0.00     0.105 A 
ATOM     31  C   UNL d   1      44.711 -17.012  38.266  0.00  0.00     0.013 A 
ATOM     32  C   UNL d   1      44.223 -16.618  37.722  0.00  0.00     0.001 A 
ATOM     33  C   UNL d   1      44.499 -15.946  37.332  0.00  0.00     0.000 A 
ATOM     34  C   UNL d   1      45.268 -15.668  37.488  0.00  0.00     0.001 A 
ATOM     35  C   UNL d   1      44.024 -15.555  36.796  0.00  0.00     0.000 C 
ATOM     36  C   UNL d   1      45.751 -16.066  38.033  0.00  0.00     0.013 A 
ENDBRANCH  27  30
ENDBRANCH  26  27
ENDBRANCH  25  26
ENDBRANCH  24  25
ENDBRANCH   3  24
TORSDOF 9
ENDMDL
