MODEL 1
REMARK VINA RESULT:      -2.5      0.000      0.000
REMARK  2 active torsions:
REMARK  status: ('A' for Active; 'I' for Inactive)
REMARK    1  A    between atoms: N_5  and  C_1 
REMARK       I    between atoms: C_4  and  N_5 
REMARK    2  A    between atoms: C_7  and  C_4 
ROOT
ATOM      1  C   UNL d   1      32.783  16.887 -23.939  0.00  0.00     0.060 A 
ATOM      2  C   UNL d   1      32.872  18.127 -23.199  0.00  0.00     0.123 A 
ATOM      3  C   UNL d   1      32.742  17.314 -23.227  0.00  0.00     0.032 A 
ATOM      4  C   UNL d   1      33.052  18.539 -23.900  0.00  0.00     0.123 A 
ATOM      5  O   UNL d   1      32.830  18.539 -22.497  0.00  0.00    -0.301 OA
ATOM      6  O   UNL d   1      33.184  19.341 -23.888  0.00  0.00    -0.301 OA
ATOM      7  C   UNL d   1      32.961  17.295 -24.632  0.00  0.00     0.007 A 
ATOM      8  C   UNL d   1      33.096  18.127 -24.611  0.00  0.00     0.027 A 
ATOM      9  C   UNL d   1      32.958  19.352 -22.454  0.00  0.00     0.149 A 
ATOM     10  C   UNL d   1      33.139  19.769 -23.156  0.00  0.00     0.149 A 
ENDROOT
BRANCH   1  11
ATOM     11  C   UNL d   1      32.652  16.082 -23.953  0.00  0.00     0.281 C 
ATOM     12  N   UNL d   1      31.902  15.824 -24.197  0.00  0.00    -0.187 NA
ATOM     13  O   UNL d   1      33.224  15.456 -23.735  0.00  0.00    -0.265 OA
BRANCH  12  14
ATOM     14  C   UNL d   1      31.314  16.395 -24.418  0.00  0.00     0.194 A 
ATOM     15  N   UNL d   1      31.314  16.867 -25.097  0.00  0.00    -0.107 NA
ATOM     16  O   UNL d   1      30.637  17.341 -25.087  0.00  0.00    -0.210 OA
ATOM     17  C   UNL d   1      30.206  17.165 -24.394  0.00  0.00     0.128 A 
ATOM     18  C   UNL d   1      30.637  16.575 -23.985  0.00  0.00     0.068 A 
ATOM     19  C   UNL d   1      29.496  17.512 -24.167  0.00  0.00     0.029 C 
ENDBRANCH  12  14
ENDBRANCH   1  11
TORSDOF 2
ENDMDL
MODEL 2
REMARK VINA RESULT:      -2.2      1.688      2.624
REMARK  2 active torsions:
REMARK  status: ('A' for Active; 'I' for Inactive)
REMARK    1  A    between atoms: N_5  and  C_1 
REMARK       I    between atoms: C_4  and  N_5 
REMARK    2  A    between atoms: C_7  and  C_4 
ROOT
ATOM      1  C   UNL d   1      30.440  15.966 -23.381  0.00  0.00     0.060 A 
ATOM      2  C   UNL d   1      31.598  16.707 -23.829  0.00  0.00     0.123 A 
ATOM      3  C   UNL d   1      30.981  16.589 -23.295  0.00  0.00     0.032 A 
ATOM      4  C   UNL d   1      31.687  16.189 -24.475  0.00  0.00     0.123 A 
ATOM      5  O   UNL d   1      32.126  17.321 -23.739  0.00  0.00    -0.301 OA
ATOM      6  O   UNL d   1      32.290  16.291 -25.010  0.00  0.00    -0.301 OA
ATOM      7  C   UNL d   1      30.527  15.453 -24.020  0.00  0.00     0.007 A 
ATOM      8  C   UNL d   1      31.157  15.567 -24.570  0.00  0.00     0.027 A 
ATOM      9  C   UNL d   1      32.747  17.450 -24.265  0.00  0.00     0.149 A 
ATOM     10  C   UNL d   1      32.839  16.932 -24.915  0.00  0.00     0.149 A 
ENDROOT
BRANCH   1  11
ATOM     11  C   UNL d   1      29.833  15.861 -22.845  0.00  0.00     0.281 C 
ATOM     12  N   UNL d   1      29.090  16.170 -23.046  0.00  0.00    -0.187 NA
ATOM     13  O   UNL d   1      29.885  15.453 -22.072  0.00  0.00    -0.265 OA
BRANCH  12  14
ATOM     14  C   UNL d   1      28.992  16.574 -23.786  0.00  0.00     0.194 A 
ATOM     15  N   UNL d   1      28.958  16.229 -24.537  0.00  0.00    -0.107 NA
ATOM     16  O   UNL d   1      28.858  16.829 -25.097  0.00  0.00    -0.210 OA
ATOM     17  C   UNL d   1      28.828  17.560 -24.694  0.00  0.00     0.128 A 
ATOM     18  C   UNL d   1      28.912  17.389 -23.878  0.00  0.00     0.068 A 
ATOM     19  C   UNL d   1      28.734  18.299 -25.041  0.00  0.00     0.029 C 
ENDBRANCH  12  14
ENDBRANCH   1  11
TORSDOF 2
ENDMDL
MODEL 3
REMARK VINA RESULT:      -1.8      1.953      2.961
REMARK  2 active torsions:
REMARK  status: ('A' for Active; 'I' for Inactive)
REMARK    1  A    between atoms: N_5  and  C_1 
REMARK       I    between atoms: C_4  and  N_5 
REMARK    2  A    between atoms: C_7  and  C_4 
ROOT
ATOM      1  C   UNL d   1      30.469  17.194 -24.610  0.00  0.00     0.060 A 
ATOM      2  C   UNL d   1      31.587  16.710 -23.830  0.00  0.00     0.123 A 
ATOM      3  C   UNL d   1      31.004  17.273 -23.979  0.00  0.00     0.032 A 
ATOM      4  C   UNL d   1      31.648  16.041 -24.321  0.00  0.00     0.123 A 
ATOM      5  O   UNL d   1      32.108  16.794 -23.209  0.00  0.00    -0.301 OA
ATOM      6  O   UNL d   1      32.218  15.477 -24.187  0.00  0.00    -0.301 OA
ATOM      7  C   UNL d   1      30.529  16.532 -25.096  0.00  0.00     0.007 A 
ATOM      8  C   UNL d   1      31.124  15.952 -24.949  0.00  0.00     0.027 A 
ATOM      9  C   UNL d   1      32.696  16.239 -23.048  0.00  0.00     0.149 A 
ATOM     10  C   UNL d   1      32.760  15.566 -23.539  0.00  0.00     0.149 A 
ENDROOT
BRANCH   1  11
ATOM     11  C   UNL d   1      29.896  17.759 -24.747  0.00  0.00     0.281 C 
ATOM     12  N   UNL d   1      29.117  17.568 -24.535  0.00  0.00    -0.187 NA
ATOM     13  O   UNL d   1      30.019  18.552 -25.096  0.00  0.00    -0.265 OA
BRANCH  12  14
ATOM     14  C   UNL d   1      28.949  16.810 -24.193  0.00  0.00     0.194 A 
ATOM     15  N   UNL d   1      28.979  16.078 -24.575  0.00  0.00    -0.107 NA
ATOM     16  O   UNL d   1      28.775  15.490 -24.032  0.00  0.00    -0.210 OA
ATOM     17  C   UNL d   1      28.615  15.856 -23.299  0.00  0.00     0.128 A 
ATOM     18  C   UNL d   1      28.727  16.678 -23.411  0.00  0.00     0.068 A 
ATOM     19  C   UNL d   1      28.392  15.473 -22.607  0.00  0.00     0.029 C 
ENDBRANCH  12  14
ENDBRANCH   1  11
TORSDOF 2
ENDMDL
MODEL 4
REMARK VINA RESULT:      -0.8      1.249      3.044
REMARK  2 active torsions:
REMARK  status: ('A' for Active; 'I' for Inactive)
REMARK    1  A    between atoms: N_5  and  C_1 
REMARK       I    between atoms: C_4  and  N_5 
REMARK    2  A    between atoms: C_7  and  C_4 
ROOT
ATOM      1  C   UNL d   1      31.938  16.264 -24.517  0.00  0.00     0.060 A 
ATOM      2  C   UNL d   1      30.807  15.954 -23.671  0.00  0.00     0.123 A 
ATOM      3  C   UNL d   1      31.602  15.869 -23.868  0.00  0.00     0.032 A 
ATOM      4  C   UNL d   1      30.319  16.448 -24.132  0.00  0.00     0.123 A 
ATOM      5  O   UNL d   1      30.484  15.563 -23.032  0.00  0.00    -0.301 OA
ATOM      6  O   UNL d   1      29.532  16.541 -23.950  0.00  0.00    -0.301 OA
ATOM      7  C   UNL d   1      31.456  16.752 -24.973  0.00  0.00     0.007 A 
ATOM      8  C   UNL d   1      30.640  16.844 -24.777  0.00  0.00     0.027 A 
ATOM      9  C   UNL d   1      29.690  15.639 -22.824  0.00  0.00     0.149 A 
ATOM     10  C   UNL d   1      29.198  16.134 -23.284  0.00  0.00     0.149 A 
ENDROOT
BRANCH   1  11
ATOM     11  C   UNL d   1      32.727  16.171 -24.701  0.00  0.00     0.281 C 
ATOM     12  N   UNL d   1      33.241  16.789 -24.495  0.00  0.00    -0.187 NA
ATOM     13  O   UNL d   1      33.093  15.481 -25.097  0.00  0.00    -0.265 OA
BRANCH  12  14
ATOM     14  C   UNL d   1      32.931  17.479 -24.109  0.00  0.00     0.194 A 
ATOM     15  N   UNL d   1      32.387  18.017 -24.421  0.00  0.00    -0.107 NA
ATOM     16  O   UNL d   1      32.243  18.602 -23.856  0.00  0.00    -0.210 OA
ATOM     17  C   UNL d   1      32.702  18.430 -23.180  0.00  0.00     0.128 A 
ATOM     18  C   UNL d   1      33.126  17.729 -23.349  0.00  0.00     0.068 A 
ATOM     19  C   UNL d   1      32.724  18.872 -22.487  0.00  0.00     0.029 C 
ENDBRANCH  12  14
ENDBRANCH   1  11
TORSDOF 2
ENDMDL
MODEL 5
REMARK VINA RESULT:      -0.8      2.033      4.057
REMARK  2 active torsions:
REMARK  status: ('A' for Active; 'I' for Inactive)
REMARK    1  A    between atoms: N_5  and  C_1 
REMARK       I    between atoms: C_4  and  N_5 
REMARK    2  A    between atoms: C_7  and  C_4 
ROOT
ATOM      1  C   UNL d   1      29.731  17.303 -24.637  0.00  0.00     0.060 A 
ATOM      2  C   UNL d   1      28.626  16.827 -23.835  0.00  0.00     0.123 A 
ATOM      3  C   UNL d   1      29.196  17.395 -24.008  0.00  0.00     0.032 A 
ATOM      4  C   UNL d   1      28.579  16.137 -24.299  0.00  0.00     0.123 A 
ATOM      5  O   UNL d   1      28.105  16.923 -23.216  0.00  0.00    -0.301 OA
ATOM      6  O   UNL d   1      28.022  15.566 -24.141  0.00  0.00    -0.301 OA
ATOM      7  C   UNL d   1      29.684  16.621 -25.097  0.00  0.00     0.007 A 
ATOM      8  C   UNL d   1      29.103  16.034 -24.925  0.00  0.00     0.027 A 
ATOM      9  C   UNL d   1      27.530  16.362 -23.031  0.00  0.00     0.149 A 
ATOM     10  C   UNL d   1      27.479  15.669 -23.495  0.00  0.00     0.149 A 
ENDROOT
BRANCH   1  11
ATOM     11  C   UNL d   1      30.291  17.875 -24.798  0.00  0.00     0.281 C 
ATOM     12  N   UNL d   1      31.086  17.676 -24.667  0.00  0.00    -0.187 NA
ATOM     13  O   UNL d   1      30.139  18.684 -25.096  0.00  0.00    -0.265 OA
BRANCH  12  14
ATOM     14  C   UNL d   1      31.281  16.902 -24.378  0.00  0.00     0.194 A 
ATOM     15  N   UNL d   1      31.296  16.200 -24.815  0.00  0.00    -0.107 NA
ATOM     16  O   UNL d   1      31.515  15.583 -24.312  0.00  0.00    -0.210 OA
ATOM     17  C   UNL d   1      31.639  15.899 -23.549  0.00  0.00     0.128 A 
ATOM     18  C   UNL d   1      31.490  16.722 -23.602  0.00  0.00     0.068 A 
ATOM     19  C   UNL d   1      31.864  15.475 -22.882  0.00  0.00     0.029 C 
ENDBRANCH  12  14
ENDBRANCH   1  11
TORSDOF 2
ENDMDL
