MODEL 1
REMARK VINA RESULT:      32.5      0.000      0.000
REMARK  5 active torsions:
REMARK  status: ('A' for Active; 'I' for Inactive)
REMARK    1  A    between atoms: C_11  and  N_2 
REMARK    2  A    between atoms: C_5  and  C_3 
REMARK    3  A    between atoms: C_7  and  C_5 
REMARK    4  A    between atoms: C_8  and  C_7 
REMARK    5  A    between atoms: C_10  and  C_8 
ROOT
ATOM      1  C   UNL d   1     -54.734-101.403 -41.033  0.00  0.00     0.006 C 
ENDROOT
BRANCH   1   2
ATOM      2  C   UNL d   1     -54.737-101.778 -41.765  0.00  0.00     0.039 A 
ATOM      3  C   UNL d   1     -54.714-102.571 -41.983  0.00  0.00     0.122 A 
ATOM      4  N   UNL d   1     -54.731-102.611 -42.803  0.00  0.00    -0.164 NA
ATOM      5  N   UNL d   1     -54.763-101.848 -43.096  0.00  0.00    -0.228 N 
ATOM      6  C   UNL d   1     -54.767-101.327 -42.453  0.00  0.00     0.085 A 
ATOM      7  C   UNL d   1     -54.797-100.497 -42.502  0.00  0.00     0.021 C 
BRANCH   5   8
ATOM      8  C   UNL d   1     -54.788-101.641 -43.893  0.00  0.00     0.101 C 
ATOM      9  C   UNL d   1     -54.751-102.226 -44.475  0.00  0.00     0.022 C 
ENDBRANCH   5   8
ENDBRANCH   1   2
BRANCH   1  10
ATOM     10  C   UNL d   1     -54.712-101.851 -40.341  0.00  0.00     0.042 C 
BRANCH  10  11
ATOM     11  C   UNL d   1     -55.400-102.220 -40.059  0.00  0.00     0.196 C 
ATOM     12  O   UNL d   1     -56.027-102.369 -40.571  0.00  0.00    -0.287 OA
BRANCH  11  13
ATOM     13  C   UNL d   1     -55.456-102.441 -39.259  0.00  0.00     0.039 A 
ATOM     14  C   UNL d   1     -54.775-102.459 -38.789  0.00  0.00     0.003 A 
ATOM     15  C   UNL d   1     -54.826-102.677 -37.997  0.00  0.00     0.000 A 
ATOM     16  C   UNL d   1     -55.557-102.877 -37.669  0.00  0.00     0.000 A 
ATOM     17  C   UNL d   1     -56.235-102.858 -38.139  0.00  0.00     0.000 A 
ATOM     18  C   UNL d   1     -56.182-102.640 -38.931  0.00  0.00     0.003 A 
ENDBRANCH  11  13
ENDBRANCH  10  11
ENDBRANCH   1  10
TORSDOF 5
ENDMDL
MODEL 2
REMARK VINA RESULT:      34.7      1.410      2.135
REMARK  5 active torsions:
REMARK  status: ('A' for Active; 'I' for Inactive)
REMARK    1  A    between atoms: C_11  and  N_2 
REMARK    2  A    between atoms: C_5  and  C_3 
REMARK    3  A    between atoms: C_7  and  C_5 
REMARK    4  A    between atoms: C_8  and  C_7 
REMARK    5  A    between atoms: C_10  and  C_8 
ROOT
ATOM      1  C   UNL d   1     -54.901-101.349 -42.588  0.00  0.00     0.006 C 
ENDROOT
BRANCH   1   2
ATOM      2  C   UNL d   1     -55.036-100.589 -42.875  0.00  0.00     0.039 A 
ATOM      3  C   UNL d   1     -55.094 -99.858 -42.504  0.00  0.00     0.122 A 
ATOM      4  N   UNL d   1     -55.235 -99.290 -43.080  0.00  0.00    -0.164 NA
ATOM      5  N   UNL d   1     -55.265 -99.664 -43.806  0.00  0.00    -0.228 N 
ATOM      6  C   UNL d   1     -55.142-100.473 -43.683  0.00  0.00     0.085 A 
ATOM      7  C   UNL d   1     -55.128-101.057 -44.275  0.00  0.00     0.021 C 
BRANCH   5   8
ATOM      8  C   UNL d   1     -55.396 -99.294 -44.531  0.00  0.00     0.101 C 
ATOM      9  C   UNL d   1     -56.064 -98.821 -44.641  0.00  0.00     0.022 C 
ENDBRANCH   5   8
ENDBRANCH   1   2
BRANCH   1  10
ATOM     10  C   UNL d   1     -54.716-101.461 -41.792  0.00  0.00     0.042 C 
BRANCH  10  11
ATOM     11  C   UNL d   1     -54.881-102.186 -41.423  0.00  0.00     0.196 C 
ATOM     12  O   UNL d   1     -54.919-102.877 -41.869  0.00  0.00    -0.287 OA
BRANCH  11  13
ATOM     13  C   UNL d   1     -55.009-102.215 -40.602  0.00  0.00     0.039 A 
ATOM     14  C   UNL d   1     -55.440-102.841 -40.274  0.00  0.00     0.003 A 
ATOM     15  C   UNL d   1     -55.569-102.874 -39.462  0.00  0.00     0.000 A 
ATOM     16  C   UNL d   1     -55.268-102.281 -38.971  0.00  0.00     0.000 A 
ATOM     17  C   UNL d   1     -54.839-101.658 -39.299  0.00  0.00     0.000 A 
ATOM     18  C   UNL d   1     -54.711-101.627 -40.112  0.00  0.00     0.003 A 
ENDBRANCH  11  13
ENDBRANCH  10  11
ENDBRANCH   1  10
TORSDOF 5
ENDMDL
