MODEL 1
REMARK VINA RESULT:      -5.9      0.000      0.000
REMARK  6 active torsions:
REMARK  status: ('A' for Active; 'I' for Inactive)
REMARK    1  A    between atoms: C_3  and  N_1 
REMARK       I    between atoms: C_2  and  N_5 
REMARK       I    between atoms: N_10  and  C_2 
REMARK    2  A    between atoms: N_5  and  C_8 
REMARK    3  A    between atoms: C_17  and  N_10 
REMARK    4  A    between atoms: O_18  and  C_11 
REMARK    5  A    between atoms: C_12  and  C_22 
REMARK    6  A    between atoms: C_22  and  C_17 
ROOT
ATOM      1  C   UNL d   1     -48.706  12.392  22.950  0.00  0.00     0.369 C 
ATOM      2  N   UNL d   1     -49.499  12.517  23.153  0.00  0.00    -0.191 NA
ATOM      3  O   UNL d   1     -48.404  12.731  22.258  0.00  0.00    -0.242 OA
ATOM      4  N   UNL d   1     -48.230  11.940  23.429  0.00  0.00    -0.189 NA
ENDROOT
BRANCH   2   5
ATOM      5  C   UNL d   1     -49.983  12.976  22.669  0.00  0.00     0.088 A 
ATOM      6  C   UNL d   1     -50.048  13.783  22.795  0.00  0.00     0.043 A 
ATOM      7  C   UNL d   1     -50.525  14.241  22.319  0.00  0.00     0.128 A 
ATOM      8  C   UNL d   1     -50.951  13.892  21.702  0.00  0.00     0.024 A 
ATOM      9  C   UNL d   1     -50.889  13.078  21.571  0.00  0.00     0.003 A 
ATOM     10  C   UNL d   1     -50.404  12.620  22.055  0.00  0.00     0.019 A 
BRANCH   7  11
ATOM     11  N   UNL d   1     -50.589  15.056  22.447  0.00  0.00    -0.114 N 
ATOM     12  O   UNL d   1     -51.046  15.341  23.066  0.00  0.00    -0.532 OA
ATOM     13  O   UNL d   1     -50.195  15.577  21.953  0.00  0.00    -0.532 OA
ENDBRANCH   7  11
ENDBRANCH   2   5
BRANCH   4  14
ATOM     14  C   UNL d   1     -47.437  11.816  23.226  0.00  0.00     0.104 C 
BRANCH  14  15
ATOM     15  C   UNL d   1     -46.957  11.338  23.698  0.00  0.00     0.021 C 
BRANCH  15  16
ATOM     16  C   UNL d   1     -46.161  11.258  23.523  0.00  0.00     0.002 A 
ATOM     17  C   UNL d   1     -45.749  11.889  23.197  0.00  0.00     0.002 A 
ATOM     18  C   UNL d   1     -44.944  11.811  23.020  0.00  0.00     0.024 A 
ATOM     19  C   UNL d   1     -44.565  11.101  23.172  0.00  0.00     0.094 A 
ATOM     20  C   UNL d   1     -44.975  10.473  23.497  0.00  0.00     0.024 A 
ATOM     21  C   UNL d   1     -45.780  10.551  23.674  0.00  0.00     0.002 A 
BRANCH  19  22
ATOM     22  O   UNL d   1     -43.764  11.020  22.997  0.00  0.00    -0.328 OA
ATOM     23  C   UNL d   1     -43.316  10.439  23.373  0.00  0.00     0.181 C 
ENDBRANCH  19  22
ENDBRANCH  15  16
ENDBRANCH  14  15
ENDBRANCH   4  14
TORSDOF 6
ENDMDL
MODEL 2
REMARK VINA RESULT:      -4.9      3.623      4.828
REMARK  6 active torsions:
REMARK  status: ('A' for Active; 'I' for Inactive)
REMARK    1  A    between atoms: C_3  and  N_1 
REMARK       I    between atoms: C_2  and  N_5 
REMARK       I    between atoms: N_10  and  C_2 
REMARK    2  A    between atoms: N_5  and  C_8 
REMARK    3  A    between atoms: C_17  and  N_10 
REMARK    4  A    between atoms: O_18  and  C_11 
REMARK    5  A    between atoms: C_12  and  C_22 
REMARK    6  A    between atoms: C_22  and  C_17 
ROOT
ATOM      1  C   UNL d   1     -44.612  13.104  21.971  0.00  0.00     0.369 C 
ATOM      2  N   UNL d   1     -45.191  12.630  22.326  0.00  0.00    -0.191 NA
ATOM      3  O   UNL d   1     -44.776  13.899  21.812  0.00  0.00    -0.242 OA
ATOM      4  N   UNL d   1     -43.887  12.787  21.781  0.00  0.00    -0.189 NA
ENDROOT
BRANCH   2   5
ATOM      5  C   UNL d   1     -45.926  12.949  22.519  0.00  0.00     0.088 A 
ATOM      6  C   UNL d   1     -46.599  12.706  22.121  0.00  0.00     0.043 A 
ATOM      7  C   UNL d   1     -47.329  13.018  22.308  0.00  0.00     0.128 A 
ATOM      8  C   UNL d   1     -47.394  13.586  22.905  0.00  0.00     0.024 A 
ATOM      9  C   UNL d   1     -46.718  13.835  23.309  0.00  0.00     0.003 A 
ATOM     10  C   UNL d   1     -45.983  13.516  23.116  0.00  0.00     0.019 A 
BRANCH   7  11
ATOM     11  N   UNL d   1     -48.008  12.771  21.905  0.00  0.00    -0.114 N 
ATOM     12  O   UNL d   1     -48.219  13.126  21.196  0.00  0.00    -0.532 OA
ATOM     13  O   UNL d   1     -48.469  12.170  22.218  0.00  0.00    -0.532 OA
ENDBRANCH   7  11
ENDBRANCH   2   5
BRANCH   4  14
ATOM     14  C   UNL d   1     -43.309  13.261  21.427  0.00  0.00     0.104 C 
BRANCH  14  15
ATOM     15  C   UNL d   1     -42.567  12.947  21.249  0.00  0.00     0.021 C 
BRANCH  15  16
ATOM     16  C   UNL d   1     -41.952  13.445  21.037  0.00  0.00     0.002 A 
ATOM     17  C   UNL d   1     -41.377  13.642  21.588  0.00  0.00     0.002 A 
ATOM     18  C   UNL d   1     -40.754  14.146  21.376  0.00  0.00     0.024 A 
ATOM     19  C   UNL d   1     -40.719  14.443  20.614  0.00  0.00     0.094 A 
ATOM     20  C   UNL d   1     -41.291  14.247  20.065  0.00  0.00     0.024 A 
ATOM     21  C   UNL d   1     -41.914  13.744  20.276  0.00  0.00     0.002 A 
BRANCH  19  22
ATOM     22  O   UNL d   1     -40.100  14.944  20.400  0.00  0.00    -0.328 OA
ATOM     23  C   UNL d   1     -40.169  15.757  20.520  0.00  0.00     0.181 C 
ENDBRANCH  19  22
ENDBRANCH  15  16
ENDBRANCH  14  15
ENDBRANCH   4  14
TORSDOF 6
ENDMDL
MODEL 3
REMARK VINA RESULT:      -4.6      4.416      7.212
REMARK  6 active torsions:
REMARK  status: ('A' for Active; 'I' for Inactive)
REMARK    1  A    between atoms: C_3  and  N_1 
REMARK       I    between atoms: C_2  and  N_5 
REMARK       I    between atoms: N_10  and  C_2 
REMARK    2  A    between atoms: N_5  and  C_8 
REMARK    3  A    between atoms: C_17  and  N_10 
REMARK    4  A    between atoms: O_18  and  C_11 
REMARK    5  A    between atoms: C_12  and  C_22 
REMARK    6  A    between atoms: C_22  and  C_17 
ROOT
ATOM      1  C   UNL d   1     -42.871  13.291  21.277  0.00  0.00     0.369 C 
ATOM      2  N   UNL d   1     -42.176  13.002  20.932  0.00  0.00    -0.191 NA
ATOM      3  O   UNL d   1     -42.939  14.100  21.440  0.00  0.00    -0.242 OA
ATOM      4  N   UNL d   1     -43.480  12.782  21.452  0.00  0.00    -0.189 NA
ENDROOT
BRANCH   2   5
ATOM      5  C   UNL d   1     -41.557  13.517  20.753  0.00  0.00     0.088 A 
ATOM      6  C   UNL d   1     -41.435  13.764  19.981  0.00  0.00     0.043 A 
ATOM      7  C   UNL d   1     -40.825  14.272  19.799  0.00  0.00     0.128 A 
ATOM      8  C   UNL d   1     -40.321  14.544  20.396  0.00  0.00     0.024 A 
ATOM      9  C   UNL d   1     -40.440  14.298  21.175  0.00  0.00     0.003 A 
ATOM     10  C   UNL d   1     -41.059  13.783  21.354  0.00  0.00     0.019 A 
BRANCH   7  11
ATOM     11  N   UNL d   1     -40.703  14.521  19.019  0.00  0.00    -0.114 N 
ATOM     12  O   UNL d   1     -40.661  15.321  18.843  0.00  0.00    -0.532 OA
ATOM     13  O   UNL d   1     -40.625  13.964  18.423  0.00  0.00    -0.532 OA
ENDBRANCH   7  11
ENDBRANCH   2   5
BRANCH   4  14
ATOM     14  C   UNL d   1     -44.174  13.072  21.797  0.00  0.00     0.104 C 
BRANCH  14  15
ATOM     15  C   UNL d   1     -44.761  12.550  22.050  0.00  0.00     0.021 C 
BRANCH  15  16
ATOM     16  C   UNL d   1     -45.450  12.839  22.385  0.00  0.00     0.002 A 
ATOM     17  C   UNL d   1     -45.838  12.404  22.962  0.00  0.00     0.002 A 
ATOM     18  C   UNL d   1     -46.535  12.694  23.303  0.00  0.00     0.024 A 
ATOM     19  C   UNL d   1     -46.831  13.418  23.058  0.00  0.00     0.094 A 
ATOM     20  C   UNL d   1     -46.445  13.851  22.483  0.00  0.00     0.024 A 
ATOM     21  C   UNL d   1     -45.748  13.561  22.143  0.00  0.00     0.002 A 
BRANCH  19  22
ATOM     22  O   UNL d   1     -47.525  13.709  23.395  0.00  0.00    -0.328 OA
ATOM     23  C   UNL d   1     -48.084  14.089  22.922  0.00  0.00     0.181 C 
ENDBRANCH  19  22
ENDBRANCH  15  16
ENDBRANCH  14  15
ENDBRANCH   4  14
TORSDOF 6
ENDMDL
MODEL 4
REMARK VINA RESULT:      -3.7      9.104     10.310
REMARK  6 active torsions:
REMARK  status: ('A' for Active; 'I' for Inactive)
REMARK    1  A    between atoms: C_3  and  N_1 
REMARK       I    between atoms: C_2  and  N_5 
REMARK       I    between atoms: N_10  and  C_2 
REMARK    2  A    between atoms: N_5  and  C_8 
REMARK    3  A    between atoms: C_17  and  N_10 
REMARK    4  A    between atoms: O_18  and  C_11 
REMARK    5  A    between atoms: C_12  and  C_22 
REMARK    6  A    between atoms: C_22  and  C_17 
ROOT
ATOM      1  C   UNL d   1     -39.607  15.118  19.035  0.00  0.00     0.369 C 
ATOM      2  N   UNL d   1     -39.238  15.609  18.480  0.00  0.00    -0.191 NA
ATOM      3  O   UNL d   1     -40.153  14.550  18.778  0.00  0.00    -0.242 OA
ATOM      4  N   UNL d   1     -39.433  15.194  19.825  0.00  0.00    -0.189 NA
ENDROOT
BRANCH   2   5
ATOM      5  C   UNL d   1     -39.413  15.533  17.678  0.00  0.00     0.088 A 
ATOM      6  C   UNL d   1     -38.902  15.129  17.180  0.00  0.00     0.043 A 
ATOM      7  C   UNL d   1     -39.071  15.051  16.386  0.00  0.00     0.128 A 
ATOM      8  C   UNL d   1     -39.763  15.381  16.076  0.00  0.00     0.024 A 
ATOM      9  C   UNL d   1     -40.281  15.789  16.574  0.00  0.00     0.003 A 
ATOM     10  C   UNL d   1     -40.105  15.865  17.376  0.00  0.00     0.019 A 
BRANCH   7  11
ATOM     11  N   UNL d   1     -38.554  14.643  15.884  0.00  0.00    -0.114 N 
ATOM     12  O   UNL d   1     -38.407  13.845  16.005  0.00  0.00    -0.532 OA
ATOM     13  O   UNL d   1     -38.191  15.040  15.267  0.00  0.00    -0.532 OA
ENDBRANCH   7  11
ENDBRANCH   2   5
BRANCH   4  14
ATOM     14  C   UNL d   1     -39.802  14.703  20.379  0.00  0.00     0.104 C 
BRANCH  14  15
ATOM     15  C   UNL d   1     -39.955  14.978  21.142  0.00  0.00     0.021 C 
BRANCH  15  16
ATOM     16  C   UNL d   1     -39.544  14.668  21.779  0.00  0.00     0.002 A 
ATOM     17  C   UNL d   1     -39.024  15.143  22.200  0.00  0.00     0.002 A 
ATOM     18  C   UNL d   1     -38.608  14.831  22.845  0.00  0.00     0.024 A 
ATOM     19  C   UNL d   1     -38.721  14.048  23.057  0.00  0.00     0.094 A 
ATOM     20  C   UNL d   1     -39.238  13.575  22.637  0.00  0.00     0.024 A 
ATOM     21  C   UNL d   1     -39.655  13.886  21.992  0.00  0.00     0.002 A 
BRANCH  19  22
ATOM     22  O   UNL d   1     -38.308  13.735  23.698  0.00  0.00    -0.328 OA
ATOM     23  C   UNL d   1     -37.940  13.000  23.632  0.00  0.00     0.181 C 
ENDBRANCH  19  22
ENDBRANCH  15  16
ENDBRANCH  14  15
ENDBRANCH   4  14
TORSDOF 6
ENDMDL
