MODEL 1
REMARK VINA RESULT:      18.2      0.000      0.000
REMARK  3 active torsions:
REMARK  status: ('A' for Active; 'I' for Inactive)
REMARK       I    between atoms: N_2  and  C_1 
REMARK    1  A    between atoms: C_3  and  C_1 
REMARK    2  A    between atoms: C_6  and  N_2 
REMARK    3  A    between atoms: C_5  and  C_4 
ROOT
ATOM      1  C   UNL d   1      46.170 -17.430  44.002  0.00  0.00     0.279 C 
ATOM      2  N   UNL d   1      45.955 -16.966  44.654  0.00  0.00    -0.207 NA
ATOM      3  O   UNL d   1      46.245 -17.084  43.259  0.00  0.00    -0.265 OA
ENDROOT
BRANCH   1   4
ATOM      4  C   UNL d   1      46.306 -18.239  44.101  0.00  0.00     0.064 A 
ATOM      5  C   UNL d   1      46.244 -18.745  43.458  0.00  0.00     0.069 A 
ATOM      6  C   UNL d   1      46.378 -19.559  43.545  0.00  0.00     0.006 A 
ATOM      7  C   UNL d   1      46.577 -19.847  44.293  0.00  0.00     0.000 A 
ATOM      8  C   UNL d   1      46.640 -19.341  44.936  0.00  0.00     0.000 A 
ATOM      9  C   UNL d   1      46.505 -18.538  44.841  0.00  0.00     0.005 A 
BRANCH   5  10
ATOM     10  C   UNL d   1      46.044 -18.446  42.712  0.00  0.00     0.211 C 
ATOM     11  O   UNL d   1      46.640 -18.207  42.187  0.00  0.00    -0.644 OA
ATOM     12  O   UNL d   1      45.250 -18.385  42.494  0.00  0.00    -0.644 OA
ENDBRANCH   5  10
ENDBRANCH   1   4
BRANCH   2  13
ATOM     13  C   UNL d   1      45.817 -16.157  44.560  0.00  0.00     0.095 A 
ATOM     14  C   UNL d   1      45.072 -15.846  44.706  0.00  0.00     0.075 A 
ATOM     15 CL   UNL d   1      44.459 -16.342  44.947  0.00  0.00    -0.081 Cl
ATOM     16  C   UNL d   1      44.936 -15.043  44.612  0.00  0.00     0.013 A 
ATOM     17  C   UNL d   1      45.550 -14.541  44.370  0.00  0.00     0.001 A 
ATOM     18  C   UNL d   1      46.298 -14.857  44.224  0.00  0.00     0.002 A 
ATOM     19  C   UNL d   1      46.431 -15.667  44.319  0.00  0.00     0.020 A 
ENDBRANCH   2  13
TORSDOF 3
ENDMDL
