MODEL 1
REMARK VINA RESULT:      -1.4      0.000      0.000
REMARK  1 active torsions:
REMARK  status: ('A' for Active; 'I' for Inactive)
REMARK    1  A    between atoms: C_14  and  C_7 
ROOT
ATOM      1  C   UNL d   1      57.950  -1.212  30.097  0.00  0.00     0.121 A 
ATOM      2  C   UNL d   1      58.574  -0.680  30.005  0.00  0.00     0.058 A 
ATOM      3  N   UNL d   1      57.346  -0.821  30.504  0.00  0.00    -0.195 NA
ATOM      4  S   UNL d   1      58.013  -1.976  29.800  0.00  0.00    -0.068 SA
ATOM      5  C   UNL d   1      58.695  -2.204  29.415  0.00  0.00     0.027 A 
ATOM      6  C   UNL d   1      59.319  -1.672  29.324  0.00  0.00     0.003 A 
ATOM      7  C   UNL d   1      59.260  -0.913  29.617  0.00  0.00     0.010 A 
ATOM      8  C   UNL d   1      57.593  -0.056  30.663  0.00  0.00     0.311 A 
ATOM      9  S   UNL d   1      58.354   0.038  30.356  0.00  0.00    -0.024 SA
ATOM     10  C   UNL d   1      59.817  -2.376  28.854  0.00  0.00    -0.017 A 
ATOM     11  C   UNL d   1      59.202  -3.031  28.898  0.00  0.00    -0.012 A 
ATOM     12  C   UNL d   1      58.909  -3.954  28.704  0.00  0.00     0.053 A 
ATOM     13  O   UNL d   1      57.158   0.522  31.060  0.00  0.00    -0.258 OA
ATOM     14  C   UNL d   1      60.773  -2.295  28.455  0.00  0.00    -0.004 A 
ATOM     15  C   UNL d   1      60.060  -2.830  28.585  0.00  0.00    -0.004 A 
ENDROOT
BRANCH   7  16
ATOM     16  C   UNL d   1      59.884  -0.381  29.525  0.00  0.00     0.020 A 
ATOM     17  C   UNL d   1      60.475  -0.336  30.106  0.00  0.00     0.099 A 
ATOM     18  N   UNL d   1      61.096   0.199  30.007  0.00  0.00    -0.242 NA
ATOM     19  C   UNL d   1      61.131   0.682  29.341  0.00  0.00     0.099 A 
ATOM     20  C   UNL d   1      60.539   0.630  28.769  0.00  0.00     0.021 A 
ATOM     21  C   UNL d   1      59.919   0.101  28.860  0.00  0.00     0.003 A 
ENDBRANCH   7  16
TORSDOF 1
ENDMDL
