MODEL 1
REMARK VINA RESULT:      63.6      0.000      0.000
REMARK  5 active torsions:
REMARK  status: ('A' for Active; 'I' for Inactive)
REMARK    1  A    between atoms: C_14  and  N_4 
REMARK    2  A    between atoms: C_12  and  N_6 
REMARK    3  A    between atoms: C_10  and  C_12 
REMARK       I    between atoms: N_11  and  C_10 
REMARK    4  A    between atoms: C_13  and  N_11 
REMARK    5  A    between atoms: O_18  and  C_17 
ROOT
ATOM      1  C   UNL d   1     -56.818 -99.929 -44.339  0.00  0.00     0.172 A 
ATOM      2  C   UNL d   1     -56.056 -99.825 -44.638  0.00  0.00     0.113 A 
ATOM      3  N   UNL d   1     -57.006-100.606 -43.915  0.00  0.00    -0.206 NA
ATOM      4  N   UNL d   1     -57.262 -99.262 -44.554  0.00  0.00    -0.212 N 
ATOM      5  C   UNL d   1     -55.482-100.398 -44.514  0.00  0.00     0.271 A 
ATOM      6  N   UNL d   1     -55.668-101.083 -44.087  0.00  0.00    -0.251 N 
ATOM      7  N   UNL d   1     -56.772 -98.763 -44.979  0.00  0.00    -0.162 NA
ATOM      8  C   UNL d   1     -56.430-101.187 -43.788  0.00  0.00     0.187 A 
ATOM      9  C   UNL d   1     -56.042 -99.096 -45.034  0.00  0.00     0.129 A 
ATOM     10  O   UNL d   1     -54.720-100.295 -44.813  0.00  0.00    -0.266 OA
ENDROOT
BRANCH   6  11
ATOM     11  C   UNL d   1     -55.090-101.671 -43.956  0.00  0.00     0.147 C 
BRANCH  11  12
ATOM     12  C   UNL d   1     -54.963-101.968 -43.189  0.00  0.00     0.297 C 
ATOM     13  N   UNL d   1     -55.091-101.470 -42.543  0.00  0.00    -0.205 NA
ATOM     14  O   UNL d   1     -54.716-102.740 -43.087  0.00  0.00    -0.264 OA
BRANCH  13  15
ATOM     15  C   UNL d   1     -54.965-101.766 -41.775  0.00  0.00     0.107 A 
ATOM     16  C   UNL d   1     -54.873-101.235 -41.160  0.00  0.00     0.112 A 
ATOM     17  C   UNL d   1     -54.747-101.531 -40.393  0.00  0.00     0.026 A 
ATOM     18  C   UNL d   1     -54.716-102.337 -40.261  0.00  0.00     0.002 A 
ATOM     19  C   UNL d   1     -54.808-102.868 -40.875  0.00  0.00     0.002 A 
ATOM     20  C   UNL d   1     -54.933-102.571 -41.635  0.00  0.00     0.021 A 
BRANCH  16  21
ATOM     21  O   UNL d   1     -54.903-100.429 -41.293  0.00  0.00    -0.327 OA
ATOM     22  C   UNL d   1     -54.711 -99.899 -40.701  0.00  0.00     0.181 C 
ENDBRANCH  16  21
ENDBRANCH  13  15
ENDBRANCH  11  12
ENDBRANCH   6  11
BRANCH   4  23
ATOM     23  C   UNL d   1     -58.044 -99.095 -44.394  0.00  0.00     0.085 A 
ATOM     24  C   UNL d   1     -58.577 -98.954 -45.020  0.00  0.00     0.019 A 
ATOM     25  C   UNL d   1     -59.360 -98.786 -44.853  0.00  0.00     0.002 A 
ATOM     26  C   UNL d   1     -59.628 -98.757 -44.055  0.00  0.00     0.000 A 
ATOM     27  C   UNL d   1     -59.098 -98.896 -43.454  0.00  0.00     0.002 A 
ATOM     28  C   UNL d   1     -58.309 -99.065 -43.613  0.00  0.00     0.019 A 
ENDBRANCH   4  23
TORSDOF 5
ENDMDL
