MODEL 1
REMARK VINA RESULT:      -6.9      0.000      0.000
REMARK  5 active torsions:
REMARK  status: ('A' for Active; 'I' for Inactive)
REMARK    1  A    between atoms: C_9  and  N_1 
REMARK    2  A    between atoms: C_8  and  C_3 
REMARK       I    between atoms: N_12  and  C_8 
REMARK    3  A    between atoms: C_21  and  C_9 
REMARK    4  A    between atoms: C_20  and  N_12 
REMARK    5  A    between atoms: C_13  and  C_20 
ROOT
ATOM      1  N   UNL d   1     -48.453  14.299  22.325  0.00  0.00    -0.273 N 
ATOM      2  C   UNL d   1     -47.689  14.589  22.365  0.00  0.00     0.177 A 
ATOM      3  C   UNL d   1     -47.211  13.991  22.696  0.00  0.00     0.115 A 
ATOM      4  C   UNL d   1     -48.463  13.536  22.625  0.00  0.00     0.167 A 
ATOM      5  C   UNL d   1     -47.692  13.345  22.855  0.00  0.00     0.123 A 
ATOM      6  N   UNL d   1     -49.074  12.978  22.722  0.00  0.00    -0.225 NA
ATOM      7  N   UNL d   1     -47.532  12.596  23.182  0.00  0.00    -0.241 NA
ATOM      8  C   UNL d   1     -48.911  12.238  23.047  0.00  0.00     0.101 A 
ATOM      9  C   UNL d   1     -48.140  12.047  23.277  0.00  0.00     0.099 A 
ATOM     10  N   UNL d   1     -47.431  15.336  22.121  0.00  0.00    -0.128 N 
ATOM     11  C   UNL d   1     -47.977  11.306  23.602  0.00  0.00     0.021 A 
ATOM     12  C   UNL d   1     -49.519  11.689  23.142  0.00  0.00     0.021 A 
ATOM     13  C   UNL d   1     -48.586  10.756  23.697  0.00  0.00     0.002 A 
ATOM     14  C   UNL d   1     -49.357  10.947  23.467  0.00  0.00     0.002 A 
ENDROOT
BRANCH   3  15
ATOM     15  C   UNL d   1     -46.395  14.042  22.840  0.00  0.00     0.284 C 
ATOM     16  N   UNL d   1     -45.868  13.592  22.394  0.00  0.00    -0.204 NA
ATOM     17  O   UNL d   1     -46.114  14.549  23.435  0.00  0.00    -0.265 OA
BRANCH  16  18
ATOM     18  C   UNL d   1     -45.051  13.648  22.544  0.00  0.00     0.127 C 
BRANCH  18  19
ATOM     19  C   UNL d   1     -44.524  13.155  22.137  0.00  0.00     0.119 A 
ATOM     20  O   UNL d   1     -44.361  12.365  22.324  0.00  0.00    -0.304 OA
ATOM     21  C   UNL d   1     -43.810  12.095  21.780  0.00  0.00     0.123 A 
ATOM     22  C   UNL d   1     -43.634  12.720  21.257  0.00  0.00     0.029 A 
ATOM     23  C   UNL d   1     -44.075  13.365  21.483  0.00  0.00     0.028 A 
ENDBRANCH  18  19
ENDBRANCH  16  18
ENDBRANCH   3  15
BRANCH   1  24
ATOM     24  C   UNL d   1     -49.116  14.717  22.028  0.00  0.00     0.083 C 
BRANCH  24  25
ATOM     25  C   UNL d   1     -49.628  15.106  22.545  0.00  0.00     0.018 A 
ATOM     26  C   UNL d   1     -49.326  15.531  23.178  0.00  0.00     0.002 A 
ATOM     27  C   UNL d   1     -49.840  15.922  23.698  0.00  0.00     0.000 A 
ATOM     28  C   UNL d   1     -50.652  15.886  23.582  0.00  0.00     0.000 A 
ATOM     29  C   UNL d   1     -50.956  15.456  22.941  0.00  0.00     0.000 A 
ATOM     30  C   UNL d   1     -50.442  15.065  22.422  0.00  0.00     0.002 A 
ENDBRANCH  24  25
ENDBRANCH   1  24
TORSDOF 5
ENDMDL
MODEL 2
REMARK VINA RESULT:      -5.2      1.691      3.114
REMARK  5 active torsions:
REMARK  status: ('A' for Active; 'I' for Inactive)
REMARK    1  A    between atoms: C_9  and  N_1 
REMARK    2  A    between atoms: C_8  and  C_3 
REMARK       I    between atoms: N_12  and  C_8 
REMARK    3  A    between atoms: C_21  and  C_9 
REMARK    4  A    between atoms: C_20  and  N_12 
REMARK    5  A    between atoms: C_13  and  C_20 
ROOT
ATOM      1  N   UNL d   1     -48.755  12.553  23.448  0.00  0.00    -0.273 N 
ATOM      2  C   UNL d   1     -48.532  11.768  23.499  0.00  0.00     0.177 A 
ATOM      3  C   UNL d   1     -47.720  11.725  23.312  0.00  0.00     0.115 A 
ATOM      4  C   UNL d   1     -48.102  13.001  23.235  0.00  0.00     0.167 A 
ATOM      5  C   UNL d   1     -47.460  12.487  23.151  0.00  0.00     0.123 A 
ATOM      6  N   UNL d   1     -47.999  13.817  23.103  0.00  0.00    -0.225 NA
ATOM      7  N   UNL d   1     -46.714  12.789  22.934  0.00  0.00    -0.241 NA
ATOM      8  C   UNL d   1     -47.259  14.111  22.890  0.00  0.00     0.101 A 
ATOM      9  C   UNL d   1     -46.617  13.597  22.805  0.00  0.00     0.099 A 
ATOM     10  N   UNL d   1     -49.017  11.129  23.698  0.00  0.00    -0.128 N 
ATOM     11  C   UNL d   1     -45.876  13.892  22.591  0.00  0.00     0.021 A 
ATOM     12  C   UNL d   1     -47.161  14.920  22.760  0.00  0.00     0.021 A 
ATOM     13  C   UNL d   1     -45.778  14.702  22.461  0.00  0.00     0.002 A 
ATOM     14  C   UNL d   1     -46.420  15.216  22.546  0.00  0.00     0.002 A 
ENDROOT
BRANCH   3  15
ATOM     15  C   UNL d   1     -47.259  11.035  23.294  0.00  0.00     0.284 C 
ATOM     16  N   UNL d   1     -46.517  11.025  23.652  0.00  0.00    -0.204 NA
ATOM     17  O   UNL d   1     -47.550  10.357  22.913  0.00  0.00    -0.265 OA
BRANCH  16  18
ATOM     18  C   UNL d   1     -46.060  10.329  23.629  0.00  0.00     0.127 C 
BRANCH  18  19
ATOM     19  C   UNL d   1     -45.233  10.380  23.618  0.00  0.00     0.119 A 
ATOM     20  O   UNL d   1     -44.794  11.076  23.529  0.00  0.00    -0.304 OA
ATOM     21  C   UNL d   1     -44.002  10.868  23.551  0.00  0.00     0.123 A 
ATOM     22  C   UNL d   1     -43.952  10.043  23.654  0.00  0.00     0.029 A 
ATOM     23  C   UNL d   1     -44.711   9.752  23.694  0.00  0.00     0.028 A 
ENDBRANCH  18  19
ENDBRANCH  16  18
ENDBRANCH   3  15
BRANCH   1  24
ATOM     24  C   UNL d   1     -49.526  12.849  23.592  0.00  0.00     0.083 C 
BRANCH  24  25
ATOM     25  C   UNL d   1     -50.038  12.995  22.962  0.00  0.00     0.018 A 
ATOM     26  C   UNL d   1     -50.320  13.754  22.828  0.00  0.00     0.002 A 
ATOM     27  C   UNL d   1     -50.834  13.899  22.195  0.00  0.00     0.000 A 
ATOM     28  C   UNL d   1     -51.064  13.287  21.698  0.00  0.00     0.000 A 
ATOM     29  C   UNL d   1     -50.779  12.520  21.835  0.00  0.00     0.000 A 
ATOM     30  C   UNL d   1     -50.264  12.374  22.468  0.00  0.00     0.002 A 
ENDBRANCH  24  25
ENDBRANCH   1  24
TORSDOF 5
ENDMDL
