MODEL 1
REMARK VINA RESULT:      -5.7      0.000      0.000
REMARK  6 active torsions:
REMARK  status: ('A' for Active; 'I' for Inactive)
REMARK    1  A    between atoms: C_5  and  C_1 
REMARK    2  A    between atoms: N_8  and  C_5 
REMARK    3  A    between atoms: C_9  and  C_5 
REMARK    4  A    between atoms: C_19  and  C_7 
REMARK    5  A    between atoms: C_10  and  N_8 
REMARK    6  A    between atoms: O_20  and  C_16 
ROOT
ATOM      1  C   UNL d   1     -48.233  13.508  22.996  0.00  0.00     0.109 C 
ENDROOT
BRANCH   1   2
ATOM      2  C   UNL d   1     -48.799  13.932  22.569  0.00  0.00     0.160 A 
ATOM      3  C   UNL d   1     -49.018  14.705  22.787  0.00  0.00     0.258 A 
ATOM      4  C   UNL d   1     -49.597  15.111  22.333  0.00  0.00     0.238 A 
ATOM      5  O   UNL d   1     -48.673  15.061  23.435  0.00  0.00    -0.281 OA
ATOM      6  O   UNL d   1     -49.816  15.884  22.552  0.00  0.00    -0.283 OA
ATOM      7  C   UNL d   1     -49.942  14.755  21.684  0.00  0.00     0.073 A 
ATOM      8  C   UNL d   1     -49.723  13.982  21.466  0.00  0.00     0.146 A 
ATOM      9  O   UNL d   1     -49.162  13.576  21.899  0.00  0.00    -0.299 OA
BRANCH   8  10
ATOM     10  C   UNL d   1     -50.081  13.626  20.802  0.00  0.00     0.259 C 
ATOM     11  O   UNL d   1     -50.873  13.344  20.832  0.00  0.00    -0.281 OA
ENDBRANCH   8  10
ENDBRANCH   1   2
BRANCH   1  12
ATOM     12  N   UNL d   1     -48.427  13.113  23.697  0.00  0.00    -0.225 NA
BRANCH  12  13
ATOM     13  C   UNL d   1     -48.714  12.344  23.674  0.00  0.00     0.163 A 
ATOM     14  N   UNL d   1     -49.526  12.204  23.630  0.00  0.00    -0.225 NA
ATOM     15  C   UNL d   1     -49.810  11.439  23.607  0.00  0.00     0.101 A 
ATOM     16  C   UNL d   1     -49.285  10.806  23.627  0.00  0.00     0.021 A 
ATOM     17  C   UNL d   1     -48.470  10.925  23.671  0.00  0.00     0.005 A 
ATOM     18  C   UNL d   1     -48.183  11.695  23.694  0.00  0.00     0.039 A 
ENDBRANCH  12  13
ENDBRANCH   1  12
BRANCH   1  19
ATOM     19  C   UNL d   1     -47.449  13.479  22.708  0.00  0.00     0.020 A 
ATOM     20  C   UNL d   1     -46.826  13.746  23.178  0.00  0.00     0.004 A 
ATOM     21  C   UNL d   1     -46.057  13.714  22.889  0.00  0.00     0.024 A 
ATOM     22  C   UNL d   1     -45.909  13.419  22.134  0.00  0.00     0.094 A 
ATOM     23  C   UNL d   1     -46.528  13.151  21.660  0.00  0.00     0.024 A 
ATOM     24  C   UNL d   1     -47.301  13.183  21.954  0.00  0.00     0.004 A 
BRANCH  22  25
ATOM     25  O   UNL d   1     -45.124  13.388  21.842  0.00  0.00    -0.328 OA
ATOM     26  C   UNL d   1     -44.698  12.655  21.806  0.00  0.00     0.181 C 
ENDBRANCH  22  25
ENDBRANCH   1  19
TORSDOF 6
ENDMDL
MODEL 2
REMARK VINA RESULT:      -4.2      7.634      9.870
REMARK  6 active torsions:
REMARK  status: ('A' for Active; 'I' for Inactive)
REMARK    1  A    between atoms: C_5  and  C_1 
REMARK    2  A    between atoms: N_8  and  C_5 
REMARK    3  A    between atoms: C_9  and  C_5 
REMARK    4  A    between atoms: C_19  and  C_7 
REMARK    5  A    between atoms: C_10  and  N_8 
REMARK    6  A    between atoms: O_20  and  C_16 
ROOT
ATOM      1  C   UNL d   1     -39.488  15.146  18.843  0.00  0.00     0.109 C 
ENDROOT
BRANCH   1   2
ATOM      2  C   UNL d   1     -39.730  15.076  19.630  0.00  0.00     0.160 A 
ATOM      3  C   UNL d   1     -39.324  15.461  20.245  0.00  0.00     0.258 A 
ATOM      4  C   UNL d   1     -39.594  15.370  21.036  0.00  0.00     0.238 A 
ATOM      5  O   UNL d   1     -38.671  15.922  20.080  0.00  0.00    -0.281 OA
ATOM      6  O   UNL d   1     -39.187  15.756  21.651  0.00  0.00    -0.283 OA
ATOM      7  C   UNL d   1     -40.247  14.909  21.202  0.00  0.00     0.073 A 
ATOM      8  C   UNL d   1     -40.653  14.523  20.587  0.00  0.00     0.146 A 
ATOM      9  O   UNL d   1     -40.401  14.603  19.814  0.00  0.00    -0.299 OA
BRANCH   8  10
ATOM     10  C   UNL d   1     -41.320  14.054  20.765  0.00  0.00     0.259 C 
ATOM     11  O   UNL d   1     -42.100  14.360  20.697  0.00  0.00    -0.281 OA
ENDBRANCH   8  10
ENDBRANCH   1   2
BRANCH   1  12
ATOM     12  N   UNL d   1     -39.628  15.838  18.409  0.00  0.00    -0.225 NA
BRANCH  12  13
ATOM     13  C   UNL d   1     -40.237  15.865  17.859  0.00  0.00     0.163 A 
ATOM     14  N   UNL d   1     -41.022  15.895  18.108  0.00  0.00    -0.225 NA
ATOM     15  C   UNL d   1     -41.626  15.922  17.560  0.00  0.00     0.101 A 
ATOM     16  C   UNL d   1     -41.451  15.920  16.756  0.00  0.00     0.021 A 
ATOM     17  C   UNL d   1     -40.672  15.891  16.486  0.00  0.00     0.005 A 
ATOM     18  C   UNL d   1     -40.063  15.863  17.037  0.00  0.00     0.039 A 
ENDBRANCH  12  13
ENDBRANCH   1  12
BRANCH   1  19
ATOM     19  C   UNL d   1     -39.095  14.503  18.482  0.00  0.00     0.020 A 
ATOM     20  C   UNL d   1     -38.320  14.589  18.215  0.00  0.00     0.004 A 
ATOM     21  C   UNL d   1     -37.940  13.952  17.861  0.00  0.00     0.024 A 
ATOM     22  C   UNL d   1     -38.330  13.232  17.774  0.00  0.00     0.094 A 
ATOM     23  C   UNL d   1     -39.106  13.141  18.039  0.00  0.00     0.024 A 
ATOM     24  C   UNL d   1     -39.486  13.783  18.394  0.00  0.00     0.004 A 
BRANCH  22  25
ATOM     25  O   UNL d   1     -37.940  12.584  17.412  0.00  0.00    -0.328 OA
ATOM     26  C   UNL d   1     -37.980  11.805  17.748  0.00  0.00     0.181 C 
ENDBRANCH  22  25
ENDBRANCH   1  19
TORSDOF 6
ENDMDL
MODEL 3
REMARK VINA RESULT:      -4.0      1.089      1.451
REMARK  6 active torsions:
REMARK  status: ('A' for Active; 'I' for Inactive)
REMARK    1  A    between atoms: C_5  and  C_1 
REMARK    2  A    between atoms: N_8  and  C_5 
REMARK    3  A    between atoms: C_9  and  C_5 
REMARK    4  A    between atoms: C_19  and  C_7 
REMARK    5  A    between atoms: C_10  and  N_8 
REMARK    6  A    between atoms: O_20  and  C_16 
ROOT
ATOM      1  C   UNL d   1     -46.829  13.278  22.801  0.00  0.00     0.109 C 
ENDROOT
BRANCH   1   2
ATOM      2  C   UNL d   1     -47.452  13.731  22.501  0.00  0.00     0.160 A 
ATOM      3  C   UNL d   1     -47.562  14.523  22.730  0.00  0.00     0.258 A 
ATOM      4  C   UNL d   1     -48.206  14.957  22.406  0.00  0.00     0.238 A 
ATOM      5  O   UNL d   1     -47.051  14.871  23.261  0.00  0.00    -0.281 OA
ATOM      6  O   UNL d   1     -48.316  15.750  22.635  0.00  0.00    -0.283 OA
ATOM      7  C   UNL d   1     -48.718  14.608  21.875  0.00  0.00     0.073 A 
ATOM      8  C   UNL d   1     -48.607  13.816  21.646  0.00  0.00     0.146 A 
ATOM      9  O   UNL d   1     -47.986  13.383  21.952  0.00  0.00    -0.299 OA
BRANCH   8  10
ATOM     10  C   UNL d   1     -49.135  13.468  21.102  0.00  0.00     0.259 C 
ATOM     11  O   UNL d   1     -49.921  13.266  21.325  0.00  0.00    -0.281 OA
ENDBRANCH   8  10
ENDBRANCH   1   2
BRANCH   1  12
ATOM     12  N   UNL d   1     -46.881  12.907  23.540  0.00  0.00    -0.225 NA
BRANCH  12  13
ATOM     13  C   UNL d   1     -47.110  12.120  23.592  0.00  0.00     0.163 A 
ATOM     14  N   UNL d   1     -47.910  11.921  23.626  0.00  0.00    -0.225 NA
ATOM     15  C   UNL d   1     -48.136  11.138  23.678  0.00  0.00     0.101 A 
ATOM     16  C   UNL d   1     -47.565  10.547  23.698  0.00  0.00     0.021 A 
ATOM     17  C   UNL d   1     -46.760  10.726  23.665  0.00  0.00     0.005 A 
ATOM     18  C   UNL d   1     -46.531  11.513  23.612  0.00  0.00     0.039 A 
ENDBRANCH  12  13
ENDBRANCH   1  12
BRANCH   1  19
ATOM     19  C   UNL d   1     -46.133  13.197  22.345  0.00  0.00     0.020 A 
ATOM     20  C   UNL d   1     -45.413  13.475  22.635  0.00  0.00     0.004 A 
ATOM     21  C   UNL d   1     -44.733  13.391  22.181  0.00  0.00     0.024 A 
ATOM     22  C   UNL d   1     -44.770  13.032  21.441  0.00  0.00     0.094 A 
ATOM     23  C   UNL d   1     -45.487  12.752  21.146  0.00  0.00     0.024 A 
ATOM     24  C   UNL d   1     -46.170  12.837  21.605  0.00  0.00     0.004 A 
BRANCH  22  25
ATOM     25  O   UNL d   1     -44.074  12.948  20.980  0.00  0.00    -0.328 OA
ATOM     26  C   UNL d   1     -43.318  12.827  21.347  0.00  0.00     0.181 C 
ENDBRANCH  22  25
ENDBRANCH   1  19
TORSDOF 6
ENDMDL
MODEL 4
REMARK VINA RESULT:      -3.4      8.145     10.342
REMARK  6 active torsions:
REMARK  status: ('A' for Active; 'I' for Inactive)
REMARK    1  A    between atoms: C_5  and  C_1 
REMARK    2  A    between atoms: N_8  and  C_5 
REMARK    3  A    between atoms: C_9  and  C_5 
REMARK    4  A    between atoms: C_19  and  C_7 
REMARK    5  A    between atoms: C_10  and  N_8 
REMARK    6  A    between atoms: O_20  and  C_16 
ROOT
ATOM      1  C   UNL d   1     -38.782  14.260  18.432  0.00  0.00     0.109 C 
ENDROOT
BRANCH   1   2
ATOM      2  C   UNL d   1     -39.578  14.479  18.411  0.00  0.00     0.160 A 
ATOM      3  C   UNL d   1     -39.890  14.922  17.779  0.00  0.00     0.258 A 
ATOM      4  C   UNL d   1     -40.705  15.130  17.787  0.00  0.00     0.238 A 
ATOM      5  O   UNL d   1     -39.408  15.151  17.162  0.00  0.00    -0.281 OA
ATOM      6  O   UNL d   1     -41.016  15.573  17.154  0.00  0.00    -0.283 OA
ATOM      7  C   UNL d   1     -41.187  14.901  18.404  0.00  0.00     0.073 A 
ATOM      8  C   UNL d   1     -40.875  14.457  19.036  0.00  0.00     0.146 A 
ATOM      9  O   UNL d   1     -40.086  14.249  19.041  0.00  0.00    -0.299 OA
BRANCH   8  10
ATOM     10  C   UNL d   1     -41.375  14.227  19.662  0.00  0.00     0.259 C 
ATOM     11  O   UNL d   1     -41.374  14.640  20.395  0.00  0.00    -0.281 OA
ENDBRANCH   8  10
ENDBRANCH   1   2
BRANCH   1  12
ATOM     12  N   UNL d   1     -38.196  14.785  18.691  0.00  0.00    -0.225 NA
BRANCH  12  13
ATOM     13  C   UNL d   1     -38.112  14.950  19.490  0.00  0.00     0.163 A 
ATOM     14  N   UNL d   1     -38.047  14.335  20.037  0.00  0.00    -0.225 NA
ATOM     15  C   UNL d   1     -37.964  14.501  20.832  0.00  0.00     0.101 A 
ATOM     16  C   UNL d   1     -37.945  15.283  21.089  0.00  0.00     0.021 A 
ATOM     17  C   UNL d   1     -38.009  15.911  20.558  0.00  0.00     0.005 A 
ATOM     18  C   UNL d   1     -38.093  15.745  19.757  0.00  0.00     0.039 A 
ENDBRANCH  12  13
ENDBRANCH   1  12
BRANCH   1  19
ATOM     19  C   UNL d   1     -38.568  13.490  18.185  0.00  0.00     0.020 A 
ATOM     20  C   UNL d   1     -38.218  13.374  17.448  0.00  0.00     0.004 A 
ATOM     21  C   UNL d   1     -38.011  12.614  17.212  0.00  0.00     0.024 A 
ATOM     22  C   UNL d   1     -38.152  11.972  17.709  0.00  0.00     0.094 A 
ATOM     23  C   UNL d   1     -38.502  12.083  18.448  0.00  0.00     0.024 A 
ATOM     24  C   UNL d   1     -38.709  12.848  18.682  0.00  0.00     0.004 A 
BRANCH  22  25
ATOM     25  O   UNL d   1     -37.940  11.199  17.466  0.00  0.00    -0.328 OA
ATOM     26  C   UNL d   1     -38.000  10.540  17.998  0.00  0.00     0.181 C 
ENDBRANCH  22  25
ENDBRANCH   1  19
TORSDOF 6
ENDMDL
