MODEL 1
REMARK VINA RESULT:      -2.8      0.000      0.000
REMARK  3 active torsions:
REMARK  status: ('A' for Active; 'I' for Inactive)
REMARK    1  A    between atoms: C_2  and  C_1 
REMARK    2  A    between atoms: N_5  and  C_2 
REMARK    3  A    between atoms: C_9  and  C_4 
ROOT
ATOM      1  C   UNL d   1      31.892  16.545 -23.867  0.00  0.00     0.126 A 
ATOM      2  O   UNL d   1      31.167  16.591 -23.478  0.00  0.00    -0.305 OA
ATOM      3  C   UNL d   1      30.610  16.201 -23.948  0.00  0.00     0.100 A 
ATOM      4  C   UNL d   1      31.777  16.129 -24.573  0.00  0.00     0.029 A 
ATOM      5  C   UNL d   1      30.996  15.919 -24.623  0.00  0.00     0.027 A 
ENDROOT
BRANCH   1   6
ATOM      6  C   UNL d   1      32.631  16.830 -23.664  0.00  0.00     0.143 C 
ATOM      7  S   UNL d   1      33.241  16.303 -23.490  0.00  0.00    -0.057 SA
BRANCH   6   8
ATOM      8  N   UNL d   1      32.770  17.639 -23.632  0.00  0.00    -0.290 N 
ATOM      9  C   UNL d   1      32.947  18.062 -24.319  0.00  0.00     0.108 A 
ATOM     10  C   UNL d   1      33.086  18.876 -24.281  0.00  0.00     0.142 A 
ATOM     11  O   UNL d   1      33.046  19.258 -23.552  0.00  0.00    -0.300 OA
ATOM     12  C   UNL d   1      32.869  18.837 -22.866  0.00  0.00     0.142 A 
ATOM     13  C   UNL d   1      32.732  18.029 -22.911  0.00  0.00     0.108 A 
ENDBRANCH   6   8
ENDBRANCH   1   6
BRANCH   3  14
ATOM     14  C   UNL d   1      29.819  16.115 -23.770  0.00  0.00     0.023 A 
ATOM     15  C   UNL d   1      29.262  16.597 -24.143  0.00  0.00     0.003 A 
ATOM     16  C   UNL d   1      28.468  16.517 -23.971  0.00  0.00     0.007 A 
ATOM     17  C   UNL d   1      28.213  15.953 -23.422  0.00  0.00     0.035 A 
ATOM     18  C   UNL d   1      28.769  15.468 -23.047  0.00  0.00     0.007 A 
ATOM     19 BR   UNL d   1      27.410  15.874 -23.249  0.00  0.00    -0.049 Br
ATOM     20  C   UNL d   1      29.559  15.548 -23.218  0.00  0.00     0.003 A 
ENDBRANCH   3  14
TORSDOF 3
ENDMDL
MODEL 2
REMARK VINA RESULT:      -2.6      2.110      4.130
REMARK  3 active torsions:
REMARK  status: ('A' for Active; 'I' for Inactive)
REMARK    1  A    between atoms: C_2  and  C_1 
REMARK    2  A    between atoms: N_5  and  C_2 
REMARK    3  A    between atoms: C_9  and  C_4 
ROOT
ATOM      1  C   UNL d   1      31.241  16.549 -24.141  0.00  0.00     0.126 A 
ATOM      2  O   UNL d   1      31.293  17.354 -23.972  0.00  0.00    -0.305 OA
ATOM      3  C   UNL d   1      32.069  17.507 -23.732  0.00  0.00     0.100 A 
ATOM      4  C   UNL d   1      31.984  16.212 -24.004  0.00  0.00     0.029 A 
ATOM      5  C   UNL d   1      32.489  16.795 -23.755  0.00  0.00     0.027 A 
ENDROOT
BRANCH   1   6
ATOM      6  C   UNL d   1      30.615  16.092 -24.399  0.00  0.00     0.143 C 
ATOM      7  S   UNL d   1      30.682  15.657 -25.097  0.00  0.00    -0.057 SA
BRANCH   6   8
ATOM      8  N   UNL d   1      29.916  16.063 -23.967  0.00  0.00    -0.290 N 
ATOM      9  C   UNL d   1      29.304  16.593 -24.122  0.00  0.00     0.108 A 
ATOM     10  C   UNL d   1      28.603  16.559 -23.684  0.00  0.00     0.142 A 
ATOM     11  O   UNL d   1      28.525  15.990 -23.093  0.00  0.00    -0.300 OA
ATOM     12  C   UNL d   1      29.136  15.459 -22.937  0.00  0.00     0.142 A 
ATOM     13  C   UNL d   1      29.828  15.500 -23.376  0.00  0.00     0.108 A 
ENDBRANCH   6   8
ENDBRANCH   1   6
BRANCH   3  14
ATOM     14  C   UNL d   1      32.361  18.236 -23.513  0.00  0.00     0.023 A 
ATOM     15  C   UNL d   1      32.331  18.864 -24.047  0.00  0.00     0.003 A 
ATOM     16  C   UNL d   1      32.621  19.598 -23.836  0.00  0.00     0.007 A 
ATOM     17  C   UNL d   1      32.948  19.719 -23.085  0.00  0.00     0.035 A 
ATOM     18  C   UNL d   1      32.979  19.090 -22.547  0.00  0.00     0.007 A 
ATOM     19 BR   UNL d   1      33.241  20.460 -22.873  0.00  0.00    -0.049 Br
ATOM     20  C   UNL d   1      32.690  18.360 -22.758  0.00  0.00     0.003 A 
ENDBRANCH   3  14
TORSDOF 3
ENDMDL
MODEL 3
REMARK VINA RESULT:      -1.9      1.345      1.908
REMARK  3 active torsions:
REMARK  status: ('A' for Active; 'I' for Inactive)
REMARK    1  A    between atoms: C_2  and  C_1 
REMARK    2  A    between atoms: N_5  and  C_2 
REMARK    3  A    between atoms: C_9  and  C_4 
ROOT
ATOM      1  C   UNL d   1      32.373  18.336 -24.439  0.00  0.00     0.126 A 
ATOM      2  O   UNL d   1      31.612  18.134 -24.195  0.00  0.00    -0.305 OA
ATOM      3  C   UNL d   1      31.399  17.443 -24.595  0.00  0.00     0.100 A 
ATOM      4  C   UNL d   1      32.624  17.768 -24.987  0.00  0.00     0.029 A 
ATOM      5  C   UNL d   1      32.031  17.223 -25.082  0.00  0.00     0.027 A 
ENDROOT
BRANCH   1   6
ATOM      6  C   UNL d   1      32.858  18.959 -24.230  0.00  0.00     0.143 C 
ATOM      7  S   UNL d   1      33.241  19.396 -24.815  0.00  0.00    -0.057 SA
BRANCH   6   8
ATOM      8  N   UNL d   1      32.967  19.153 -23.439  0.00  0.00    -0.290 N 
ATOM      9  C   UNL d   1      33.130  18.567 -22.881  0.00  0.00     0.108 A 
ATOM     10  C   UNL d   1      33.239  18.768 -22.086  0.00  0.00     0.142 A 
ATOM     11  O   UNL d   1      33.183  19.559 -21.860  0.00  0.00    -0.300 OA
ATOM     12  C   UNL d   1      33.020  20.145 -22.416  0.00  0.00     0.142 A 
ATOM     13  C   UNL d   1      32.914  19.938 -23.203  0.00  0.00     0.108 A 
ENDBRANCH   6   8
ENDBRANCH   1   6
BRANCH   3  14
ATOM     14  C   UNL d   1      30.688  17.051 -24.517  0.00  0.00     0.023 A 
ATOM     15  C   UNL d   1      30.684  16.256 -24.297  0.00  0.00     0.003 A 
ATOM     16  C   UNL d   1      29.976  15.855 -24.216  0.00  0.00     0.007 A 
ATOM     17  C   UNL d   1      29.258  16.242 -24.355  0.00  0.00     0.035 A 
ATOM     18  C   UNL d   1      29.260  17.040 -24.576  0.00  0.00     0.007 A 
ATOM     19 BR   UNL d   1      28.544  15.837 -24.273  0.00  0.00    -0.049 Br
ATOM     20  C   UNL d   1      29.964  17.438 -24.656  0.00  0.00     0.003 A 
ENDBRANCH   3  14
TORSDOF 3
ENDMDL
MODEL 4
REMARK VINA RESULT:      -0.9      4.443      6.083
REMARK  3 active torsions:
REMARK  status: ('A' for Active; 'I' for Inactive)
REMARK    1  A    between atoms: C_2  and  C_1 
REMARK    2  A    between atoms: N_5  and  C_2 
REMARK    3  A    between atoms: C_9  and  C_4 
ROOT
ATOM      1  C   UNL d   1      32.771  22.340 -21.832  0.00  0.00     0.126 A 
ATOM      2  O   UNL d   1      32.730  21.537 -21.650  0.00  0.00    -0.305 OA
ATOM      3  C   UNL d   1      33.015  21.121 -22.304  0.00  0.00     0.100 A 
ATOM      4  C   UNL d   1      33.081  22.413 -22.596  0.00  0.00     0.029 A 
ATOM      5  C   UNL d   1      33.230  21.669 -22.884  0.00  0.00     0.027 A 
ENDROOT
BRANCH   1   6
ATOM      6  C   UNL d   1      32.566  23.002 -21.399  0.00  0.00     0.143 C 
ATOM      7  S   UNL d   1      32.335  23.692 -21.787  0.00  0.00    -0.057 SA
BRANCH   6   8
ATOM      8  N   UNL d   1      32.589  22.985 -20.578  0.00  0.00    -0.290 N 
ATOM      9  C   UNL d   1      31.996  22.601 -20.149  0.00  0.00     0.108 A 
ATOM     10  C   UNL d   1      32.024  22.587 -19.323  0.00  0.00     0.142 A 
ATOM     11  O   UNL d   1      32.648  22.959 -18.934  0.00  0.00    -0.300 OA
ATOM     12  C   UNL d   1      33.241  23.342 -19.361  0.00  0.00     0.142 A 
ATOM     13  C   UNL d   1      33.206  23.352 -20.181  0.00  0.00     0.108 A 
ENDBRANCH   6   8
ENDBRANCH   1   6
BRANCH   3  14
ATOM     14  C   UNL d   1      33.071  20.309 -22.360  0.00  0.00     0.023 A 
ATOM     15  C   UNL d   1      33.054  19.851 -21.673  0.00  0.00     0.003 A 
ATOM     16  C   UNL d   1      33.110  19.038 -21.719  0.00  0.00     0.007 A 
ATOM     17  C   UNL d   1      33.185  18.664 -22.454  0.00  0.00     0.035 A 
ATOM     18  C   UNL d   1      33.203  19.121 -23.145  0.00  0.00     0.007 A 
ATOM     19 BR   UNL d   1      33.241  17.843 -22.500  0.00  0.00    -0.049 Br
ATOM     20  C   UNL d   1      33.147  19.931 -23.098  0.00  0.00     0.003 A 
ENDBRANCH   3  14
TORSDOF 3
ENDMDL
MODEL 5
REMARK VINA RESULT:      -0.7      3.117      4.548
REMARK  3 active torsions:
REMARK  status: ('A' for Active; 'I' for Inactive)
REMARK    1  A    between atoms: C_2  and  C_1 
REMARK    2  A    between atoms: N_5  and  C_2 
REMARK    3  A    between atoms: C_9  and  C_4 
ROOT
ATOM      1  C   UNL d   1      32.925  20.855 -22.821  0.00  0.00     0.126 A 
ATOM      2  O   UNL d   1      32.714  20.079 -22.642  0.00  0.00    -0.305 OA
ATOM      3  C   UNL d   1      32.902  19.614 -23.299  0.00  0.00     0.100 A 
ATOM      4  C   UNL d   1      33.241  20.863 -23.586  0.00  0.00     0.029 A 
ATOM      5  C   UNL d   1      33.227  20.107 -23.878  0.00  0.00     0.027 A 
ENDROOT
BRANCH   1   6
ATOM      6  C   UNL d   1      32.868  21.544 -22.385  0.00  0.00     0.143 C 
ATOM      7  S   UNL d   1      32.998  22.273 -22.747  0.00  0.00    -0.057 SA
BRANCH   6   8
ATOM      8  N   UNL d   1      32.680  21.514 -21.585  0.00  0.00    -0.290 N 
ATOM      9  C   UNL d   1      33.241  21.269 -21.031  0.00  0.00     0.108 A 
ATOM     10  C   UNL d   1      33.047  21.241 -20.227  0.00  0.00     0.142 A 
ATOM     11  O   UNL d   1      32.290  21.461 -19.988  0.00  0.00    -0.300 OA
ATOM     12  C   UNL d   1      31.729  21.706 -20.541  0.00  0.00     0.142 A 
ATOM     13  C   UNL d   1      31.929  21.731 -21.336  0.00  0.00     0.108 A 
ENDBRANCH   6   8
ENDBRANCH   1   6
BRANCH   3  14
ATOM     14  C   UNL d   1      32.783  18.809 -23.357  0.00  0.00     0.023 A 
ATOM     15  C   UNL d   1      33.174  18.301 -22.838  0.00  0.00     0.003 A 
ATOM     16  C   UNL d   1      33.061  17.494 -22.889  0.00  0.00     0.007 A 
ATOM     17  C   UNL d   1      32.556  17.177 -23.463  0.00  0.00     0.035 A 
ATOM     18  C   UNL d   1      32.163  17.685 -23.986  0.00  0.00     0.007 A 
ATOM     19 BR   UNL d   1      32.443  16.362 -23.514  0.00  0.00    -0.049 Br
ATOM     20  C   UNL d   1      32.275  18.488 -23.934  0.00  0.00     0.003 A 
ENDBRANCH   3  14
TORSDOF 3
ENDMDL
MODEL 6
REMARK VINA RESULT:      -0.2      3.179      5.339
REMARK  3 active torsions:
REMARK  status: ('A' for Active; 'I' for Inactive)
REMARK    1  A    between atoms: C_2  and  C_1 
REMARK    2  A    between atoms: N_5  and  C_2 
REMARK    3  A    between atoms: C_9  and  C_4 
ROOT
ATOM      1  C   UNL d   1      33.016  19.520 -22.619  0.00  0.00     0.126 A 
ATOM      2  O   UNL d   1      32.860  19.915 -21.913  0.00  0.00    -0.305 OA
ATOM      3  C   UNL d   1      32.990  20.720 -22.045  0.00  0.00     0.100 A 
ATOM      4  C   UNL d   1      33.240  20.084 -23.182  0.00  0.00     0.029 A 
ATOM      5  C   UNL d   1      33.225  20.816 -22.833  0.00  0.00     0.027 A 
ENDROOT
BRANCH   1   6
ATOM      6  C   UNL d   1      32.980  18.727 -22.813  0.00  0.00     0.143 C 
ATOM      7  S   UNL d   1      33.237  18.159 -22.273  0.00  0.00    -0.057 SA
BRANCH   6   8
ATOM      8  N   UNL d   1      32.688  18.491 -23.544  0.00  0.00    -0.290 N 
ATOM      9  C   UNL d   1      33.147  18.572 -24.225  0.00  0.00     0.108 A 
ATOM     10  C   UNL d   1      32.848  18.332 -24.959  0.00  0.00     0.142 A 
ATOM     11  O   UNL d   1      32.089  18.013 -24.999  0.00  0.00    -0.300 OA
ATOM     12  C   UNL d   1      31.630  17.932 -24.319  0.00  0.00     0.142 A 
ATOM     13  C   UNL d   1      31.934  18.171 -23.596  0.00  0.00     0.108 A 
ENDBRANCH   6   8
ENDBRANCH   1   6
BRANCH   3  14
ATOM     14  C   UNL d   1      32.900  21.311 -21.491  0.00  0.00     0.023 A 
ATOM     15  C   UNL d   1      33.235  21.221 -20.742  0.00  0.00     0.003 A 
ATOM     16  C   UNL d   1      33.150  21.808 -20.180  0.00  0.00     0.007 A 
ATOM     17  C   UNL d   1      32.728  22.498 -20.356  0.00  0.00     0.035 A 
ATOM     18  C   UNL d   1      32.391  22.590 -21.107  0.00  0.00     0.007 A 
ATOM     19 BR   UNL d   1      32.643  23.090 -19.788  0.00  0.00    -0.049 Br
ATOM     20  C   UNL d   1      32.476  22.006 -21.665  0.00  0.00     0.003 A 
ENDBRANCH   3  14
TORSDOF 3
ENDMDL
MODEL 7
REMARK VINA RESULT:      -0.1      5.881      8.000
REMARK  3 active torsions:
REMARK  status: ('A' for Active; 'I' for Inactive)
REMARK    1  A    between atoms: C_2  and  C_1 
REMARK    2  A    between atoms: N_5  and  C_2 
REMARK    3  A    between atoms: C_9  and  C_4 
ROOT
ATOM      1  C   UNL d   1      32.571  22.649 -20.218  0.00  0.00     0.126 A 
ATOM      2  O   UNL d   1      32.579  22.391 -19.435  0.00  0.00    -0.305 OA
ATOM      3  C   UNL d   1      32.853  23.017 -18.972  0.00  0.00     0.100 A 
ATOM      4  C   UNL d   1      32.839  23.432 -20.231  0.00  0.00     0.029 A 
ATOM      5  C   UNL d   1      33.012  23.657 -19.471  0.00  0.00     0.027 A 
ENDROOT
BRANCH   1   6
ATOM      6  C   UNL d   1      32.354  22.269 -20.908  0.00  0.00     0.143 C 
ATOM      7  S   UNL d   1      31.881  22.659 -21.461  0.00  0.00    -0.057 SA
BRANCH   6   8
ATOM      8  N   UNL d   1      32.604  21.501 -21.056  0.00  0.00    -0.290 N 
ATOM      9  C   UNL d   1      32.502  20.910 -20.489  0.00  0.00     0.108 A 
ATOM     10  C   UNL d   1      32.756  20.138 -20.643  0.00  0.00     0.142 A 
ATOM     11  O   UNL d   1      33.111  19.968 -21.367  0.00  0.00    -0.300 OA
ATOM     12  C   UNL d   1      33.213  20.557 -21.935  0.00  0.00     0.142 A 
ATOM     13  C   UNL d   1      32.958  21.321 -21.774  0.00  0.00     0.108 A 
ENDBRANCH   6   8
ENDBRANCH   1   6
BRANCH   3  14
ATOM     14  C   UNL d   1      32.948  23.000 -18.162  0.00  0.00     0.023 A 
ATOM     15  C   UNL d   1      33.020  22.274 -17.776  0.00  0.00     0.003 A 
ATOM     16  C   UNL d   1      33.115  22.247 -16.965  0.00  0.00     0.007 A 
ATOM     17  C   UNL d   1      33.141  22.946 -16.523  0.00  0.00     0.035 A 
ATOM     18  C   UNL d   1      33.070  23.676 -16.908  0.00  0.00     0.007 A 
ATOM     19 BR   UNL d   1      33.238  22.918 -15.704  0.00  0.00    -0.049 Br
ATOM     20  C   UNL d   1      32.975  23.702 -17.715  0.00  0.00     0.003 A 
ENDBRANCH   3  14
TORSDOF 3
ENDMDL
