MODEL 1
REMARK VINA RESULT:      63.2      0.000      0.000
REMARK  7 active torsions:
REMARK  status: ('A' for Active; 'I' for Inactive)
REMARK    1  A    between atoms: C_6  and  C_1 
REMARK    2  A    between atoms: C_9  and  N_3 
REMARK    3  A    between atoms: C_11  and  C_4 
REMARK       I    between atoms: N_7  and  C_6 
REMARK    4  A    between atoms: C_15  and  N_7 
REMARK    5  A    between atoms: C_8  and  C_10 
REMARK    6  A    between atoms: O_18  and  C_8 
REMARK    7  A    between atoms: C_27  and  O_18 
ROOT
ATOM      1  C   UNL d   1      45.985 -17.533  43.453  0.00  0.00     0.096 A 
ATOM      2  N   UNL d   1      45.883 -17.458  44.873  0.00  0.00    -0.165 NA
ATOM      3  N   UNL d   1      45.744 -16.280  44.089  0.00  0.00    -0.228 N 
ATOM      4  C   UNL d   1      45.997 -17.904  44.192  0.00  0.00     0.108 A 
ATOM      5  C   UNL d   1      45.857 -16.720  43.410  0.00  0.00     0.107 A 
ENDROOT
BRANCH   1   6
ATOM      6  C   UNL d   1      46.099 -17.974  42.771  0.00  0.00     0.282 C 
ATOM      7  N   UNL d   1      45.656 -17.795  42.062  0.00  0.00    -0.208 NA
ATOM      8  O   UNL d   1      46.640 -18.591  42.768  0.00  0.00    -0.265 OA
BRANCH   7   9
ATOM      9  C   UNL d   1      45.776 -18.252  41.361  0.00  0.00     0.085 A 
ATOM     10  C   UNL d   1      46.015 -17.883  40.643  0.00  0.00     0.019 A 
ATOM     11  C   UNL d   1      46.134 -18.341  39.943  0.00  0.00     0.007 A 
ATOM     12  C   UNL d   1      46.013 -19.182  39.964  0.00  0.00     0.064 A 
ATOM     13  C   UNL d   1      45.774 -19.547  40.685  0.00  0.00     0.007 A 
ATOM     14  C   UNL d   1      45.656 -19.083  41.381  0.00  0.00     0.019 A 
BRANCH  12  15
ATOM     15  C   UNL d   1      46.132 -19.649  39.263  0.00  0.00     0.300 C 
ATOM     16  O   UNL d   1      46.640 -20.328  39.284  0.00  0.00    -0.259 OA
BRANCH  15  17
ATOM     17  O   UNL d   1      45.743 -19.436  38.539  0.00  0.00    -0.271 OA
BRANCH  17  18
ATOM     18  C   UNL d   1      45.373 -20.030  38.067  0.00  0.00     0.126 C 
ATOM     19  C   UNL d   1      45.569 -20.102  37.256  0.00  0.00     0.029 C 
ENDBRANCH  17  18
ENDBRANCH  15  17
ENDBRANCH  12  15
ENDBRANCH   7   9
ENDBRANCH   1   6
BRANCH   4  20
ATOM     20  C   UNL d   1      46.122 -18.702  44.244  0.00  0.00     0.023 A 
ATOM     21  C   UNL d   1      45.861 -19.203  43.648  0.00  0.00     0.022 A 
ATOM     22  C   UNL d   1      45.984 -20.012  43.696  0.00  0.00     0.099 A 
ATOM     23  N   UNL d   1      46.377 -20.325  44.353  0.00  0.00    -0.242 NA
ATOM     24  C   UNL d   1      46.640 -19.830  44.952  0.00  0.00     0.099 A 
ATOM     25  C   UNL d   1      46.512 -19.018  44.897  0.00  0.00     0.022 A 
ENDBRANCH   4  20
BRANCH   3  26
ATOM     26  C   UNL d   1      45.606 -15.487  44.252  0.00  0.00     0.083 A 
ATOM     27  C   UNL d   1      44.858 -15.247  44.484  0.00  0.00     0.019 A 
ATOM     28  C   UNL d   1      44.723 -14.454  44.646  0.00  0.00     0.002 A 
ATOM     29  C   UNL d   1      45.333 -13.903  44.578  0.00  0.00     0.000 A 
ATOM     30  C   UNL d   1      46.085 -14.150  44.344  0.00  0.00     0.002 A 
ATOM     31  C   UNL d   1      46.220 -14.942  44.182  0.00  0.00     0.019 A 
ENDBRANCH   3  26
TORSDOF 7
ENDMDL
