MODEL 1
REMARK VINA RESULT:      -0.4      0.000      0.000
REMARK  2 active torsions:
REMARK  status: ('A' for Active; 'I' for Inactive)
REMARK    1  A    between atoms: N_3  and  C_1 
REMARK       I    between atoms: C_6  and  N_3 
REMARK    2  A    between atoms: C_8  and  C_6 
ROOT
ATOM      1  N   UNL d   1     -41.123-122.739 -49.466  0.00  0.00    -0.183 NA
ATOM      2  C   UNL d   1     -41.830-122.796 -49.004  0.00  0.00     0.281 C 
ATOM      3  O   UNL d   1     -41.791-122.720 -48.188  0.00  0.00    -0.265 OA
ENDROOT
BRANCH   1   4
ATOM      4  C   UNL d   1     -41.162-122.814 -50.278  0.00  0.00     0.197 A 
ATOM      5  N   UNL d   1     -41.173-123.515 -50.697  0.00  0.00    -0.221 NA
ATOM      6  C   UNL d   1     -41.214-123.341 -51.487  0.00  0.00     0.090 A 
ATOM      7  C   UNL d   1     -41.241-123.816 -52.161  0.00  0.00     0.020 A 
ATOM      8  C   UNL d   1     -41.227-122.517 -51.562  0.00  0.00     0.050 A 
ATOM      9  C   UNL d   1     -41.282-123.472 -52.910  0.00  0.00     0.002 A 
ATOM     10  C   UNL d   1     -41.295-122.649 -52.986  0.00  0.00     0.001 A 
ATOM     11  C   UNL d   1     -41.268-122.178 -52.311  0.00  0.00     0.008 A 
ATOM     12  S   UNL d   1     -41.195-122.201 -50.817  0.00  0.00    -0.047 SA
ENDBRANCH   1   4
BRANCH   2  13
ATOM     13  C   UNL d   1     -42.539-122.924 -49.370  0.00  0.00     0.058 A 
ATOM     14  C   UNL d   1     -43.013-122.282 -49.580  0.00  0.00     0.005 A 
ATOM     15  C   UNL d   1     -43.738-122.403 -49.955  0.00  0.00     0.000 A 
ATOM     16  C   UNL d   1     -44.205-121.772 -50.162  0.00  0.00     0.000 C 
ATOM     17  C   UNL d   1     -43.992-123.173 -50.121  0.00  0.00     0.000 A 
ATOM     18  C   UNL d   1     -43.504-123.817 -49.904  0.00  0.00     0.000 A 
ATOM     19  C   UNL d   1     -42.792-123.694 -49.536  0.00  0.00     0.005 A 
ENDBRANCH   2  13
TORSDOF 2
ENDMDL
MODEL 2
REMARK VINA RESULT:       0.3      2.205      3.131
REMARK  2 active torsions:
REMARK  status: ('A' for Active; 'I' for Inactive)
REMARK    1  A    between atoms: N_3  and  C_1 
REMARK       I    between atoms: C_6  and  N_3 
REMARK    2  A    between atoms: C_8  and  C_6 
ROOT
ATOM      1  N   UNL d   1     -41.285-123.720 -52.763  0.00  0.00    -0.183 NA
ATOM      2  C   UNL d   1     -41.392-123.394 -51.989  0.00  0.00     0.281 C 
ATOM      3  O   UNL d   1     -41.145-123.817 -51.331  0.00  0.00    -0.265 OA
ENDROOT
BRANCH   1   4
ATOM      4  C   UNL d   1     -41.531-123.299 -53.418  0.00  0.00     0.197 A 
ATOM      5  N   UNL d   1     -41.123-122.694 -53.782  0.00  0.00    -0.221 NA
ATOM      6  C   UNL d   1     -41.562-122.429 -54.410  0.00  0.00     0.090 A 
ATOM      7  C   UNL d   1     -41.432-121.838 -54.970  0.00  0.00     0.020 A 
ATOM      8  C   UNL d   1     -42.256-122.878 -54.437  0.00  0.00     0.050 A 
ATOM      9  C   UNL d   1     -41.992-121.692 -55.558  0.00  0.00     0.002 A 
ATOM     10  C   UNL d   1     -42.687-122.140 -55.585  0.00  0.00     0.001 A 
ATOM     11  C   UNL d   1     -42.813-122.730 -55.024  0.00  0.00     0.008 A 
ATOM     12  S   UNL d   1     -42.230-123.409 -53.826  0.00  0.00    -0.047 SA
ENDBRANCH   1   4
BRANCH   2  13
ATOM     13  C   UNL d   1     -41.737-122.668 -51.904  0.00  0.00     0.058 A 
ATOM     14  C   UNL d   1     -41.263-121.998 -51.816  0.00  0.00     0.005 A 
ATOM     15  C   UNL d   1     -41.606-121.253 -51.729  0.00  0.00     0.000 A 
ATOM     16  C   UNL d   1     -41.142-120.593 -51.642  0.00  0.00     0.000 C 
ATOM     17  C   UNL d   1     -42.431-121.176 -51.729  0.00  0.00     0.000 A 
ATOM     18  C   UNL d   1     -42.902-121.862 -51.819  0.00  0.00     0.000 A 
ATOM     19  C   UNL d   1     -42.561-122.592 -51.905  0.00  0.00     0.005 A 
ENDBRANCH   2  13
TORSDOF 2
ENDMDL
MODEL 3
REMARK VINA RESULT:       0.9      1.690      3.521
REMARK  2 active torsions:
REMARK  status: ('A' for Active; 'I' for Inactive)
REMARK    1  A    between atoms: N_3  and  C_1 
REMARK       I    between atoms: C_6  and  N_3 
REMARK    2  A    between atoms: C_8  and  C_6 
ROOT
ATOM      1  N   UNL d   1     -43.719-122.460 -49.620  0.00  0.00    -0.183 NA
ATOM      2  C   UNL d   1     -43.500-122.293 -50.420  0.00  0.00     0.281 C 
ATOM      3  O   UNL d   1     -44.079-122.124 -50.975  0.00  0.00    -0.265 OA
ENDROOT
BRANCH   1   4
ATOM      4  C   UNL d   1     -43.142-122.628 -49.067  0.00  0.00     0.197 A 
ATOM      5  N   UNL d   1     -42.606-122.099 -48.755  0.00  0.00    -0.221 NA
ATOM      6  C   UNL d   1     -42.134-122.493 -48.227  0.00  0.00     0.090 A 
ATOM      7  C   UNL d   1     -41.507-122.248 -47.751  0.00  0.00     0.020 A 
ATOM      8  C   UNL d   1     -42.381-123.282 -48.210  0.00  0.00     0.050 A 
ATOM      9  C   UNL d   1     -41.124-122.788 -47.258  0.00  0.00     0.002 A 
ATOM     10  C   UNL d   1     -41.370-123.577 -47.240  0.00  0.00     0.001 A 
ATOM     11  C   UNL d   1     -41.997-123.817 -47.717  0.00  0.00     0.008 A 
ATOM     12  S   UNL d   1     -43.000-123.357 -48.727  0.00  0.00    -0.047 SA
ENDBRANCH   1   4
BRANCH   2  13
ATOM     13  C   UNL d   1     -42.719-122.302 -50.631  0.00  0.00     0.058 A 
ATOM     14  C   UNL d   1     -42.392-122.983 -50.963  0.00  0.00     0.005 A 
ATOM     15  C   UNL d   1     -41.597-123.000 -51.181  0.00  0.00     0.000 A 
ATOM     16  C   UNL d   1     -41.274-123.670 -51.508  0.00  0.00     0.000 C 
ATOM     17  C   UNL d   1     -41.124-122.331 -51.067  0.00  0.00     0.000 A 
ATOM     18  C   UNL d   1     -41.465-121.645 -50.730  0.00  0.00     0.000 A 
ATOM     19  C   UNL d   1     -42.246-121.632 -50.517  0.00  0.00     0.005 A 
ENDBRANCH   2  13
TORSDOF 2
ENDMDL
MODEL 4
REMARK VINA RESULT:       1.9      1.805      3.527
REMARK  2 active torsions:
REMARK  status: ('A' for Active; 'I' for Inactive)
REMARK    1  A    between atoms: N_3  and  C_1 
REMARK       I    between atoms: C_6  and  N_3 
REMARK    2  A    between atoms: C_8  and  C_6 
ROOT
ATOM      1  N   UNL d   1     -41.747-121.198 -52.221  0.00  0.00    -0.183 NA
ATOM      2  C   UNL d   1     -41.641-121.430 -53.028  0.00  0.00     0.281 C 
ATOM      3  O   UNL d   1     -41.536-120.858 -53.606  0.00  0.00    -0.265 OA
ENDROOT
BRANCH   1   4
ATOM      4  C   UNL d   1     -41.852-121.768 -51.645  0.00  0.00     0.197 A 
ATOM      5  N   UNL d   1     -42.567-122.066 -51.387  0.00  0.00    -0.221 NA
ATOM      6  C   UNL d   1     -42.422-122.618 -50.813  0.00  0.00     0.090 A 
ATOM      7  C   UNL d   1     -42.921-123.093 -50.360  0.00  0.00     0.020 A 
ATOM      8  C   UNL d   1     -41.603-122.665 -50.710  0.00  0.00     0.050 A 
ATOM      9  C   UNL d   1     -42.606-123.616 -49.804  0.00  0.00     0.002 A 
ATOM     10  C   UNL d   1     -41.787-123.664 -49.701  0.00  0.00     0.001 A 
ATOM     11  C   UNL d   1     -41.292-123.187 -50.156  0.00  0.00     0.008 A 
ATOM     12  S   UNL d   1     -41.260-122.141 -51.224  0.00  0.00    -0.047 SA
ENDBRANCH   1   4
BRANCH   2  13
ATOM     13  C   UNL d   1     -41.644-122.214 -53.223  0.00  0.00     0.058 A 
ATOM     14  C   UNL d   1     -42.163-122.490 -53.802  0.00  0.00     0.005 A 
ATOM     15  C   UNL d   1     -42.173-123.289 -54.008  0.00  0.00     0.000 A 
ATOM     16  C   UNL d   1     -42.683-123.561 -54.578  0.00  0.00     0.000 C 
ATOM     17  C   UNL d   1     -41.659-123.817 -53.631  0.00  0.00     0.000 A 
ATOM     18  C   UNL d   1     -41.138-123.528 -53.045  0.00  0.00     0.000 A 
ATOM     19  C   UNL d   1     -41.130-122.743 -52.846  0.00  0.00     0.005 A 
ENDBRANCH   2  13
TORSDOF 2
ENDMDL
MODEL 5
REMARK VINA RESULT:       2.6      1.560      3.157
REMARK  2 active torsions:
REMARK  status: ('A' for Active; 'I' for Inactive)
REMARK    1  A    between atoms: N_3  and  C_1 
REMARK       I    between atoms: C_6  and  N_3 
REMARK    2  A    between atoms: C_8  and  C_6 
ROOT
ATOM      1  N   UNL d   1     -41.418-123.817 -50.878  0.00  0.00    -0.183 NA
ATOM      2  C   UNL d   1     -41.437-123.206 -51.463  0.00  0.00     0.281 C 
ATOM      3  O   UNL d   1     -41.219-123.374 -52.235  0.00  0.00    -0.265 OA
ENDROOT
BRANCH   1   4
ATOM      4  C   UNL d   1     -41.634-123.650 -50.108  0.00  0.00     0.197 A 
ATOM      5  N   UNL d   1     -41.134-123.412 -49.508  0.00  0.00    -0.221 NA
ATOM      6  C   UNL d   1     -41.573-123.306 -48.835  0.00  0.00     0.090 A 
ATOM      7  C   UNL d   1     -41.371-123.073 -48.071  0.00  0.00     0.020 A 
ATOM      8  C   UNL d   1     -42.360-123.481 -49.019  0.00  0.00     0.050 A 
ATOM      9  C   UNL d   1     -41.952-123.013 -47.487  0.00  0.00     0.002 A 
ATOM     10  C   UNL d   1     -42.739-123.188 -47.671  0.00  0.00     0.001 A 
ATOM     11  C   UNL d   1     -42.937-123.420 -48.436  0.00  0.00     0.008 A 
ATOM     12  S   UNL d   1     -42.390-123.691 -49.801  0.00  0.00    -0.047 SA
ENDBRANCH   1   4
BRANCH   2  13
ATOM     13  C   UNL d   1     -41.669-122.460 -51.255  0.00  0.00     0.058 A 
ATOM     14  C   UNL d   1     -42.454-122.230 -51.367  0.00  0.00     0.005 A 
ATOM     15  C   UNL d   1     -42.700-121.471 -51.158  0.00  0.00     0.000 A 
ATOM     16  C   UNL d   1     -43.471-121.243 -51.268  0.00  0.00     0.000 C 
ATOM     17  C   UNL d   1     -42.157-120.936 -50.834  0.00  0.00     0.000 A 
ATOM     18  C   UNL d   1     -41.364-121.179 -50.725  0.00  0.00     0.000 A 
ATOM     19  C   UNL d   1     -41.126-121.926 -50.931  0.00  0.00     0.005 A 
ENDBRANCH   2  13
TORSDOF 2
ENDMDL
