MODEL 1
REMARK VINA RESULT:      -5.5      0.000      0.000
REMARK  9 active torsions:
REMARK  status: ('A' for Active; 'I' for Inactive)
REMARK    1  A    between atoms: C_12  and  N_1 
REMARK    2  A    between atoms: C_13  and  N_2 
REMARK    3  A    between atoms: O_9  and  C_23 
REMARK    4  A    between atoms: C_10  and  O_9 
REMARK    5  A    between atoms: C_11  and  C_12 
REMARK    6  A    between atoms: C_18  and  C_13 
REMARK    7  A    between atoms: C_26  and  C_15 
REMARK    8  A    between atoms: C_16  and  C_26 
REMARK    9  A    between atoms: C_23  and  C_18 
ROOT
ATOM      1  N   UNL d   1     -45.655  12.936  22.827  0.00  0.00    -0.300 N 
ATOM      2  N   UNL d   1     -44.387  12.851  21.752  0.00  0.00    -0.297 N 
ATOM      3  C   UNL d   1     -45.519  13.530  22.303  0.00  0.00     0.100 A 
ATOM      4  C   UNL d   1     -44.511  12.235  22.279  0.00  0.00     0.100 A 
ATOM      5  C   UNL d   1     -44.895  13.510  21.759  0.00  0.00     0.100 A 
ATOM      6  C   UNL d   1     -45.145  12.278  22.816  0.00  0.00     0.100 A 
ENDROOT
BRANCH   2   7
ATOM      7  C   UNL d   1     -43.775  12.821  21.226  0.00  0.00     0.125 C 
BRANCH   7   8
ATOM      8  C   UNL d   1     -43.007  12.941  21.450  0.00  0.00     0.238 C 
ATOM      9  O   UNL d   1     -42.639  12.343  21.898  0.00  0.00    -0.283 OA
BRANCH   8  10
ATOM     10  C   UNL d   1     -42.616  13.608  21.251  0.00  0.00     0.166 C 
BRANCH  10  11
ATOM     11  O   UNL d   1     -41.788  13.631  21.273  0.00  0.00    -0.302 OA
BRANCH  11  12
ATOM     12  C   UNL d   1     -41.389  14.311  21.081  0.00  0.00     0.100 A 
ATOM     13  C   UNL d   1     -40.593  14.395  21.251  0.00  0.00     0.023 A 
ATOM     14  C   UNL d   1     -40.178  15.081  21.060  0.00  0.00     0.002 A 
ATOM     15  C   UNL d   1     -40.572  15.707  20.686  0.00  0.00     0.000 A 
ATOM     16  C   UNL d   1     -41.387  15.636  20.505  0.00  0.00     0.002 A 
ATOM     17  C   UNL d   1     -41.789  14.928  20.709  0.00  0.00     0.025 A 
BRANCH  13  18
ATOM     18  C   UNL d   1     -40.204  13.783  21.618  0.00  0.00     0.002 C 
BRANCH  18  19
ATOM     19  C   UNL d   1     -39.420  13.864  21.828  0.00  0.00     0.000 C 
ATOM     20  C   UNL d   1     -39.065  13.319  22.342  0.00  0.00     0.000 C 
ENDBRANCH  18  19
ENDBRANCH  13  18
ENDBRANCH  11  12
ENDBRANCH  10  11
ENDBRANCH   8  10
ENDBRANCH   7   8
ENDBRANCH   2   7
BRANCH   1  21
ATOM     21  C   UNL d   1     -46.271  12.978  23.348  0.00  0.00     0.080 C 
BRANCH  21  22
ATOM     22  C   UNL d   1     -46.949  12.561  23.183  0.00  0.00     0.020 A 
ATOM     23  C   UNL d   1     -47.490  12.865  22.659  0.00  0.00     0.028 A 
ATOM     24  C   UNL d   1     -48.173  12.420  22.508  0.00  0.00     0.119 A 
ATOM     25  O   UNL d   1     -48.794  12.610  22.004  0.00  0.00    -0.300 OA
ATOM     26  C   UNL d   1     -48.299  11.704  22.871  0.00  0.00     0.119 A 
ATOM     27  C   UNL d   1     -49.356  11.977  22.044  0.00  0.00     0.304 A 
ATOM     28  O   UNL d   1     -49.032  11.422  22.588  0.00  0.00    -0.300 OA
ATOM     29  C   UNL d   1     -47.748  11.394  23.404  0.00  0.00     0.026 A 
ATOM     30  C   UNL d   1     -47.067  11.832  23.558  0.00  0.00     0.004 A 
ENDBRANCH  21  22
ENDBRANCH   1  21
TORSDOF 9
ENDMDL
MODEL 2
REMARK VINA RESULT:      -4.7      2.033      6.554
REMARK  9 active torsions:
REMARK  status: ('A' for Active; 'I' for Inactive)
REMARK    1  A    between atoms: C_12  and  N_1 
REMARK    2  A    between atoms: C_13  and  N_2 
REMARK    3  A    between atoms: O_9  and  C_23 
REMARK    4  A    between atoms: C_10  and  O_9 
REMARK    5  A    between atoms: C_11  and  C_12 
REMARK    6  A    between atoms: C_18  and  C_13 
REMARK    7  A    between atoms: C_26  and  C_15 
REMARK    8  A    between atoms: C_16  and  C_26 
REMARK    9  A    between atoms: C_23  and  C_18 
ROOT
ATOM      1  N   UNL d   1     -41.159  14.246  20.630  0.00  0.00    -0.300 N 
ATOM      2  N   UNL d   1     -42.399  13.449  21.402  0.00  0.00    -0.297 N 
ATOM      3  C   UNL d   1     -41.772  14.654  20.953  0.00  0.00     0.100 A 
ATOM      4  C   UNL d   1     -41.781  13.017  21.079  0.00  0.00     0.100 A 
ATOM      5  C   UNL d   1     -42.400  14.279  21.341  0.00  0.00     0.100 A 
ATOM      6  C   UNL d   1     -41.161  13.416  20.693  0.00  0.00     0.100 A 
ENDROOT
BRANCH   2   7
ATOM      7  C   UNL d   1     -43.007  13.073  21.778  0.00  0.00     0.125 C 
BRANCH   7   8
ATOM      8  C   UNL d   1     -43.745  13.014  21.453  0.00  0.00     0.238 C 
ATOM      9  O   UNL d   1     -43.821  12.583  20.744  0.00  0.00    -0.283 OA
BRANCH   8  10
ATOM     10  C   UNL d   1     -44.379  13.356  21.799  0.00  0.00     0.166 C 
BRANCH  10  11
ATOM     11  O   UNL d   1     -44.963  12.889  22.158  0.00  0.00    -0.302 OA
BRANCH  11  12
ATOM     12  C   UNL d   1     -45.627  13.232  22.474  0.00  0.00     0.100 A 
ATOM     13  C   UNL d   1     -46.104  12.822  22.997  0.00  0.00     0.023 A 
ATOM     14  C   UNL d   1     -46.780  13.160  23.325  0.00  0.00     0.002 A 
ATOM     15  C   UNL d   1     -46.989  13.937  23.123  0.00  0.00     0.000 A 
ATOM     16  C   UNL d   1     -46.511  14.369  22.589  0.00  0.00     0.002 A 
ATOM     17  C   UNL d   1     -45.826  14.004  22.267  0.00  0.00     0.025 A 
BRANCH  13  18
ATOM     18  C   UNL d   1     -45.902  12.061  23.197  0.00  0.00     0.002 C 
BRANCH  18  19
ATOM     19  C   UNL d   1     -46.455  11.566  23.536  0.00  0.00     0.000 C 
ATOM     20  C   UNL d   1     -46.268  10.774  23.698  0.00  0.00     0.000 C 
ENDBRANCH  18  19
ENDBRANCH  13  18
ENDBRANCH  11  12
ENDBRANCH  10  11
ENDBRANCH   8  10
ENDBRANCH   7   8
ENDBRANCH   2   7
BRANCH   1  21
ATOM     21  C   UNL d   1     -40.556  14.634  20.256  0.00  0.00     0.080 C 
BRANCH  21  22
ATOM     22  C   UNL d   1     -40.557  14.661  19.444  0.00  0.00     0.020 A 
ATOM     23  C   UNL d   1     -40.854  15.314  19.064  0.00  0.00     0.028 A 
ATOM     24  C   UNL d   1     -40.842  15.315  18.234  0.00  0.00     0.119 A 
ATOM     25  O   UNL d   1     -41.109  15.907  17.730  0.00  0.00    -0.300 OA
ATOM     26  C   UNL d   1     -40.546  14.686  17.814  0.00  0.00     0.119 A 
ATOM     27  C   UNL d   1     -40.976  15.644  16.937  0.00  0.00     0.304 A 
ATOM     28  O   UNL d   1     -40.625  14.883  17.008  0.00  0.00    -0.300 OA
ATOM     29  C   UNL d   1     -40.243  14.021  18.202  0.00  0.00     0.026 A 
ATOM     30  C   UNL d   1     -40.252  14.014  19.026  0.00  0.00     0.004 A 
ENDBRANCH  21  22
ENDBRANCH   1  21
TORSDOF 9
ENDMDL
MODEL 3
REMARK VINA RESULT:      -3.8      1.644      6.655
REMARK  9 active torsions:
REMARK  status: ('A' for Active; 'I' for Inactive)
REMARK    1  A    between atoms: C_12  and  N_1 
REMARK    2  A    between atoms: C_13  and  N_2 
REMARK    3  A    between atoms: O_9  and  C_23 
REMARK    4  A    between atoms: C_10  and  O_9 
REMARK    5  A    between atoms: C_11  and  C_12 
REMARK    6  A    between atoms: C_18  and  C_13 
REMARK    7  A    between atoms: C_26  and  C_15 
REMARK    8  A    between atoms: C_16  and  C_26 
REMARK    9  A    between atoms: C_23  and  C_18 
ROOT
ATOM      1  N   UNL d   1     -41.159  14.178  20.837  0.00  0.00    -0.300 N 
ATOM      2  N   UNL d   1     -42.663  13.482  20.981  0.00  0.00    -0.297 N 
ATOM      3  C   UNL d   1     -41.796  14.617  21.054  0.00  0.00     0.100 A 
ATOM      4  C   UNL d   1     -42.024  13.019  20.759  0.00  0.00     0.100 A 
ATOM      5  C   UNL d   1     -42.554  14.293  21.132  0.00  0.00     0.100 A 
ATOM      6  C   UNL d   1     -41.272  13.367  20.687  0.00  0.00     0.100 A 
ENDROOT
BRANCH   2   7
ATOM      7  C   UNL d   1     -43.399  13.155  21.055  0.00  0.00     0.125 C 
BRANCH   7   8
ATOM      8  C   UNL d   1     -43.696  12.918  21.768  0.00  0.00     0.238 C 
ATOM      9  O   UNL d   1     -43.307  12.294  22.159  0.00  0.00    -0.283 OA
BRANCH   8  10
ATOM     10  C   UNL d   1     -44.339  13.268  22.088  0.00  0.00     0.166 C 
BRANCH  10  11
ATOM     11  O   UNL d   1     -44.966  12.810  22.376  0.00  0.00    -0.302 OA
BRANCH  11  12
ATOM     12  C   UNL d   1     -45.671  13.158  22.577  0.00  0.00     0.100 A 
ATOM     13  C   UNL d   1     -46.245  12.740  22.984  0.00  0.00     0.023 A 
ATOM     14  C   UNL d   1     -46.965  13.082  23.193  0.00  0.00     0.002 A 
ATOM     15  C   UNL d   1     -47.118  13.871  22.989  0.00  0.00     0.000 A 
ATOM     16  C   UNL d   1     -46.540  14.312  22.573  0.00  0.00     0.002 A 
ATOM     17  C   UNL d   1     -45.814  13.942  22.370  0.00  0.00     0.025 A 
BRANCH  13  18
ATOM     18  C   UNL d   1     -46.099  11.966  23.186  0.00  0.00     0.002 C 
BRANCH  18  19
ATOM     19  C   UNL d   1     -46.654  11.540  23.604  0.00  0.00     0.000 C 
ATOM     20  C   UNL d   1     -46.597  10.714  23.657  0.00  0.00     0.000 C 
ENDBRANCH  18  19
ENDBRANCH  13  18
ENDBRANCH  11  12
ENDBRANCH  10  11
ENDBRANCH   8  10
ENDBRANCH   7   8
ENDBRANCH   2   7
BRANCH   1  21
ATOM     21  C   UNL d   1     -40.428  14.517  20.767  0.00  0.00     0.080 C 
BRANCH  21  22
ATOM     22  C   UNL d   1     -39.975  14.605  21.436  0.00  0.00     0.020 A 
ATOM     23  C   UNL d   1     -39.636  13.952  21.780  0.00  0.00     0.028 A 
ATOM     24  C   UNL d   1     -39.178  14.070  22.461  0.00  0.00     0.119 A 
ATOM     25  O   UNL d   1     -38.782  13.501  22.904  0.00  0.00    -0.300 OA
ATOM     26  C   UNL d   1     -39.072  14.811  22.777  0.00  0.00     0.119 A 
ATOM     27  C   UNL d   1     -38.397  13.900  23.544  0.00  0.00     0.304 A 
ATOM     28  O   UNL d   1     -38.588  14.714  23.449  0.00  0.00    -0.300 OA
ATOM     29  C   UNL d   1     -39.418  15.476  22.426  0.00  0.00     0.026 A 
ATOM     30  C   UNL d   1     -39.874  15.365  21.748  0.00  0.00     0.004 A 
ENDBRANCH  21  22
ENDBRANCH   1  21
TORSDOF 9
ENDMDL
MODEL 4
REMARK VINA RESULT:      -3.5      2.099      6.806
REMARK  9 active torsions:
REMARK  status: ('A' for Active; 'I' for Inactive)
REMARK    1  A    between atoms: C_12  and  N_1 
REMARK    2  A    between atoms: C_13  and  N_2 
REMARK    3  A    between atoms: O_9  and  C_23 
REMARK    4  A    between atoms: C_10  and  O_9 
REMARK    5  A    between atoms: C_11  and  C_12 
REMARK    6  A    between atoms: C_18  and  C_13 
REMARK    7  A    between atoms: C_26  and  C_15 
REMARK    8  A    between atoms: C_16  and  C_26 
REMARK    9  A    between atoms: C_23  and  C_18 
ROOT
ATOM      1  N   UNL d   1     -40.947  14.329  20.616  0.00  0.00    -0.300 N 
ATOM      2  N   UNL d   1     -42.386  13.851  21.302  0.00  0.00    -0.297 N 
ATOM      3  C   UNL d   1     -41.541  14.857  20.739  0.00  0.00     0.100 A 
ATOM      4  C   UNL d   1     -41.792  13.298  21.184  0.00  0.00     0.100 A 
ATOM      5  C   UNL d   1     -42.264  14.642  21.079  0.00  0.00     0.100 A 
ATOM      6  C   UNL d   1     -41.073  13.537  20.841  0.00  0.00     0.100 A 
ENDROOT
BRANCH   2   7
ATOM      7  C   UNL d   1     -43.089  13.630  21.635  0.00  0.00     0.125 C 
BRANCH   7   8
ATOM      8  C   UNL d   1     -43.511  12.994  21.368  0.00  0.00     0.238 C 
ATOM      9  O   UNL d   1     -43.389  12.754  20.580  0.00  0.00    -0.283 OA
BRANCH   8  10
ATOM     10  C   UNL d   1     -44.027  12.610  21.842  0.00  0.00     0.166 C 
BRANCH  10  11
ATOM     11  O   UNL d   1     -44.755  12.955  22.035  0.00  0.00    -0.302 OA
BRANCH  11  12
ATOM     12  C   UNL d   1     -45.272  12.575  22.531  0.00  0.00     0.100 A 
ATOM     13  C   UNL d   1     -45.966  12.936  22.774  0.00  0.00     0.023 A 
ATOM     14  C   UNL d   1     -46.498  12.559  23.277  0.00  0.00     0.002 A 
ATOM     15  C   UNL d   1     -46.333  11.793  23.549  0.00  0.00     0.000 A 
ATOM     16  C   UNL d   1     -45.628  11.411  23.310  0.00  0.00     0.002 A 
ATOM     17  C   UNL d   1     -45.099  11.814  22.796  0.00  0.00     0.025 A 
BRANCH  13  18
ATOM     18  C   UNL d   1     -46.131  13.686  22.510  0.00  0.00     0.002 C 
BRANCH  18  19
ATOM     19  C   UNL d   1     -46.666  14.153  22.909  0.00  0.00     0.000 C 
ATOM     20  C   UNL d   1     -47.015  14.806  22.537  0.00  0.00     0.000 C 
ENDBRANCH  18  19
ENDBRANCH  13  18
ENDBRANCH  11  12
ENDBRANCH  10  11
ENDBRANCH   8  10
ENDBRANCH   7   8
ENDBRANCH   2   7
BRANCH   1  21
ATOM     21  C   UNL d   1     -40.249  14.562  20.282  0.00  0.00     0.080 C 
BRANCH  21  22
ATOM     22  C   UNL d   1     -40.220  14.669  19.477  0.00  0.00     0.020 A 
ATOM     23  C   UNL d   1     -40.000  14.052  18.998  0.00  0.00     0.028 A 
ATOM     24  C   UNL d   1     -39.979  14.189  18.180  0.00  0.00     0.119 A 
ATOM     25  O   UNL d   1     -39.775  13.656  17.588  0.00  0.00    -0.300 OA
ATOM     26  C   UNL d   1     -40.170  14.914  17.867  0.00  0.00     0.119 A 
ATOM     27  C   UNL d   1     -39.840  14.062  16.848  0.00  0.00     0.304 A 
ATOM     28  O   UNL d   1     -40.086  14.844  17.040  0.00  0.00    -0.300 OA
ATOM     29  C   UNL d   1     -40.394  15.543  18.356  0.00  0.00     0.026 A 
ATOM     30  C   UNL d   1     -40.417  15.413  19.170  0.00  0.00     0.004 A 
ENDBRANCH  21  22
ENDBRANCH   1  21
TORSDOF 9
ENDMDL
