MODEL 1
REMARK VINA RESULT:     106.7      0.000      0.000
REMARK  5 active torsions:
REMARK  status: ('A' for Active; 'I' for Inactive)
REMARK    1  A    between atoms: C_12  and  N_3 
REMARK    2  A    between atoms: C_11  and  C_5 
REMARK       I    between atoms: N_16  and  C_11 
REMARK    3  A    between atoms: C_15  and  C_12 
REMARK    4  A    between atoms: C_26  and  N_16 
REMARK    5  A    between atoms: C_27  and  C_26 
ROOT
ATOM      1  C   UNL d   1     -50.951  26.640  35.390  0.00  0.00     0.155 A 
ATOM      2  C   UNL d   1     -50.279  26.910  35.787  0.00  0.00     0.091 A 
ATOM      3  N   UNL d   1     -50.967  26.599  34.574  0.00  0.00    -0.272 N 
ATOM      4  N   UNL d   1     -51.616  26.409  35.829  0.00  0.00    -0.210 NA
ATOM      5  C   UNL d   1     -49.627  27.102  34.526  0.00  0.00     0.094 A 
ATOM      6  C   UNL d   1     -50.302  26.831  34.136  0.00  0.00     0.175 A 
ATOM      7  C   UNL d   1     -50.267  26.949  36.609  0.00  0.00     0.269 A 
ATOM      8  N   UNL d   1     -50.928  26.719  37.042  0.00  0.00    -0.258 N 
ATOM      9  C   UNL d   1     -51.603  26.448  36.651  0.00  0.00     0.152 A 
ATOM     10  C   UNL d   1     -49.618  27.140  35.355  0.00  0.00     0.016 A 
ATOM     11  N   UNL d   1     -50.320  26.789  33.306  0.00  0.00    -0.128 N 
ATOM     12  C   UNL d   1     -50.915  26.758  37.863  0.00  0.00     0.084 A 
ATOM     13  O   UNL d   1     -49.592  27.220  36.999  0.00  0.00    -0.266 OA
ATOM     14  C   UNL d   1     -52.265  26.218  37.083  0.00  0.00     0.038 A 
ATOM     15  C   UNL d   1     -51.579  26.527  38.299  0.00  0.00     0.019 A 
ATOM     16  C   UNL d   1     -52.254  26.257  37.909  0.00  0.00     0.005 A 
ENDROOT
BRANCH   5  17
ATOM     17  C   UNL d   1     -48.964  27.333  34.090  0.00  0.00     0.282 C 
ATOM     18  N   UNL d   1     -48.530  27.995  34.317  0.00  0.00    -0.206 NA
ATOM     19  O   UNL d   1     -48.730  26.905  33.425  0.00  0.00    -0.265 OA
BRANCH  18  20
ATOM     20  C   UNL d   1     -48.757  28.429  34.981  0.00  0.00     0.102 C 
BRANCH  20  21
ATOM     21  C   UNL d   1     -48.304  29.072  35.239  0.00  0.00     0.019 A 
ATOM     22  C   UNL d   1     -47.706  28.941  35.796  0.00  0.00     0.002 A 
ATOM     23  C   UNL d   1     -47.246  29.580  36.062  0.00  0.00     0.000 A 
ATOM     24  C   UNL d   1     -47.389  30.345  35.766  0.00  0.00     0.000 A 
ATOM     25  C   UNL d   1     -47.992  30.464  35.207  0.00  0.00     0.000 A 
ATOM     26  C   UNL d   1     -48.446  29.829  34.946  0.00  0.00     0.002 A 
ENDBRANCH  20  21
ENDBRANCH  18  20
ENDBRANCH   5  17
BRANCH   3  27
ATOM     27  C   UNL d   1     -51.642  26.329  34.184  0.00  0.00     0.107 C 
BRANCH  27  28
ATOM     28  C   UNL d   1     -51.648  25.581  33.843  0.00  0.00     0.118 A 
ATOM     29  O   UNL d   1     -52.369  25.213  33.656  0.00  0.00    -0.304 OA
ATOM     30  C   UNL d   1     -52.202  24.470  33.321  0.00  0.00     0.123 A 
ATOM     31  C   UNL d   1     -51.389  24.387  33.306  0.00  0.00     0.029 A 
ATOM     32  C   UNL d   1     -51.040  25.064  33.624  0.00  0.00     0.028 A 
ENDBRANCH  27  28
ENDBRANCH   3  27
TORSDOF 5
ENDMDL
