MODEL 1
REMARK VINA RESULT:      10.2      0.000      0.000
REMARK  2 active torsions:
REMARK  status: ('A' for Active; 'I' for Inactive)
REMARK    1  A    between atoms: C_6  and  C_1 
REMARK    2  A    between atoms: C_7  and  C_4 
ROOT
ATOM      1  C   UNL d   1      24.725  12.690  -4.917  0.00  0.00     0.169 A 
ATOM      2  C   UNL d   1      24.746  13.326  -4.391  0.00  0.00     0.048 A 
ATOM      3  N   UNL d   1      24.700  11.780  -3.827  0.00  0.00    -0.148 NA
ATOM      4  C   UNL d   1      24.721  12.412  -3.298  0.00  0.00     0.105 A 
ATOM      5  N   UNL d   1      24.702  11.914  -4.644  0.00  0.00    -0.142 NA
ENDROOT
BRANCH   4   6
ATOM      6  C   UNL d   1      24.725  12.491  -2.476  0.00  0.00     0.019 A 
ATOM      7  C   UNL d   1      24.746  13.242  -2.140  0.00  0.00     0.002 A 
ATOM      8  C   UNL d   1      24.751  13.326  -1.325  0.00  0.00     0.000 A 
ATOM      9  C   UNL d   1      24.763  13.912  -2.626  0.00  0.00     0.000 C 
ATOM     10  C   UNL d   1      24.734  12.656  -0.838  0.00  0.00     0.000 A 
ATOM     11  C   UNL d   1      24.713  11.902  -1.178  0.00  0.00     0.000 A 
ATOM     12  C   UNL d   1      24.739  12.741  -0.017  0.00  0.00     0.000 C 
ATOM     13  C   UNL d   1      24.708  11.818  -1.992  0.00  0.00     0.002 A 
ENDBRANCH   4   6
BRANCH   1  14
ATOM     14  C   UNL d   1      24.728  12.834  -5.731  0.00  0.00     0.231 C 
ATOM     15  O   UNL d   1      24.766  12.202  -6.260  0.00  0.00    -0.643 OA
ATOM     16  O   UNL d   1      24.691  13.607  -6.014  0.00  0.00    -0.643 OA
ENDBRANCH   1  14
TORSDOF 2
ENDMDL
