MODEL 1
REMARK VINA RESULT:      64.9      0.000      0.000
REMARK  6 active torsions:
REMARK  status: ('A' for Active; 'I' for Inactive)
REMARK    1  A    between atoms: C_6  and  C_1 
REMARK    2  A    between atoms: C_8  and  C_2 
REMARK    3  A    between atoms: C_9  and  C_4 
REMARK    4  A    between atoms: C_12  and  C_8 
REMARK    5  A    between atoms: O_27  and  C_11 
REMARK    6  A    between atoms: C_30  and  O_27 
ROOT
ATOM      1  C   UNL d   1      14.770  15.781  -2.203  0.00  0.00     0.306 A 
ATOM      2  C   UNL d   1      14.614  15.019  -1.924  0.00  0.00     0.114 A 
ATOM      3  N   UNL d   1      15.013  16.365  -1.662  0.00  0.00    -0.152 NA
ATOM      4  C   UNL d   1      14.699  14.844  -1.123  0.00  0.00     0.094 A 
ATOM      5  C   UNL d   1      15.096  16.185  -0.864  0.00  0.00     0.371 A 
ATOM      6  N   UNL d   1      14.937  15.415  -0.591  0.00  0.00    -0.191 NA
ATOM      7  O   UNL d   1      15.339  16.769  -0.322  0.00  0.00    -0.242 OA
ATOM      8  O   UNL d   1      14.894  16.486  -2.585  0.00  0.00    -0.266 OA
ENDROOT
BRANCH   4   9
ATOM      9  C   UNL d   1      14.540  14.074  -0.851  0.00  0.00     0.020 A 
ATOM     10  C   UNL d   1      15.126  13.499  -0.867  0.00  0.00     0.029 A 
ATOM     11  C   UNL d   1      14.968  12.730  -0.595  0.00  0.00     0.139 A 
ATOM     12  C   UNL d   1      14.213  12.536  -0.305  0.00  0.00     0.218 A 
ATOM     13  C   UNL d   1      13.623  13.120  -0.291  0.00  0.00     0.044 A 
ATOM     14  O   UNL d   1      14.058  11.784  -0.039  0.00  0.00    -0.284 OA
ATOM     15  C   UNL d   1      13.781  13.889  -0.563  0.00  0.00     0.005 A 
BRANCH  11  16
ATOM     16  O   UNL d   1      15.556  12.161  -0.613  0.00  0.00    -0.302 OA
BRANCH  16  17
ATOM     17  C   UNL d   1      15.964  12.024  -1.294  0.00  0.00     0.123 C 
ATOM     18  C   UNL d   1      16.746  11.786  -1.263  0.00  0.00     0.029 C 
ENDBRANCH  16  17
ENDBRANCH  11  16
ENDBRANCH   4   9
BRANCH   2  19
ATOM     19  C   UNL d   1      14.371  14.435  -2.466  0.00  0.00     0.201 C 
ATOM     20  O   UNL d   1      15.020  14.092  -2.517  0.00  0.00    -0.286 OA
BRANCH  19  21
ATOM     21  C   UNL d   1      13.949  14.102  -2.871  0.00  0.00     0.039 A 
ATOM     22  C   UNL d   1      13.135  14.153  -2.982  0.00  0.00     0.004 A 
ATOM     23  C   UNL d   1      12.770  13.663  -3.527  0.00  0.00     0.011 A 
ATOM     24  C   UNL d   1      13.209  13.119  -3.966  0.00  0.00     0.058 A 
ATOM     25  C   UNL d   1      14.032  13.070  -3.851  0.00  0.00     0.011 A 
ATOM     26 CL   UNL d   1      12.836  12.636  -4.506  0.00  0.00    -0.082 Cl
ATOM     27  C   UNL d   1      14.397  13.560  -3.306  0.00  0.00     0.004 A 
ENDBRANCH  19  21
ENDBRANCH   2  19
BRANCH   1  28
ATOM     28  C   UNL d   1      14.658  15.842  -2.985  0.00  0.00     0.470 C 
ATOM     29  F   UNL d   1      14.074  16.238  -3.400  0.00  0.00    -0.162 F 
ATOM     30  F   UNL d   1      14.564  15.893  -3.694  0.00  0.00    -0.162 F 
ATOM     31  F   UNL d   1      15.109  15.518  -3.597  0.00  0.00    -0.162 F 
ENDBRANCH   1  28
TORSDOF 6
ENDMDL
MODEL 2
REMARK VINA RESULT:      67.7      1.908      3.298
REMARK  6 active torsions:
REMARK  status: ('A' for Active; 'I' for Inactive)
REMARK    1  A    between atoms: C_6  and  C_1 
REMARK    2  A    between atoms: C_8  and  C_2 
REMARK    3  A    between atoms: C_9  and  C_4 
REMARK    4  A    between atoms: C_12  and  C_8 
REMARK    5  A    between atoms: O_27  and  C_11 
REMARK    6  A    between atoms: C_30  and  O_27 
ROOT
ATOM      1  C   UNL d   1      15.286  14.235  -0.684  0.00  0.00     0.306 A 
ATOM      2  C   UNL d   1      14.847  14.200  -1.383  0.00  0.00     0.114 A 
ATOM      3  N   UNL d   1      15.400  13.537  -0.246  0.00  0.00    -0.152 NA
ATOM      4  C   UNL d   1      14.530  13.484  -1.640  0.00  0.00     0.094 A 
ATOM      5  C   UNL d   1      15.081  12.824  -0.506  0.00  0.00     0.371 A 
ATOM      6  N   UNL d   1      14.641  12.798  -1.211  0.00  0.00    -0.191 NA
ATOM      7  O   UNL d   1      15.195  12.125  -0.068  0.00  0.00    -0.242 OA
ATOM      8  O   UNL d   1      15.728  14.386  -0.020  0.00  0.00    -0.266 OA
ENDROOT
BRANCH   4   9
ATOM      9  C   UNL d   1      14.089  13.458  -2.345  0.00  0.00     0.020 A 
ATOM     10  C   UNL d   1      14.239  12.878  -2.906  0.00  0.00     0.029 A 
ATOM     11  C   UNL d   1      13.800  12.851  -3.611  0.00  0.00     0.139 A 
ATOM     12  C   UNL d   1      13.204  13.413  -3.754  0.00  0.00     0.218 A 
ATOM     13  C   UNL d   1      13.055  13.998  -3.183  0.00  0.00     0.044 A 
ATOM     14  O   UNL d   1      12.774  13.387  -4.443  0.00  0.00    -0.284 OA
ATOM     15  C   UNL d   1      13.495  14.025  -2.479  0.00  0.00     0.005 A 
BRANCH  11  16
ATOM     16  O   UNL d   1      13.954  12.270  -4.167  0.00  0.00    -0.302 OA
BRANCH  16  17
ATOM     17  C   UNL d   1      13.809  12.409  -4.947  0.00  0.00     0.123 C 
ATOM     18  C   UNL d   1      13.753  11.783  -5.471  0.00  0.00     0.029 C 
ENDBRANCH  16  17
ENDBRANCH  11  16
ENDBRANCH   4   9
BRANCH   2  19
ATOM     19  C   UNL d   1      14.733  14.899  -1.821  0.00  0.00     0.201 C 
ATOM     20  O   UNL d   1      14.081  15.076  -1.530  0.00  0.00    -0.286 OA
BRANCH  19  21
ATOM     21  C   UNL d   1      14.878  15.382  -2.267  0.00  0.00     0.039 A 
ATOM     22  C   UNL d   1      15.329  15.380  -2.955  0.00  0.00     0.004 A 
ATOM     23  C   UNL d   1      15.404  16.069  -3.391  0.00  0.00     0.011 A 
ATOM     24  C   UNL d   1      15.032  16.764  -3.148  0.00  0.00     0.058 A 
ATOM     25  C   UNL d   1      14.576  16.763  -2.452  0.00  0.00     0.011 A 
ATOM     26 CL   UNL d   1      15.113  17.445  -3.590  0.00  0.00    -0.082 Cl
ATOM     27  C   UNL d   1      14.501  16.074  -2.017  0.00  0.00     0.004 A 
ENDBRANCH  19  21
ENDBRANCH   2  19
BRANCH   1  28
ATOM     28  C   UNL d   1      15.544  14.967  -0.529  0.00  0.00     0.470 C 
ATOM     29  F   UNL d   1      15.155  15.596  -0.176  0.00  0.00    -0.162 F 
ATOM     30  F   UNL d   1      15.787  15.628  -0.393  0.00  0.00    -0.162 F 
ATOM     31  F   UNL d   1      16.287  15.296  -0.686  0.00  0.00    -0.162 F 
ENDBRANCH   1  28
TORSDOF 6
ENDMDL
