MODEL 1
REMARK VINA RESULT:      -4.8      0.000      0.000
REMARK  1 active torsions:
REMARK  status: ('A' for Active; 'I' for Inactive)
REMARK    1  A    between atoms: C_8  and  N_3 
ROOT
ATOM      1  C   UNL d   1      56.636  -0.699  32.137  0.00  0.00     0.292 A 
ATOM      2  C   UNL d   1      56.062  -0.898  32.698  0.00  0.00     0.128 A 
ATOM      3  N   UNL d   1      56.846   0.083  32.029  0.00  0.00    -0.194 N 
ATOM      4  N   UNL d   1      56.490   0.681  32.476  0.00  0.00    -0.160 NA
ATOM      5  C   UNL d   1      55.697  -0.315  33.153  0.00  0.00     0.094 A 
ATOM      6  C   UNL d   1      55.916   0.482  33.037  0.00  0.00     0.133 A 
ATOM      7  O   UNL d   1      57.004  -1.304  31.676  0.00  0.00    -0.264 OA
ATOM      8 CL   UNL d   1      55.830  -1.711  32.825  0.00  0.00    -0.076 Cl
ATOM      9 CL   UNL d   1      55.126  -0.513  33.712  0.00  0.00    -0.080 Cl
ENDROOT
BRANCH   3  10
ATOM     10  C   UNL d   1      57.427   0.285  31.460  0.00  0.00     0.086 A 
ATOM     11  C   UNL d   1      58.186   0.478  31.715  0.00  0.00     0.019 A 
ATOM     12  C   UNL d   1      58.773   0.681  31.141  0.00  0.00     0.002 A 
ATOM     13  C   UNL d   1      58.569   0.681  30.343  0.00  0.00     0.000 A 
ATOM     14  C   UNL d   1      57.818   0.489  30.096  0.00  0.00     0.002 A 
ATOM     15  C   UNL d   1      57.231   0.286  30.670  0.00  0.00     0.019 A 
ENDBRANCH   3  10
TORSDOF 1
ENDMDL
MODEL 2
REMARK VINA RESULT:      -4.5      1.616      2.071
REMARK  1 active torsions:
REMARK  status: ('A' for Active; 'I' for Inactive)
REMARK    1  A    between atoms: C_8  and  N_3 
ROOT
ATOM      1  C   UNL d   1      56.211   0.323  33.865  0.00  0.00     0.292 A 
ATOM      2  C   UNL d   1      55.738   0.500  34.520  0.00  0.00     0.128 A 
ATOM      3  N   UNL d   1      55.861   0.152  33.146  0.00  0.00    -0.194 N 
ATOM      4  N   UNL d   1      55.038   0.153  33.066  0.00  0.00    -0.160 NA
ATOM      5  C   UNL d   1      54.916   0.506  34.458  0.00  0.00     0.094 A 
ATOM      6  C   UNL d   1      54.566   0.330  33.721  0.00  0.00     0.133 A 
ATOM      7  O   UNL d   1      57.052   0.319  33.938  0.00  0.00    -0.264 OA
ATOM      8 CL   UNL d   1      56.086   0.681  35.279  0.00  0.00    -0.076 Cl
ATOM      9 CL   UNL d   1      54.446   0.682  35.111  0.00  0.00    -0.080 Cl
ENDROOT
BRANCH   3  10
ATOM     10  C   UNL d   1      56.340  -0.028  32.482  0.00  0.00     0.086 A 
ATOM     11  C   UNL d   1      56.596   0.586  31.996  0.00  0.00     0.019 A 
ATOM     12  C   UNL d   1      57.079   0.405  31.326  0.00  0.00     0.002 A 
ATOM     13  C   UNL d   1      57.279  -0.380  31.177  0.00  0.00     0.000 A 
ATOM     14  C   UNL d   1      57.023  -0.983  31.660  0.00  0.00     0.002 A 
ATOM     15  C   UNL d   1      56.540  -0.802  32.331  0.00  0.00     0.019 A 
ENDBRANCH   3  10
TORSDOF 1
ENDMDL
