MODEL 1
REMARK VINA RESULT:      73.3      0.000      0.000
REMARK  4 active torsions:
REMARK  status: ('A' for Active; 'I' for Inactive)
REMARK    1  A    between atoms: C_2  and  C_1 
REMARK       I    between atoms: N_7  and  C_2 
REMARK    2  A    between atoms: C_12  and  N_7 
REMARK    3  A    between atoms: C_13  and  N_7 
REMARK    4  A    between atoms: O_14  and  C_11 
ROOT
ATOM      1  C   UNL d   1     -56.568 -99.254 -43.970  0.00  0.00     0.120 A 
ATOM      2  C   UNL d   1     -56.540 -99.040 -44.767  0.00  0.00     0.305 A 
ATOM      3  O   UNL d   1     -57.250 -98.947 -45.187  0.00  0.00    -0.271 OA
ATOM      4  C   UNL d   1     -57.297 -99.374 -43.595  0.00  0.00     0.012 A 
ATOM      5  C   UNL d   1     -57.976 -99.065 -44.817  0.00  0.00     0.125 A 
ATOM      6  C   UNL d   1     -57.999 -99.280 -44.013  0.00  0.00     0.025 A 
ATOM      7  O   UNL d   1     -55.812 -98.922 -45.138  0.00  0.00    -0.259 OA
ATOM      8  C   UNL d   1     -58.675 -98.972 -45.233  0.00  0.00     0.117 A 
ATOM      9  C   UNL d   1     -58.722 -99.399 -43.640  0.00  0.00     0.002 A 
ATOM     10  C   UNL d   1     -59.424 -99.306 -44.059  0.00  0.00     0.002 A 
ATOM     11  C   UNL d   1     -59.402 -99.090 -44.862  0.00  0.00     0.026 A 
ENDROOT
BRANCH   1  12
ATOM     12  C   UNL d   1     -55.864 -99.349 -43.547  0.00  0.00     0.270 C 
ATOM     13  N   UNL d   1     -55.420-100.043 -43.641  0.00  0.00    -0.273 N 
ATOM     14  O   UNL d   1     -55.604 -98.756 -43.034  0.00  0.00    -0.266 OA
BRANCH  13  15
ATOM     15  C   UNL d   1     -55.683-100.635 -44.156  0.00  0.00     0.067 A 
ATOM     16  C   UNL d   1     -56.022-100.429 -44.875  0.00  0.00     0.018 A 
ATOM     17  C   UNL d   1     -56.283-101.021 -45.386  0.00  0.00     0.002 A 
ATOM     18  C   UNL d   1     -56.206-101.819 -45.179  0.00  0.00     0.000 A 
ATOM     19  C   UNL d   1     -55.862-102.022 -44.449  0.00  0.00     0.002 A 
ATOM     20  C   UNL d   1     -55.600-101.433 -43.937  0.00  0.00     0.018 A 
ENDBRANCH  13  15
BRANCH  13  21
ATOM     21  C   UNL d   1     -54.713-100.144 -43.220  0.00  0.00     0.083 C 
ATOM     22  C   UNL d   1     -54.711-100.079 -42.399  0.00  0.00     0.021 C 
ENDBRANCH  13  21
ENDBRANCH   1  12
BRANCH   8  23
ATOM     23  O   UNL d   1     -58.653 -98.757 -46.037  0.00  0.00    -0.326 OA
ATOM     24  C   UNL d   1     -59.096 -99.184 -46.588  0.00  0.00     0.181 C 
ENDBRANCH   8  23
TORSDOF 4
ENDMDL
