MODEL 1
REMARK VINA RESULT:      50.6      0.000      0.000
REMARK  4 active torsions:
REMARK  status: ('A' for Active; 'I' for Inactive)
REMARK    1  A    between atoms: C_2  and  S_1 
REMARK    2  A    between atoms: C_5  and  S_1 
REMARK    3  A    between atoms: C_7  and  C_5 
REMARK       I    between atoms: N_11  and  C_7 
REMARK    4  A    between atoms: C_14  and  N_11 
ROOT
ATOM      1  S   UNL d   1      58.503  49.684  51.620  0.00  0.00     0.217 S 
ATOM      2  O   UNL d   1      58.691  49.708  50.811  0.00  0.00    -0.217 OA
ATOM      3  O   UNL d   1      58.313  49.661  52.431  0.00  0.00    -0.217 OA
ENDROOT
BRANCH   1   4
ATOM      4  C   UNL d   1      57.697  49.691  51.435  0.00  0.00     0.109 A 
ATOM      5  C   UNL d   1      57.076  49.699  51.977  0.00  0.00     0.110 A 
ATOM      6  N   UNL d   1      56.370  49.703  51.556  0.00  0.00    -0.243 NA
ATOM      7  C   UNL d   1      56.556  49.699  50.750  0.00  0.00     0.082 A 
ATOM      8  C   UNL d   1      57.374  49.691  50.682  0.00  0.00     0.030 A 
ATOM      9  C   UNL d   1      56.081  49.700  50.075  0.00  0.00     0.019 A 
ATOM     10  C   UNL d   1      57.727  49.685  49.935  0.00  0.00     0.002 A 
ATOM     11  C   UNL d   1      57.254  49.687  49.261  0.00  0.00     0.000 A 
ATOM     12  C   UNL d   1      56.437  49.694  49.332  0.00  0.00     0.002 A 
ENDBRANCH   1   4
BRANCH   1  13
ATOM     13  C   UNL d   1      59.319  49.678  51.814  0.00  0.00     0.161 C 
BRANCH  13  14
ATOM     14  C   UNL d   1      59.807  49.093  51.489  0.00  0.00     0.291 C 
ATOM     15  N   UNL d   1      60.440  49.321  51.011  0.00  0.00    -0.207 NA
ATOM     16  O   UNL d   1      59.669  48.301  51.637  0.00  0.00    -0.264 OA
BRANCH  15  17
ATOM     17  C   UNL d   1      60.932  48.741  50.684  0.00  0.00     0.085 A 
ATOM     18  C   UNL d   1      60.989  47.994  51.030  0.00  0.00     0.019 A 
ATOM     19  C   UNL d   1      61.482  47.417  50.700  0.00  0.00     0.002 A 
ATOM     20  C   UNL d   1      61.922  47.584  50.016  0.00  0.00     0.000 A 
ATOM     21  C   UNL d   1      61.861  48.334  49.672  0.00  0.00     0.002 A 
ATOM     22  C   UNL d   1      61.368  48.907  50.005  0.00  0.00     0.019 A 
ENDBRANCH  15  17
ENDBRANCH  13  14
ENDBRANCH   1  13
TORSDOF 4
ENDMDL
