MODEL 1
REMARK VINA RESULT:      55.7      0.000      0.000
REMARK  8 active torsions:
REMARK  status: ('A' for Active; 'I' for Inactive)
REMARK    1  A    between atoms: N_10  and  C_4 
REMARK    2  A    between atoms: C_17  and  N_5 
REMARK    3  A    between atoms: C_16  and  N_10 
REMARK    4  A    between atoms: C_11  and  S_19 
REMARK    5  A    between atoms: C_20  and  C_16 
REMARK    6  A    between atoms: C_21  and  C_17 
REMARK    7  A    between atoms: S_19  and  C_26 
REMARK    8  A    between atoms: C_26  and  C_21 
ROOT
ATOM      1  C   UNL d   1      13.328  12.651  -4.109  0.00  0.00     0.191 A 
ATOM      2  C   UNL d   1      13.351  13.407  -3.781  0.00  0.00     0.174 A 
ATOM      3  N   UNL d   1      13.407  12.097  -3.496  0.00  0.00    -0.042 NA
ATOM      4  C   UNL d   1      13.478  12.538  -2.791  0.00  0.00     0.722 A 
ATOM      5  N   UNL d   1      13.453  13.356  -2.882  0.00  0.00    -0.132 N 
ATOM      6  N   UNL d   1      13.238  12.557  -4.922  0.00  0.00    -0.239 N 
ATOM      7  C   UNL d   1      13.167  13.231  -5.434  0.00  0.00     0.358 A 
ATOM      8  N   UNL d   1      13.191  13.987  -5.106  0.00  0.00    -0.152 NA
ATOM      9  C   UNL d   1      13.284  14.070  -4.266  0.00  0.00     0.303 A 
ATOM     10  O   UNL d   1      13.075  13.145  -6.265  0.00  0.00    -0.244 OA
ATOM     11  O   UNL d   1      13.307  14.827  -3.937  0.00  0.00    -0.263 OA
ATOM     12  C   UNL d   1      13.214  11.801  -5.250  0.00  0.00     0.105 C 
ENDROOT
BRANCH   5  13
ATOM     13  C   UNL d   1      13.475  14.110  -2.569  0.00  0.00     0.099 C 
BRANCH  13  14
ATOM     14  C   UNL d   1      14.165  14.550  -2.641  0.00  0.00     0.027 C 
BRANCH  14  15
ATOM     15  C   UNL d   1      14.245  15.248  -2.227  0.00  0.00     0.040 C 
BRANCH  15  16
ATOM     16  S   UNL d   1      14.939  15.693  -2.306  0.00  0.00    -0.048 SA
BRANCH  16  17
ATOM     17  C   UNL d   1      15.187  16.175  -1.684  0.00  0.00     0.194 A 
ATOM     18  N   UNL d   1      15.346  16.972  -1.819  0.00  0.00    -0.220 NA
ATOM     19  C   UNL d   1      15.590  17.441  -1.201  0.00  0.00     0.103 A 
ATOM     20  C   UNL d   1      15.679  17.123  -0.443  0.00  0.00     0.041 A 
ATOM     21  C   UNL d   1      15.520  16.320  -0.303  0.00  0.00     0.103 A 
ATOM     22  N   UNL d   1      15.273  15.848  -0.933  0.00  0.00    -0.220 NA
ENDBRANCH  16  17
ENDBRANCH  15  16
ENDBRANCH  14  15
ENDBRANCH  13  14
ENDBRANCH   5  13
BRANCH   4  23
ATOM     23  N   UNL d   1      13.569  12.209  -2.039  0.00  0.00    -0.137 N 
ATOM     24  C   UNL d   1      12.990  12.307  -1.473  0.00  0.00     0.118 C 
BRANCH  23  25
ATOM     25  C   UNL d   1      14.247  11.779  -1.856  0.00  0.00     0.098 C 
BRANCH  25  26
ATOM     26  C   UNL d   1      14.743  12.029  -1.245  0.00  0.00     0.018 A 
ATOM     27  C   UNL d   1      14.444  12.523  -0.648  0.00  0.00     0.002 A 
ATOM     28  C   UNL d   1      14.935  12.774  -0.039  0.00  0.00     0.000 A 
ATOM     29  C   UNL d   1      15.728  12.532  -0.022  0.00  0.00     0.000 A 
ATOM     30  C   UNL d   1      16.023  12.037  -0.622  0.00  0.00     0.000 A 
ATOM     31  C   UNL d   1      15.529  11.789  -1.229  0.00  0.00     0.002 A 
ENDBRANCH  25  26
ENDBRANCH  23  25
ENDBRANCH   4  23
TORSDOF 8
ENDMDL
MODEL 2
REMARK VINA RESULT:      57.7      2.043      3.878
REMARK  8 active torsions:
REMARK  status: ('A' for Active; 'I' for Inactive)
REMARK    1  A    between atoms: N_10  and  C_4 
REMARK    2  A    between atoms: C_17  and  N_5 
REMARK    3  A    between atoms: C_16  and  N_10 
REMARK    4  A    between atoms: C_11  and  S_19 
REMARK    5  A    between atoms: C_20  and  C_16 
REMARK    6  A    between atoms: C_21  and  C_17 
REMARK    7  A    between atoms: S_19  and  C_26 
REMARK    8  A    between atoms: C_26  and  C_21 
ROOT
ATOM      1  C   UNL d   1      14.629  12.916  -1.787  0.00  0.00     0.191 A 
ATOM      2  C   UNL d   1      14.582  13.718  -1.974  0.00  0.00     0.174 A 
ATOM      3  N   UNL d   1      14.168  12.492  -2.331  0.00  0.00    -0.042 NA
ATOM      4  C   UNL d   1      13.841  13.058  -2.851  0.00  0.00     0.722 A 
ATOM      5  N   UNL d   1      14.049  13.840  -2.697  0.00  0.00    -0.132 N 
ATOM      6  N   UNL d   1      15.084  12.668  -1.147  0.00  0.00    -0.239 N 
ATOM      7  C   UNL d   1      15.510  13.228  -0.671  0.00  0.00     0.358 A 
ATOM      8  N   UNL d   1      15.462  14.030  -0.858  0.00  0.00    -0.152 NA
ATOM      9  C   UNL d   1      14.989  14.272  -1.521  0.00  0.00     0.303 A 
ATOM     10  O   UNL d   1      15.977  12.985  -0.016  0.00  0.00    -0.244 OA
ATOM     11  O   UNL d   1      14.942  15.074  -1.708  0.00  0.00    -0.263 OA
ATOM     12  C   UNL d   1      15.132  11.866  -0.960  0.00  0.00     0.105 C 
ENDROOT
BRANCH   5  13
ATOM     13  C   UNL d   1      14.010  14.637  -2.872  0.00  0.00     0.099 C 
BRANCH  13  14
ATOM     14  C   UNL d   1      14.212  14.887  -3.628  0.00  0.00     0.027 C 
BRANCH  14  15
ATOM     15  C   UNL d   1      14.517  15.636  -3.739  0.00  0.00     0.040 C 
BRANCH  15  16
ATOM     16  S   UNL d   1      14.718  15.886  -4.502  0.00  0.00    -0.048 SA
BRANCH  16  17
ATOM     17  C   UNL d   1      14.644  16.683  -4.702  0.00  0.00     0.194 A 
ATOM     18  N   UNL d   1      14.942  17.264  -4.199  0.00  0.00    -0.220 NA
ATOM     19  C   UNL d   1      14.865  18.047  -4.403  0.00  0.00     0.103 A 
ATOM     20  C   UNL d   1      14.492  18.262  -5.109  0.00  0.00     0.041 A 
ATOM     21  C   UNL d   1      14.190  17.680  -5.618  0.00  0.00     0.103 A 
ATOM     22  N   UNL d   1      14.270  16.886  -5.408  0.00  0.00    -0.220 NA
ENDBRANCH  16  17
ENDBRANCH  15  16
ENDBRANCH  14  15
ENDBRANCH  13  14
ENDBRANCH   5  13
BRANCH   4  23
ATOM     23  N   UNL d   1      13.342  12.881  -3.483  0.00  0.00    -0.137 N 
ATOM     24  C   UNL d   1      12.837  13.448  -3.783  0.00  0.00     0.118 C 
BRANCH  23  25
ATOM     25  C   UNL d   1      13.350  12.129  -3.817  0.00  0.00     0.098 C 
BRANCH  25  26
ATOM     26  C   UNL d   1      13.434  12.039  -4.633  0.00  0.00     0.018 A 
ATOM     27  C   UNL d   1      12.769  11.871  -5.101  0.00  0.00     0.002 A 
ATOM     28  C   UNL d   1      12.849  11.781  -5.913  0.00  0.00     0.000 A 
ATOM     29  C   UNL d   1      13.596  11.858  -6.265  0.00  0.00     0.000 A 
ATOM     30  C   UNL d   1      14.260  12.026  -5.793  0.00  0.00     0.000 A 
ATOM     31  C   UNL d   1      14.176  12.116  -4.981  0.00  0.00     0.002 A 
ENDBRANCH  25  26
ENDBRANCH  23  25
ENDBRANCH   4  23
TORSDOF 8
ENDMDL
