MODEL 1
REMARK VINA RESULT:      25.9      0.000      0.000
REMARK  7 active torsions:
REMARK  status: ('A' for Active; 'I' for Inactive)
REMARK    1  A    between atoms: C_2  and  S_1 
REMARK    2  A    between atoms: N_11  and  S_1 
REMARK    3  A    between atoms: O_14  and  C_4 
REMARK    4  A    between atoms: N_10  and  C_15 
REMARK    5  A    between atoms: C_19  and  N_11 
REMARK    6  A    between atoms: C_15  and  C_16 
REMARK    7  A    between atoms: C_16  and  C_19 
ROOT
ATOM      1  S   UNL d   1      12.989  12.395  -3.734  0.00  0.00     0.287 S 
ATOM      2  O   UNL d   1      13.024  12.933  -3.115  0.00  0.00    -0.198 OA
ATOM      3  O   UNL d   1      12.953  11.853  -4.359  0.00  0.00    -0.198 OA
ENDROOT
BRANCH   1   4
ATOM      4  C   UNL d   1      13.114  13.004  -4.270  0.00  0.00     0.128 A 
ATOM      5  C   UNL d   1      12.893  13.778  -4.070  0.00  0.00     0.026 A 
ATOM      6  C   UNL d   1      13.021  14.396  -4.614  0.00  0.00     0.059 A 
ATOM      7 CL   UNL d   1      12.804  15.157  -4.416  0.00  0.00    -0.082 Cl
ATOM      8  C   UNL d   1      13.367  14.231  -5.350  0.00  0.00     0.013 A 
ATOM      9  C   UNL d   1      13.583  13.464  -5.541  0.00  0.00     0.026 A 
ATOM     10  C   UNL d   1      13.492  14.840  -5.885  0.00  0.00     0.001 C 
ATOM     11  C   UNL d   1      13.455  12.846  -4.998  0.00  0.00     0.106 A 
BRANCH  11  12
ATOM     12  O   UNL d   1      13.673  12.077  -5.193  0.00  0.00    -0.327 OA
ATOM     13  C   UNL d   1      13.765  11.870  -5.983  0.00  0.00     0.181 C 
ENDBRANCH  11  12
ENDBRANCH   1   4
BRANCH   1  14
ATOM     14  N   UNL d   1      12.862  11.780  -3.193  0.00  0.00    -0.157 NA
BRANCH  14  15
ATOM     15  C   UNL d   1      12.961  11.920  -2.381  0.00  0.00     0.114 C 
BRANCH  15  16
ATOM     16  C   UNL d   1      13.711  11.853  -2.043  0.00  0.00     0.041 C 
BRANCH  16  17
ATOM     17  C   UNL d   1      13.789  11.781  -1.231  0.00  0.00     0.082 C 
BRANCH  17  18
ATOM     18  N   UNL d   1      14.342  12.237  -0.830  0.00  0.00    -0.299 N 
ATOM     19  C   UNL d   1      14.104  12.933  -0.438  0.00  0.00     0.107 A 
ATOM     20  C   UNL d   1      14.656  13.389  -0.037  0.00  0.00     0.142 A 
ATOM     21  O   UNL d   1      15.446  13.163  -0.018  0.00  0.00    -0.300 OA
ATOM     22  C   UNL d   1      15.689  12.471  -0.405  0.00  0.00     0.142 A 
ATOM     23  C   UNL d   1      15.128  12.008  -0.813  0.00  0.00     0.107 A 
ENDBRANCH  17  18
ENDBRANCH  16  17
ENDBRANCH  15  16
ENDBRANCH  14  15
ENDBRANCH   1  14
TORSDOF 7
ENDMDL
