MODEL 1
REMARK VINA RESULT:       7.3      0.000      0.000
REMARK  5 active torsions:
REMARK  status: ('A' for Active; 'I' for Inactive)
REMARK    1  A    between atoms: C_14  and  N_4 
REMARK    2  A    between atoms: C_15  and  C_9 
REMARK    3  A    between atoms: O_20  and  C_12 
REMARK    4  A    between atoms: O_21  and  C_13 
REMARK    5  A    between atoms: C_18  and  C_14 
ROOT
ATOM      1  C   UNL d   1      57.053  -0.684  31.828  0.00  0.00     0.056 A 
ATOM      2  C   UNL d   1      56.328  -0.810  32.213  0.00  0.00     0.107 A 
ATOM      3  C   UNL d   1      56.171  -0.441  32.931  0.00  0.00     0.038 A 
ATOM      4  N   UNL d   1      57.449   0.180  32.891  0.00  0.00    -0.304 N 
ATOM      5  N   UNL d   1      55.884  -1.327  31.745  0.00  0.00    -0.148 NA
ATOM      6  C   UNL d   1      57.617  -0.186  32.169  0.00  0.00     0.083 A 
ATOM      7  N   UNL d   1      56.329  -1.520  31.076  0.00  0.00    -0.148 NA
ATOM      8  C   UNL d   1      56.735   0.057  33.272  0.00  0.00     0.068 A 
ATOM      9  C   UNL d   1      57.052  -1.126  31.123  0.00  0.00     0.106 A 
ATOM     10  C   UNL d   1      56.572   0.422  33.987  0.00  0.00     0.044 A 
ATOM     11  C   UNL d   1      55.451  -0.568  33.309  0.00  0.00     0.029 A 
ATOM     12  C   UNL d   1      55.858   0.299  34.369  0.00  0.00     0.118 A 
ATOM     13  C   UNL d   1      55.294  -0.199  34.028  0.00  0.00     0.116 A 
ENDROOT
BRANCH   4  14
ATOM     14  C   UNL d   1      58.018   0.682  33.235  0.00  0.00     0.080 C 
BRANCH  14  15
ATOM     15  C   UNL d   1      58.792   0.681  32.953  0.00  0.00     0.018 A 
ATOM     16  C   UNL d   1      58.934   0.682  32.143  0.00  0.00     0.002 A 
ATOM     17  C   UNL d   1      59.713   0.681  31.856  0.00  0.00     0.000 A 
ATOM     18  C   UNL d   1      60.349   0.680  32.390  0.00  0.00     0.000 A 
ATOM     19  C   UNL d   1      60.201   0.680  33.207  0.00  0.00     0.000 A 
ATOM     20  C   UNL d   1      61.131   0.680  32.110  0.00  0.00     0.000 C 
ATOM     21  C   UNL d   1      59.427   0.680  33.487  0.00  0.00     0.002 A 
ENDBRANCH  14  15
ENDBRANCH   4  14
BRANCH   9  22
ATOM     22  C   UNL d   1      57.608  -1.220  30.522  0.00  0.00     0.020 A 
ATOM     23  C   UNL d   1      58.115  -1.870  30.534  0.00  0.00     0.004 A 
ATOM     24  C   UNL d   1      58.678  -1.972  29.933  0.00  0.00     0.030 A 
ATOM     25  C   UNL d   1      58.726  -1.409  29.315  0.00  0.00     0.140 A 
ATOM     26  C   UNL d   1      58.213  -0.759  29.310  0.00  0.00     0.030 A 
ATOM     27  F   UNL d   1      59.281  -1.493  28.706  0.00  0.00    -0.204 F 
ATOM     28  C   UNL d   1      57.658  -0.665  29.910  0.00  0.00     0.004 A 
ENDBRANCH   9  22
BRANCH  12  29
ATOM     29  O   UNL d   1      55.696   0.673  35.098  0.00  0.00    -0.326 OA
ATOM     30  C   UNL d   1      56.246   0.642  35.714  0.00  0.00     0.181 C 
ENDBRANCH  12  29
BRANCH  13  31
ATOM     31  O   UNL d   1      54.566  -0.324  34.415  0.00  0.00    -0.326 OA
ATOM     32  C   UNL d   1      53.889   0.078  34.165  0.00  0.00     0.181 C 
ENDBRANCH  13  31
TORSDOF 5
ENDMDL
MODEL 2
REMARK VINA RESULT:       9.3      0.893      1.301
REMARK  5 active torsions:
REMARK  status: ('A' for Active; 'I' for Inactive)
REMARK    1  A    between atoms: C_14  and  N_4 
REMARK    2  A    between atoms: C_15  and  C_9 
REMARK    3  A    between atoms: O_20  and  C_12 
REMARK    4  A    between atoms: O_21  and  C_13 
REMARK    5  A    between atoms: C_18  and  C_14 
ROOT
ATOM      1  C   UNL d   1      57.616  -1.276  31.029  0.00  0.00     0.056 A 
ATOM      2  C   UNL d   1      56.904  -1.460  31.416  0.00  0.00     0.107 A 
ATOM      3  C   UNL d   1      56.579  -0.933  31.958  0.00  0.00     0.038 A 
ATOM      4  N   UNL d   1      57.662  -0.039  31.737  0.00  0.00    -0.304 N 
ATOM      5  N   UNL d   1      56.658  -2.202  31.145  0.00  0.00    -0.148 NA
ATOM      6  C   UNL d   1      57.997  -0.561  31.191  0.00  0.00     0.083 A 
ATOM      7  N   UNL d   1      57.211  -2.474  30.596  0.00  0.00    -0.148 NA
ATOM      8  C   UNL d   1      56.960  -0.218  32.119  0.00  0.00     0.068 A 
ATOM      9  C   UNL d   1      57.805  -1.907  30.521  0.00  0.00     0.106 A 
ATOM     10  C   UNL d   1      56.631   0.302  32.660  0.00  0.00     0.044 A 
ATOM     11  C   UNL d   1      55.874  -1.119  32.339  0.00  0.00     0.029 A 
ATOM     12  C   UNL d   1      55.930   0.123  33.042  0.00  0.00     0.118 A 
ATOM     13  C   UNL d   1      55.549  -0.592  32.881  0.00  0.00     0.116 A 
ENDROOT
BRANCH   4  14
ATOM     14  C   UNL d   1      58.046   0.682  31.899  0.00  0.00     0.080 C 
BRANCH  14  15
ATOM     15  C   UNL d   1      58.812   0.681  32.201  0.00  0.00     0.018 A 
ATOM     16  C   UNL d   1      59.455   0.682  31.689  0.00  0.00     0.002 A 
ATOM     17  C   UNL d   1      60.229   0.681  31.990  0.00  0.00     0.000 A 
ATOM     18  C   UNL d   1      60.352   0.681  32.811  0.00  0.00     0.000 A 
ATOM     19  C   UNL d   1      59.700   0.680  33.325  0.00  0.00     0.000 A 
ATOM     20  C   UNL d   1      61.123   0.680  33.120  0.00  0.00     0.000 C 
ATOM     21  C   UNL d   1      58.935   0.681  33.022  0.00  0.00     0.002 A 
ENDBRANCH  14  15
ENDBRANCH   4  14
BRANCH   9  22
ATOM     22  C   UNL d   1      58.433  -2.038  30.004  0.00  0.00     0.020 A 
ATOM     23  C   UNL d   1      58.322  -1.938  29.193  0.00  0.00     0.004 A 
ATOM     24  C   UNL d   1      58.949  -2.068  28.667  0.00  0.00     0.030 A 
ATOM     25  C   UNL d   1      59.695  -2.303  28.965  0.00  0.00     0.140 A 
ATOM     26  C   UNL d   1      59.799  -2.402  29.780  0.00  0.00     0.030 A 
ATOM     27  F   UNL d   1      60.334  -2.438  28.455  0.00  0.00    -0.204 F 
ATOM     28  C   UNL d   1      59.171  -2.271  30.297  0.00  0.00     0.004 A 
ENDBRANCH   9  22
BRANCH  12  29
ATOM     29  O   UNL d   1      55.597   0.656  33.593  0.00  0.00    -0.326 OA
ATOM     30  C   UNL d   1      55.716   0.546  34.404  0.00  0.00     0.181 C 
ENDBRANCH  12  29
BRANCH  13  31
ATOM     31  O   UNL d   1      54.835  -0.775  33.270  0.00  0.00    -0.326 OA
ATOM     32  C   UNL d   1      54.578  -1.559  33.317  0.00  0.00     0.181 C 
ENDBRANCH  13  31
TORSDOF 5
ENDMDL
