MODEL 1
REMARK VINA RESULT:      37.7      0.000      0.000
REMARK  4 active torsions:
REMARK  status: ('A' for Active; 'I' for Inactive)
REMARK    1  A    between atoms: S_11  and  C_7 
REMARK    2  A    between atoms: C_17  and  C_10 
REMARK    3  A    between atoms: C_16  and  S_11 
REMARK    4  A    between atoms: C_20  and  C_17 
ROOT
ATOM      1  N   UNL d   1      14.504  12.462  -1.056  0.00  0.00    -0.224 N 
ATOM      2  N   UNL d   1      14.954  13.812  -1.248  0.00  0.00    -0.241 N 
ATOM      3  C   UNL d   1      14.932  13.127  -0.791  0.00  0.00     0.343 A 
ATOM      4  C   UNL d   1      14.548  13.832  -1.970  0.00  0.00     0.160 A 
ATOM      5  C   UNL d   1      14.102  12.488  -1.775  0.00  0.00     0.273 A 
ATOM      6  C   UNL d   1      14.124  13.173  -2.232  0.00  0.00     0.115 A 
ATOM      7  C   UNL d   1      13.722  13.200  -2.951  0.00  0.00     0.120 A 
ATOM      8  N   UNL d   1      14.567  14.522  -2.434  0.00  0.00    -0.209 NA
ATOM      9  N   UNL d   1      13.742  13.882  -3.410  0.00  0.00    -0.220 NA
ATOM     10  C   UNL d   1      14.165  14.549  -3.153  0.00  0.00     0.165 A 
ATOM     11  O   UNL d   1      15.335  13.098  -0.068  0.00  0.00    -0.245 OA
ATOM     12  O   UNL d   1      13.680  11.827  -2.033  0.00  0.00    -0.266 OA
ATOM     13  C   UNL d   1      14.487  11.782  -0.596  0.00  0.00     0.107 C 
ATOM     14  C   UNL d   1      15.377  14.471  -0.986  0.00  0.00     0.105 C 
ENDROOT
BRANCH   7  15
ATOM     15  S   UNL d   1      13.300  12.539  -3.210  0.00  0.00    -0.068 SA
BRANCH  15  16
ATOM     16  C   UNL d   1      13.279  12.351  -4.014  0.00  0.00     0.031 A 
ATOM     17  C   UNL d   1      13.758  11.801  -4.397  0.00  0.00     0.006 A 
ATOM     18  C   UNL d   1      13.560  11.779  -5.196  0.00  0.00     0.001 A 
ATOM     19  C   UNL d   1      12.946  12.328  -5.307  0.00  0.00     0.001 A 
ATOM     20  C   UNL d   1      12.774  12.680  -4.572  0.00  0.00     0.006 A 
ENDBRANCH  15  16
ENDBRANCH   7  15
BRANCH  10  21
ATOM     21  C   UNL d   1      14.184  15.233  -3.615  0.00  0.00     0.039 C 
BRANCH  21  22
ATOM     22  C   UNL d   1      14.672  15.865  -3.394  0.00  0.00     0.003 C 
ATOM     23  C   UNL d   1      14.729  16.531  -3.864  0.00  0.00     0.000 C 
ENDBRANCH  21  22
ENDBRANCH  10  21
TORSDOF 4
ENDMDL
