MODEL 1
REMARK VINA RESULT:      15.5      0.000      0.000
REMARK  1 active torsions:
REMARK  status: ('A' for Active; 'I' for Inactive)
REMARK    1  A    between atoms: C_4  and  C_1 
ROOT
ATOM      1  C   UNL d   1      58.969  49.703  50.720  0.00  0.00     0.036 A 
ATOM      2  C   UNL d   1      59.600  49.705  50.182  0.00  0.00     0.061 A 
ATOM      3  C   UNL d   1      59.136  49.701  51.523  0.00  0.00     0.004 A 
ATOM      4  C   UNL d   1      60.371  49.706  50.442  0.00  0.00     0.023 A 
ATOM      5  C   UNL d   1      60.527  49.704  51.256  0.00  0.00     0.059 A 
ATOM      6 CL   UNL d   1      59.434  49.707  49.379  0.00  0.00    -0.082 Cl
ATOM      7  C   UNL d   1      59.919  49.702  51.794  0.00  0.00     0.011 A 
ATOM      8 CL   UNL d   1      61.307  49.705  51.511  0.00  0.00    -0.082 Cl
ENDROOT
BRANCH   1   9
ATOM      9  C   UNL d   1      58.184  49.702  50.464  0.00  0.00     0.136 A 
ATOM     10  S   UNL d   1      57.509  49.698  50.938  0.00  0.00    -0.024 SA
ATOM     11  C   UNL d   1      56.844  49.699  50.450  0.00  0.00     0.236 A 
ATOM     12  N   UNL d   1      56.054  49.695  50.690  0.00  0.00    -0.118 N 
ATOM     13  N   UNL d   1      57.105  49.704  49.651  0.00  0.00    -0.119 NA
ATOM     14  N   UNL d   1      57.930  49.706  49.659  0.00  0.00    -0.139 NA
ENDBRANCH   1   9
TORSDOF 1
ENDMDL
MODEL 2
REMARK VINA RESULT:      15.6      1.960      3.329
REMARK  1 active torsions:
REMARK  status: ('A' for Active; 'I' for Inactive)
REMARK    1  A    between atoms: C_4  and  C_1 
ROOT
ATOM      1  C   UNL d   1      58.281  49.702  50.309  0.00  0.00     0.036 A 
ATOM      2  C   UNL d   1      57.599  49.697  50.781  0.00  0.00     0.061 A 
ATOM      3  C   UNL d   1      58.195  49.706  49.493  0.00  0.00     0.004 A 
ATOM      4  C   UNL d   1      56.859  49.697  50.446  0.00  0.00     0.023 A 
ATOM      5  C   UNL d   1      56.783  49.702  49.621  0.00  0.00     0.059 A 
ATOM      6 CL   UNL d   1      57.686  49.693  51.597  0.00  0.00    -0.082 Cl
ATOM      7  C   UNL d   1      57.442  49.707  49.146  0.00  0.00     0.011 A 
ATOM      8 CL   UNL d   1      56.033  49.702  49.290  0.00  0.00    -0.082 Cl
ENDROOT
BRANCH   1   9
ATOM      9  C   UNL d   1      59.036  49.701  50.641  0.00  0.00     0.136 A 
ATOM     10  S   UNL d   1      59.756  49.697  50.237  0.00  0.00    -0.024 SA
ATOM     11  C   UNL d   1      60.369  49.698  50.788  0.00  0.00     0.236 A 
ATOM     12  N   UNL d   1      61.179  49.695  50.628  0.00  0.00    -0.118 N 
ATOM     13  N   UNL d   1      60.030  49.704  51.558  0.00  0.00    -0.119 NA
ATOM     14  N   UNL d   1      59.210  49.705  51.467  0.00  0.00    -0.139 NA
ENDBRANCH   1   9
TORSDOF 1
ENDMDL
