MODEL 1
REMARK VINA RESULT:      14.2      0.000      0.000
REMARK  3 active torsions:
REMARK  status: ('A' for Active; 'I' for Inactive)
REMARK    1  A    between atoms: S_8  and  C_2 
REMARK    2  A    between atoms: C_13  and  S_8 
REMARK    3  A    between atoms: C_15  and  C_13 
ROOT
ATOM      1  C   UNL d   1     -51.891  23.898  33.328  0.00  0.00     0.104 A 
ATOM      2  C   UNL d   1     -51.098  25.342  33.313  0.00  0.00     0.182 A 
ATOM      3  N   UNL d   1     -50.671  24.636  33.324  0.00  0.00    -0.251 N 
ATOM      4  C   UNL d   1     -51.077  23.909  33.331  0.00  0.00     0.274 A 
ATOM      5  C   UNL d   1     -52.318  24.603  33.317  0.00  0.00     0.095 A 
ATOM      6  N   UNL d   1     -51.931  25.320  33.309  0.00  0.00    -0.222 NA
ATOM      7  S   UNL d   1     -52.430  23.277  33.333  0.00  0.00    -0.081 SA
ATOM      8  C   UNL d   1     -53.121  24.418  33.315  0.00  0.00     0.026 A 
ATOM      9  O   UNL d   1     -50.649  23.203  33.342  0.00  0.00    -0.266 OA
ATOM     10  C   UNL d   1     -53.191  23.604  33.325  0.00  0.00     0.031 A 
ATOM     11  C   UNL d   1     -49.840  24.652  33.327  0.00  0.00     0.104 C 
ATOM     12  C   UNL d   1     -53.904  23.188  33.327  0.00  0.00     0.007 C 
ENDROOT
BRANCH   2  13
ATOM     13  S   UNL d   1     -50.701  26.075  33.306  0.00  0.00    -0.050 SA
BRANCH  13  14
ATOM     14  C   UNL d   1     -51.120  26.767  33.473  0.00  0.00     0.032 C 
ATOM     15  C   UNL d   1     -51.931  26.732  33.622  0.00  0.00     0.007 C 
BRANCH  14  16
ATOM     16  C   UNL d   1     -50.728  27.489  33.489  0.00  0.00     0.007 C 
ATOM     17  C   UNL d   1     -51.159  28.192  33.447  0.00  0.00     0.001 C 
ENDBRANCH  14  16
ENDBRANCH  13  14
ENDBRANCH   2  13
TORSDOF 3
ENDMDL
