MODEL 1
REMARK VINA RESULT:      -8.6      0.000      0.000
REMARK  3 active torsions:
REMARK  status: ('A' for Active; 'I' for Inactive)
REMARK    1  A    between atoms: C_7  and  C_1 
REMARK    2  A    between atoms: N_8  and  C_7 
REMARK    3  A    between atoms: C_11  and  N_8 
ROOT
ATOM      1  C   UNL d   1      53.250  31.846  53.492  0.00  0.00     0.145 A 
ATOM      2  C   UNL d   1      52.836  31.504  52.874  0.00  0.00     0.304 A 
ATOM      3  C   UNL d   1      53.597  31.370  54.069  0.00  0.00     0.304 A 
ATOM      4  O   UNL d   1      52.765  30.683  52.827  0.00  0.00    -0.277 OA
ATOM      5  O   UNL d   1      53.526  30.549  54.022  0.00  0.00    -0.277 OA
ATOM      6  C   UNL d   1      53.109  30.207  53.398  0.00  0.00     0.203 A 
ATOM      7  O   UNL d   1      52.483  32.005  52.286  0.00  0.00    -0.259 OA
ATOM      8  O   UNL d   1      54.025  31.733  54.708  0.00  0.00    -0.259 OA
ATOM      9  C   UNL d   1      53.376  29.564  53.863  0.00  0.00     0.062 C 
ATOM     10  C   UNL d   1      52.731  29.709  52.849  0.00  0.00     0.062 C 
ENDROOT
BRANCH   1  11
ATOM     11  C   UNL d   1      53.321  32.675  53.540  0.00  0.00     0.111 C 
BRANCH  11  12
ATOM     12  N   UNL d   1      52.723  33.120  53.892  0.00  0.00    -0.225 NA
BRANCH  12  13
ATOM     13  C   UNL d   1      52.829  33.937  54.015  0.00  0.00     0.163 A 
ATOM     14  N   UNL d   1      53.079  34.213  54.747  0.00  0.00    -0.225 NA
ATOM     15  C   UNL d   1      53.185  35.028  54.869  0.00  0.00     0.101 A 
ATOM     16  C   UNL d   1      53.041  35.557  54.257  0.00  0.00     0.021 A 
ATOM     17  C   UNL d   1      52.791  35.281  53.521  0.00  0.00     0.005 A 
ATOM     18  C   UNL d   1      52.684  34.467  53.400  0.00  0.00     0.039 A 
ENDBRANCH  12  13
ENDBRANCH  11  12
ENDBRANCH   1  11
TORSDOF 3
ENDMDL
MODEL 2
REMARK VINA RESULT:      -7.7      1.374      3.943
REMARK  3 active torsions:
REMARK  status: ('A' for Active; 'I' for Inactive)
REMARK    1  A    between atoms: C_7  and  C_1 
REMARK    2  A    between atoms: N_8  and  C_7 
REMARK    3  A    between atoms: C_11  and  N_8 
ROOT
ATOM      1  C   UNL d   1      53.016  33.337  54.197  0.00  0.00     0.145 A 
ATOM      2  C   UNL d   1      52.577  33.873  53.761  0.00  0.00     0.304 A 
ATOM      3  C   UNL d   1      53.554  33.607  54.760  0.00  0.00     0.304 A 
ATOM      4  O   UNL d   1      52.672  34.684  53.883  0.00  0.00    -0.277 OA
ATOM      5  O   UNL d   1      53.649  34.418  54.883  0.00  0.00    -0.277 OA
ATOM      6  C   UNL d   1      53.205  34.956  54.442  0.00  0.00     0.203 A 
ATOM      7  O   UNL d   1      52.026  33.583  53.183  0.00  0.00    -0.259 OA
ATOM      8  O   UNL d   1      54.006  33.044  55.209  0.00  0.00    -0.259 OA
ATOM      9  C   UNL d   1      53.681  35.424  54.947  0.00  0.00     0.062 C 
ATOM     10  C   UNL d   1      52.847  35.620  54.092  0.00  0.00     0.062 C 
ENDROOT
BRANCH   1  11
ATOM     11  C   UNL d   1      52.920  32.519  54.073  0.00  0.00     0.111 C 
BRANCH  11  12
ATOM     12  N   UNL d   1      53.399  32.127  53.528  0.00  0.00    -0.225 NA
BRANCH  12  13
ATOM     13  C   UNL d   1      53.289  31.313  53.388  0.00  0.00     0.163 A 
ATOM     14  N   UNL d   1      52.789  31.064  52.785  0.00  0.00    -0.225 NA
ATOM     15  C   UNL d   1      52.679  30.253  52.646  0.00  0.00     0.101 A 
ATOM     16  C   UNL d   1      53.070  29.699  53.111  0.00  0.00     0.021 A 
ATOM     17  C   UNL d   1      53.572  29.948  53.716  0.00  0.00     0.005 A 
ATOM     18  C   UNL d   1      53.682  30.759  53.855  0.00  0.00     0.039 A 
ENDBRANCH  12  13
ENDBRANCH  11  12
ENDBRANCH   1  11
TORSDOF 3
ENDMDL
MODEL 3
REMARK VINA RESULT:      -7.6      2.128      3.266
REMARK  3 active torsions:
REMARK  status: ('A' for Active; 'I' for Inactive)
REMARK    1  A    between atoms: C_7  and  C_1 
REMARK    2  A    between atoms: N_8  and  C_7 
REMARK    3  A    between atoms: C_11  and  N_8 
ROOT
ATOM      1  C   UNL d   1      53.107  33.984  53.755  0.00  0.00     0.145 A 
ATOM      2  C   UNL d   1      53.469  33.250  53.763  0.00  0.00     0.304 A 
ATOM      3  C   UNL d   1      53.349  34.569  54.285  0.00  0.00     0.304 A 
ATOM      4  O   UNL d   1      54.077  33.093  54.300  0.00  0.00    -0.277 OA
ATOM      5  O   UNL d   1      53.956  34.412  54.821  0.00  0.00    -0.277 OA
ATOM      6  C   UNL d   1      54.320  33.671  54.826  0.00  0.00     0.203 A 
ATOM      7  O   UNL d   1      53.212  32.656  53.213  0.00  0.00    -0.259 OA
ATOM      8  O   UNL d   1      52.967  35.328  54.271  0.00  0.00    -0.259 OA
ATOM      9  C   UNL d   1      54.703  34.110  55.428  0.00  0.00     0.062 C 
ATOM     10  C   UNL d   1      54.783  32.995  54.964  0.00  0.00     0.062 C 
ENDROOT
BRANCH   1  11
ATOM     11  C   UNL d   1      52.494  34.142  53.214  0.00  0.00     0.111 C 
BRANCH  11  12
ATOM     12  N   UNL d   1      51.723  33.904  53.385  0.00  0.00    -0.225 NA
BRANCH  12  13
ATOM     13  C   UNL d   1      51.103  34.097  52.863  0.00  0.00     0.163 A 
ATOM     14  N   UNL d   1      51.234  34.095  52.051  0.00  0.00    -0.225 NA
ATOM     15  C   UNL d   1      50.617  34.287  51.531  0.00  0.00     0.101 A 
ATOM     16  C   UNL d   1      49.874  34.480  51.827  0.00  0.00     0.021 A 
ATOM     17  C   UNL d   1      49.742  34.482  52.641  0.00  0.00     0.005 A 
ATOM     18  C   UNL d   1      50.359  34.290  53.161  0.00  0.00     0.039 A 
ENDBRANCH  12  13
ENDBRANCH  11  12
ENDBRANCH   1  11
TORSDOF 3
ENDMDL
MODEL 4
REMARK VINA RESULT:      -7.1      2.272      3.377
REMARK  3 active torsions:
REMARK  status: ('A' for Active; 'I' for Inactive)
REMARK    1  A    between atoms: C_7  and  C_1 
REMARK    2  A    between atoms: N_8  and  C_7 
REMARK    3  A    between atoms: C_11  and  N_8 
ROOT
ATOM      1  C   UNL d   1      52.099  34.067  53.158  0.00  0.00     0.145 A 
ATOM      2  C   UNL d   1      51.765  33.505  52.665  0.00  0.00     0.304 A 
ATOM      3  C   UNL d   1      51.658  34.722  53.395  0.00  0.00     0.304 A 
ATOM      4  O   UNL d   1      50.986  33.594  52.403  0.00  0.00    -0.277 OA
ATOM      5  O   UNL d   1      50.880  34.811  53.134  0.00  0.00    -0.277 OA
ATOM      6  C   UNL d   1      50.546  34.244  52.636  0.00  0.00     0.203 A 
ATOM      7  O   UNL d   1      52.228  32.835  52.428  0.00  0.00    -0.259 OA
ATOM      8  O   UNL d   1      52.012  35.300  53.908  0.00  0.00    -0.259 OA
ATOM      9  C   UNL d   1      49.945  34.815  52.754  0.00  0.00     0.062 C 
ATOM     10  C   UNL d   1      50.065  33.777  52.143  0.00  0.00     0.062 C 
ENDROOT
BRANCH   1  11
ATOM     11  C   UNL d   1      52.884  33.977  53.422  0.00  0.00     0.111 C 
BRANCH  11  12
ATOM     12  N   UNL d   1      53.057  33.437  54.021  0.00  0.00    -0.225 NA
BRANCH  12  13
ATOM     13  C   UNL d   1      53.800  33.460  54.398  0.00  0.00     0.163 A 
ATOM     14  N   UNL d   1      53.844  33.559  55.213  0.00  0.00    -0.225 NA
ATOM     15  C   UNL d   1      54.583  33.582  55.589  0.00  0.00     0.101 A 
ATOM     16  C   UNL d   1      55.272  33.505  55.147  0.00  0.00     0.021 A 
ATOM     17  C   UNL d   1      55.229  33.405  54.329  0.00  0.00     0.005 A 
ATOM     18  C   UNL d   1      54.489  33.383  53.953  0.00  0.00     0.039 A 
ENDBRANCH  12  13
ENDBRANCH  11  12
ENDBRANCH   1  11
TORSDOF 3
ENDMDL
