MODEL 1
REMARK VINA RESULT:      47.3      0.000      0.000
REMARK  3 active torsions:
REMARK  status: ('A' for Active; 'I' for Inactive)
REMARK       I    between atoms: N_2  and  C_1 
REMARK    1  A    between atoms: C_3  and  C_1 
REMARK    2  A    between atoms: C_8  and  N_2 
REMARK    3  A    between atoms: C_7  and  C_6 
ROOT
ATOM      1  C   UNL d   1     -54.831-101.266 -41.835  0.00  0.00     0.279 C 
ATOM      2  N   UNL d   1     -54.751-100.449 -41.887  0.00  0.00    -0.208 NA
ATOM      3  O   UNL d   1     -54.940-101.705 -42.530  0.00  0.00    -0.265 OA
ENDROOT
BRANCH   1   4
ATOM      4  C   UNL d   1     -54.807-101.657 -41.106  0.00  0.00     0.058 A 
ATOM      5  C   UNL d   1     -54.821-101.220 -40.397  0.00  0.00     0.005 A 
ATOM      6  C   UNL d   1     -54.795-101.628 -39.692  0.00  0.00     0.000 A 
ATOM      7  C   UNL d   1     -54.809-101.200 -38.978  0.00  0.00     0.000 A 
ATOM      8  C   UNL d   1     -54.757-102.460 -39.673  0.00  0.00     0.000 A 
ATOM      9  C   UNL d   1     -54.783-101.616 -38.257  0.00  0.00     0.000 A 
ATOM     10  C   UNL d   1     -54.745-102.440 -38.251  0.00  0.00     0.000 A 
ATOM     11  C   UNL d   1     -54.732-102.860 -38.957  0.00  0.00     0.000 A 
ATOM     12  C   UNL d   1     -54.744-102.880 -40.371  0.00  0.00     0.000 A 
ATOM     13  C   UNL d   1     -54.769-102.481 -41.100  0.00  0.00     0.005 A 
ENDBRANCH   1   4
BRANCH   2  14
ATOM     14  C   UNL d   1     -54.776-100.061 -42.619  0.00  0.00     0.085 A 
ATOM     15  C   UNL d   1     -54.855-100.480 -43.306  0.00  0.00     0.022 A 
ATOM     16  C   UNL d   1     -54.879-100.091 -44.029  0.00  0.00     0.041 A 
ATOM     17  C   UNL d   1     -54.826 -99.272 -44.088  0.00  0.00     0.003 A 
ATOM     18  C   UNL d   1     -54.745 -98.833 -43.394  0.00  0.00     0.002 A 
ATOM     19  C   UNL d   1     -54.717 -99.203 -42.648  0.00  0.00     0.019 A 
BRANCH  16  20
ATOM     20  C   UNL d   1     -54.962-100.548 -44.736  0.00  0.00     0.196 C 
ATOM     21  O   UNL d   1     -55.214-101.324 -44.696  0.00  0.00    -0.287 OA
ATOM     22  C   UNL d   1     -54.786-100.197 -45.458  0.00  0.00     0.045 C 
ENDBRANCH  16  20
ENDBRANCH   2  14
TORSDOF 3
ENDMDL
