MODEL 1
REMARK VINA RESULT:      -8.2      0.000      0.000
REMARK  3 active torsions:
REMARK  status: ('A' for Active; 'I' for Inactive)
REMARK    1  A    between atoms: N_2  and  C_1 
REMARK    2  A    between atoms: N_3  and  C_1 
REMARK       I    between atoms: C_4  and  N_3 
REMARK    3  A    between atoms: C_7  and  C_4 
ROOT
ATOM      1  C   UNL d   1      53.502  32.506  53.567  0.00  0.00     0.209 C 
ATOM      2  S   UNL d   1      53.400  31.680  53.559  0.00  0.00    -0.038 SA
ENDROOT
BRANCH   1   3
ATOM      3  N   UNL d   1      54.248  32.831  53.680  0.00  0.00    -0.282 N 
ATOM      4  C   UNL d   1      54.456  33.133  54.425  0.00  0.00     0.066 A 
ATOM      5  C   UNL d   1      55.202  33.458  54.537  0.00  0.00     0.016 A 
ATOM      6  C   UNL d   1      53.924  33.109  55.047  0.00  0.00     0.018 A 
ATOM      7  C   UNL d   1      55.415  33.758  55.269  0.00  0.00     0.001 A 
ATOM      8  C   UNL d   1      55.742  33.485  53.916  0.00  0.00     0.003 A 
ATOM      9  C   UNL d   1      54.880  33.733  55.892  0.00  0.00     0.000 A 
ATOM     10  C   UNL d   1      54.136  33.411  55.787  0.00  0.00     0.002 A 
ATOM     11  C   UNL d   1      55.530  33.183  53.176  0.00  0.00     0.019 A 
ATOM     12  C   UNL d   1      54.784  32.857  53.060  0.00  0.00     0.082 A 
ENDBRANCH   1   3
BRANCH   1  13
ATOM     13  N   UNL d   1      52.845  33.002  53.460  0.00  0.00    -0.180 NA
ATOM     14  C   UNL d   1      52.249  32.781  52.924  0.00  0.00     0.281 C 
ATOM     15  O   UNL d   1      52.306  32.079  52.503  0.00  0.00    -0.265 OA
BRANCH  14  16
ATOM     16  C   UNL d   1      51.585  33.282  52.816  0.00  0.00     0.058 A 
ATOM     17  C   UNL d   1      51.599  33.853  52.214  0.00  0.00     0.005 A 
ATOM     18  C   UNL d   1      50.941  34.350  52.107  0.00  0.00     0.007 A 
ATOM     19  C   UNL d   1      50.280  34.274  52.597  0.00  0.00     0.035 A 
ATOM     20  C   UNL d   1      50.275  33.694  53.202  0.00  0.00     0.007 A 
ATOM     21 BR   UNL d   1      49.622  34.770  52.490  0.00  0.00    -0.049 Br
ATOM     22  C   UNL d   1      50.927  33.203  53.308  0.00  0.00     0.005 A 
ENDBRANCH  14  16
ENDBRANCH   1  13
TORSDOF 3
ENDMDL
MODEL 2
REMARK VINA RESULT:      -8.1      1.453      2.265
REMARK  3 active torsions:
REMARK  status: ('A' for Active; 'I' for Inactive)
REMARK    1  A    between atoms: N_2  and  C_1 
REMARK    2  A    between atoms: N_3  and  C_1 
REMARK       I    between atoms: C_4  and  N_3 
REMARK    3  A    between atoms: C_7  and  C_4 
ROOT
ATOM      1  C   UNL d   1      53.171  33.231  53.234  0.00  0.00     0.209 C 
ATOM      2  S   UNL d   1      53.758  33.637  52.806  0.00  0.00    -0.038 SA
ENDROOT
BRANCH   1   3
ATOM      3  N   UNL d   1      53.380  32.693  53.818  0.00  0.00    -0.282 N 
ATOM      4  C   UNL d   1      53.335  31.879  53.662  0.00  0.00     0.066 A 
ATOM      5  C   UNL d   1      53.544  31.341  54.245  0.00  0.00     0.016 A 
ATOM      6  C   UNL d   1      53.085  31.609  52.930  0.00  0.00     0.018 A 
ATOM      7  C   UNL d   1      53.503  30.536  54.099  0.00  0.00     0.001 A 
ATOM      8  C   UNL d   1      53.797  31.604  54.983  0.00  0.00     0.003 A 
ATOM      9  C   UNL d   1      53.251  30.267  53.365  0.00  0.00     0.000 A 
ATOM     10  C   UNL d   1      53.041  30.797  52.778  0.00  0.00     0.002 A 
ATOM     11  C   UNL d   1      53.840  32.416  55.135  0.00  0.00     0.019 A 
ATOM     12  C   UNL d   1      53.632  32.958  54.552  0.00  0.00     0.082 A 
ENDBRANCH   1   3
BRANCH   1  13
ATOM     13  N   UNL d   1      52.370  33.373  53.069  0.00  0.00    -0.180 NA
ATOM     14  C   UNL d   1      52.130  34.134  52.831  0.00  0.00     0.281 C 
ATOM     15  O   UNL d   1      52.679  34.741  52.760  0.00  0.00    -0.265 OA
BRANCH  14  16
ATOM     16  C   UNL d   1      51.321  34.277  52.664  0.00  0.00     0.058 A 
ATOM     17  C   UNL d   1      51.039  34.169  51.890  0.00  0.00     0.005 A 
ATOM     18  C   UNL d   1      50.238  34.312  51.725  0.00  0.00     0.007 A 
ATOM     19  C   UNL d   1      49.727  34.559  52.326  0.00  0.00     0.035 A 
ATOM     20  C   UNL d   1      50.021  34.666  53.103  0.00  0.00     0.007 A 
ATOM     21 BR   UNL d   1      48.926  34.702  52.160  0.00  0.00    -0.049 Br
ATOM     22  C   UNL d   1      50.815  34.524  53.267  0.00  0.00     0.005 A 
ENDBRANCH  14  16
ENDBRANCH   1  13
TORSDOF 3
ENDMDL
MODEL 3
REMARK VINA RESULT:      -7.7      1.389      1.775
REMARK  3 active torsions:
REMARK  status: ('A' for Active; 'I' for Inactive)
REMARK    1  A    between atoms: N_2  and  C_1 
REMARK    2  A    between atoms: N_3  and  C_1 
REMARK       I    between atoms: C_4  and  N_3 
REMARK    3  A    between atoms: C_7  and  C_4 
ROOT
ATOM      1  C   UNL d   1      52.727  33.546  52.983  0.00  0.00     0.209 C 
ATOM      2  S   UNL d   1      53.260  34.118  52.699  0.00  0.00    -0.038 SA
ENDROOT
BRANCH   1   3
ATOM      3  N   UNL d   1      53.003  32.853  53.325  0.00  0.00    -0.282 N 
ATOM      4  C   UNL d   1      53.436  32.888  54.034  0.00  0.00     0.066 A 
ATOM      5  C   UNL d   1      53.712  32.196  54.376  0.00  0.00     0.016 A 
ATOM      6  C   UNL d   1      53.587  33.609  54.393  0.00  0.00     0.018 A 
ATOM      7  C   UNL d   1      54.139  32.222  55.075  0.00  0.00     0.001 A 
ATOM      8  C   UNL d   1      53.564  31.468  54.021  0.00  0.00     0.003 A 
ATOM      9  C   UNL d   1      54.291  32.946  55.433  0.00  0.00     0.000 A 
ATOM     10  C   UNL d   1      54.018  33.640  55.098  0.00  0.00     0.002 A 
ATOM     11  C   UNL d   1      53.133  31.437  53.316  0.00  0.00     0.019 A 
ATOM     12  C   UNL d   1      52.854  32.129  52.970  0.00  0.00     0.082 A 
ENDBRANCH   1   3
BRANCH   1  13
ATOM     13  N   UNL d   1      51.909  33.678  52.918  0.00  0.00    -0.180 NA
ATOM     14  C   UNL d   1      51.630  34.254  52.387  0.00  0.00     0.281 C 
ATOM     15  O   UNL d   1      52.155  34.689  51.929  0.00  0.00    -0.265 OA
BRANCH  14  16
ATOM     16  C   UNL d   1      50.804  34.388  52.321  0.00  0.00     0.058 A 
ATOM     17  C   UNL d   1      50.420  34.223  51.603  0.00  0.00     0.005 A 
ATOM     18  C   UNL d   1      49.603  34.356  51.538  0.00  0.00     0.007 A 
ATOM     19  C   UNL d   1      49.178  34.651  52.183  0.00  0.00     0.035 A 
ATOM     20  C   UNL d   1      49.574  34.814  52.903  0.00  0.00     0.007 A 
ATOM     21 BR   UNL d   1      48.360  34.784  52.118  0.00  0.00    -0.049 Br
ATOM     22  C   UNL d   1      50.384  34.682  52.967  0.00  0.00     0.005 A 
ENDBRANCH  14  16
ENDBRANCH   1  13
TORSDOF 3
ENDMDL
MODEL 4
REMARK VINA RESULT:      -7.7      2.491      3.714
REMARK  3 active torsions:
REMARK  status: ('A' for Active; 'I' for Inactive)
REMARK    1  A    between atoms: N_2  and  C_1 
REMARK    2  A    between atoms: N_3  and  C_1 
REMARK       I    between atoms: C_4  and  N_3 
REMARK    3  A    between atoms: C_7  and  C_4 
ROOT
ATOM      1  C   UNL d   1      53.443  32.893  53.351  0.00  0.00     0.209 C 
ATOM      2  S   UNL d   1      54.230  33.075  53.150  0.00  0.00    -0.038 SA
ENDROOT
BRANCH   1   3
ATOM      3  N   UNL d   1      52.849  33.451  53.249  0.00  0.00    -0.282 N 
ATOM      4  C   UNL d   1      52.829  34.124  53.735  0.00  0.00     0.066 A 
ATOM      5  C   UNL d   1      52.235  34.681  53.634  0.00  0.00     0.016 A 
ATOM      6  C   UNL d   1      53.397  34.235  54.315  0.00  0.00     0.018 A 
ATOM      7  C   UNL d   1      52.208  35.347  54.110  0.00  0.00     0.001 A 
ATOM      8  C   UNL d   1      51.660  34.576  53.054  0.00  0.00     0.003 A 
ATOM      9  C   UNL d   1      52.779  35.458  54.690  0.00  0.00     0.000 A 
ATOM     10  C   UNL d   1      53.374  34.906  54.797  0.00  0.00     0.002 A 
ATOM     11  C   UNL d   1      51.684  33.904  52.572  0.00  0.00     0.019 A 
ATOM     12  C   UNL d   1      52.278  33.344  52.671  0.00  0.00     0.082 A 
ENDBRANCH   1   3
BRANCH   1  13
ATOM     13  N   UNL d   1      53.260  32.142  53.655  0.00  0.00    -0.180 NA
ATOM     14  C   UNL d   1      53.780  31.508  53.518  0.00  0.00     0.281 C 
ATOM     15  O   UNL d   1      54.470  31.620  53.086  0.00  0.00    -0.265 OA
BRANCH  14  16
ATOM     16  C   UNL d   1      53.596  30.750  53.825  0.00  0.00     0.058 A 
ATOM     17  C   UNL d   1      53.596  30.632  54.647  0.00  0.00     0.005 A 
ATOM     18  C   UNL d   1      53.413  29.880  54.951  0.00  0.00     0.007 A 
ATOM     19  C   UNL d   1      53.233  29.258  54.438  0.00  0.00     0.035 A 
ATOM     20  C   UNL d   1      53.235  29.387  53.610  0.00  0.00     0.007 A 
ATOM     21 BR   UNL d   1      53.050  28.506  54.742  0.00  0.00    -0.049 Br
ATOM     22  C   UNL d   1      53.417  30.131  53.309  0.00  0.00     0.005 A 
ENDBRANCH  14  16
ENDBRANCH   1  13
TORSDOF 3
ENDMDL
MODEL 5
REMARK VINA RESULT:      -7.6      2.322      3.903
REMARK  3 active torsions:
REMARK  status: ('A' for Active; 'I' for Inactive)
REMARK    1  A    between atoms: N_2  and  C_1 
REMARK    2  A    between atoms: N_3  and  C_1 
REMARK       I    between atoms: C_4  and  N_3 
REMARK    3  A    between atoms: C_7  and  C_4 
ROOT
ATOM      1  C   UNL d   1      53.526  33.195  53.411  0.00  0.00     0.209 C 
ATOM      2  S   UNL d   1      54.195  33.323  52.933  0.00  0.00    -0.038 SA
ENDROOT
BRANCH   1   3
ATOM      3  N   UNL d   1      53.084  33.829  53.685  0.00  0.00    -0.282 N 
ATOM      4  C   UNL d   1      52.363  34.018  53.318  0.00  0.00     0.066 A 
ATOM      5  C   UNL d   1      51.921  34.653  53.592  0.00  0.00     0.016 A 
ATOM      6  C   UNL d   1      52.092  33.576  52.684  0.00  0.00     0.018 A 
ATOM      7  C   UNL d   1      51.210  34.846  53.234  0.00  0.00     0.001 A 
ATOM      8  C   UNL d   1      52.188  35.102  54.228  0.00  0.00     0.003 A 
ATOM      9  C   UNL d   1      50.939  34.401  52.599  0.00  0.00     0.000 A 
ATOM     10  C   UNL d   1      51.374  33.768  52.321  0.00  0.00     0.002 A 
ATOM     11  C   UNL d   1      52.906  34.911  54.592  0.00  0.00     0.019 A 
ATOM     12  C   UNL d   1      53.351  34.275  54.319  0.00  0.00     0.082 A 
ENDBRANCH   1   3
BRANCH   1  13
ATOM     13  N   UNL d   1      53.306  32.419  53.611  0.00  0.00    -0.180 NA
ATOM     14  C   UNL d   1      53.885  31.822  53.627  0.00  0.00     0.281 C 
ATOM     15  O   UNL d   1      54.668  31.994  53.449  0.00  0.00    -0.265 OA
BRANCH  14  16
ATOM     16  C   UNL d   1      53.664  31.038  53.829  0.00  0.00     0.058 A 
ATOM     17  C   UNL d   1      53.596  30.827  54.629  0.00  0.00     0.005 A 
ATOM     18  C   UNL d   1      53.376  30.050  54.828  0.00  0.00     0.007 A 
ATOM     19  C   UNL d   1      53.228  29.496  54.234  0.00  0.00     0.035 A 
ATOM     20  C   UNL d   1      53.299  29.719  53.429  0.00  0.00     0.007 A 
ATOM     21 BR   UNL d   1      53.008  28.719  54.433  0.00  0.00    -0.049 Br
ATOM     22  C   UNL d   1      53.516  30.488  53.232  0.00  0.00     0.005 A 
ENDBRANCH  14  16
ENDBRANCH   1  13
TORSDOF 3
ENDMDL
