MODEL 1
REMARK VINA RESULT:      -7.9      0.000      0.000
REMARK  4 active torsions:
REMARK  status: ('A' for Active; 'I' for Inactive)
REMARK       I    between atoms: N_3  and  C_1 
REMARK    1  A    between atoms: C_4  and  C_1 
REMARK    2  A    between atoms: N_2  and  C_4 
REMARK    3  A    between atoms: C_6  and  N_3 
REMARK    4  A    between atoms: O_17  and  C_9 
ROOT
ATOM      1  C   UNL d   1      52.769  32.665  53.167  0.00  0.00     0.297 C 
ATOM      2  N   UNL d   1      52.942  32.013  52.688  0.00  0.00    -0.207 NA
ATOM      3  O   UNL d   1      52.686  32.564  53.979  0.00  0.00    -0.264 OA
ENDROOT
BRANCH   1   4
ATOM      4  C   UNL d   1      52.682  33.410  52.834  0.00  0.00     0.144 C 
BRANCH   4   5
ATOM      5  N   UNL d   1      51.926  33.764  52.794  0.00  0.00    -0.299 N 
ATOM      6  C   UNL d   1      51.512  33.788  52.068  0.00  0.00     0.080 A 
ATOM      7  C   UNL d   1      50.763  34.136  52.021  0.00  0.00     0.019 A 
ATOM      8  C   UNL d   1      50.415  34.469  52.706  0.00  0.00     0.003 A 
ATOM      9  C   UNL d   1      50.825  34.448  53.440  0.00  0.00     0.019 A 
ATOM     10  C   UNL d   1      49.670  34.816  52.663  0.00  0.00     0.000 C 
ATOM     11  C   UNL d   1      51.588  34.091  53.480  0.00  0.00     0.080 A 
ENDBRANCH   4   5
ENDBRANCH   1   4
BRANCH   2  12
ATOM     12  C   UNL d   1      53.030  31.267  53.021  0.00  0.00     0.085 A 
ATOM     13  C   UNL d   1      53.705  31.091  53.439  0.00  0.00     0.021 A 
ATOM     14  C   UNL d   1      53.797  30.340  53.776  0.00  0.00     0.026 A 
ATOM     15  C   UNL d   1      53.205  29.776  53.686  0.00  0.00     0.094 A 
ATOM     16  C   UNL d   1      52.525  29.958  53.263  0.00  0.00     0.026 A 
ATOM     17  C   UNL d   1      52.433  30.708  52.926  0.00  0.00     0.021 A 
BRANCH  15  18
ATOM     18  O   UNL d   1      53.289  29.028  54.018  0.00  0.00    -0.328 OA
ATOM     19  C   UNL d   1      53.312  28.937  54.836  0.00  0.00     0.181 C 
ENDBRANCH  15  18
ENDBRANCH   2  12
TORSDOF 4
ENDMDL
MODEL 2
REMARK VINA RESULT:      -7.7      1.483      4.484
REMARK  4 active torsions:
REMARK  status: ('A' for Active; 'I' for Inactive)
REMARK       I    between atoms: N_3  and  C_1 
REMARK    1  A    between atoms: C_4  and  C_1 
REMARK    2  A    between atoms: N_2  and  C_4 
REMARK    3  A    between atoms: C_6  and  N_3 
REMARK    4  A    between atoms: O_17  and  C_9 
ROOT
ATOM      1  C   UNL d   1      52.701  32.150  52.986  0.00  0.00     0.297 C 
ATOM      2  N   UNL d   1      53.253  32.766  52.961  0.00  0.00    -0.207 NA
ATOM      3  O   UNL d   1      51.978  32.264  53.361  0.00  0.00    -0.264 OA
ENDROOT
BRANCH   1   4
ATOM      4  C   UNL d   1      52.875  31.427  52.639  0.00  0.00     0.144 C 
BRANCH   4   5
ATOM      5  N   UNL d   1      52.989  30.751  53.116  0.00  0.00    -0.299 N 
ATOM      6  C   UNL d   1      53.741  30.590  53.443  0.00  0.00     0.080 A 
ATOM      7  C   UNL d   1      53.861  29.922  53.917  0.00  0.00     0.019 A 
ATOM      8  C   UNL d   1      53.224  29.401  54.070  0.00  0.00     0.003 A 
ATOM      9  C   UNL d   1      52.464  29.556  53.744  0.00  0.00     0.019 A 
ATOM     10  C   UNL d   1      53.339  28.736  54.541  0.00  0.00     0.000 C 
ATOM     11  C   UNL d   1      52.350  30.238  53.263  0.00  0.00     0.080 A 
ENDBRANCH   4   5
ENDBRANCH   1   4
BRANCH   2  12
ATOM     12  C   UNL d   1      53.079  33.490  53.308  0.00  0.00     0.085 A 
ATOM     13  C   UNL d   1      53.379  33.665  54.044  0.00  0.00     0.021 A 
ATOM     14  C   UNL d   1      53.206  34.393  54.398  0.00  0.00     0.026 A 
ATOM     15  C   UNL d   1      52.732  34.937  54.002  0.00  0.00     0.094 A 
ATOM     16  C   UNL d   1      52.432  34.757  53.259  0.00  0.00     0.026 A 
ATOM     17  C   UNL d   1      52.605  34.029  52.906  0.00  0.00     0.021 A 
BRANCH  15  18
ATOM     18  O   UNL d   1      52.556  35.663  54.347  0.00  0.00    -0.328 OA
ATOM     19  C   UNL d   1      53.139  36.084  54.747  0.00  0.00     0.181 C 
ENDBRANCH  15  18
ENDBRANCH   2  12
TORSDOF 4
ENDMDL
MODEL 3
REMARK VINA RESULT:      -7.6      1.216      4.532
REMARK  4 active torsions:
REMARK  status: ('A' for Active; 'I' for Inactive)
REMARK       I    between atoms: N_3  and  C_1 
REMARK    1  A    between atoms: C_4  and  C_1 
REMARK    2  A    between atoms: N_2  and  C_4 
REMARK    3  A    between atoms: C_6  and  N_3 
REMARK    4  A    between atoms: O_17  and  C_9 
ROOT
ATOM      1  C   UNL d   1      52.804  32.341  52.910  0.00  0.00     0.297 C 
ATOM      2  N   UNL d   1      52.601  33.041  53.300  0.00  0.00    -0.207 NA
ATOM      3  O   UNL d   1      52.326  32.057  52.303  0.00  0.00    -0.264 OA
ENDROOT
BRANCH   1   4
ATOM      4  C   UNL d   1      53.481  31.929  53.126  0.00  0.00     0.144 C 
BRANCH   4   5
ATOM      5  N   UNL d   1      53.419  31.160  53.445  0.00  0.00    -0.299 N 
ATOM      6  C   UNL d   1      53.531  31.034  54.264  0.00  0.00     0.080 A 
ATOM      7  C   UNL d   1      53.471  30.275  54.587  0.00  0.00     0.019 A 
ATOM      8  C   UNL d   1      53.295  29.624  54.089  0.00  0.00     0.003 A 
ATOM      9  C   UNL d   1      53.180  29.743  53.265  0.00  0.00     0.019 A 
ATOM     10  C   UNL d   1      53.234  28.867  54.407  0.00  0.00     0.000 C 
ATOM     11  C   UNL d   1      53.243  30.519  52.943  0.00  0.00     0.080 A 
ENDBRANCH   4   5
ENDBRANCH   1   4
BRANCH   2  12
ATOM     12  C   UNL d   1      51.924  33.453  53.083  0.00  0.00     0.085 A 
ATOM     13  C   UNL d   1      51.965  34.012  52.493  0.00  0.00     0.021 A 
ATOM     14  C   UNL d   1      51.284  34.429  52.272  0.00  0.00     0.026 A 
ATOM     15  C   UNL d   1      50.570  34.275  52.651  0.00  0.00     0.094 A 
ATOM     16  C   UNL d   1      50.533  33.710  53.246  0.00  0.00     0.026 A 
ATOM     17  C   UNL d   1      51.213  33.294  53.466  0.00  0.00     0.021 A 
BRANCH  15  18
ATOM     18  O   UNL d   1      49.890  34.685  52.436  0.00  0.00    -0.328 OA
ATOM     19  C   UNL d   1      49.462  34.460  51.770  0.00  0.00     0.181 C 
ENDBRANCH  15  18
ENDBRANCH   2  12
TORSDOF 4
ENDMDL
MODEL 4
REMARK VINA RESULT:      -6.9      1.859      4.510
REMARK  4 active torsions:
REMARK  status: ('A' for Active; 'I' for Inactive)
REMARK       I    between atoms: N_3  and  C_1 
REMARK    1  A    between atoms: C_4  and  C_1 
REMARK    2  A    between atoms: N_2  and  C_4 
REMARK    3  A    between atoms: C_6  and  N_3 
REMARK    4  A    between atoms: O_17  and  C_9 
ROOT
ATOM      1  C   UNL d   1      52.350  33.138  52.883  0.00  0.00     0.297 C 
ATOM      2  N   UNL d   1      52.149  33.854  52.520  0.00  0.00    -0.207 NA
ATOM      3  O   UNL d   1      51.758  32.655  53.190  0.00  0.00    -0.264 OA
ENDROOT
BRANCH   1   4
ATOM      4  C   UNL d   1      53.137  32.910  52.938  0.00  0.00     0.144 C 
BRANCH   4   5
ATOM      5  N   UNL d   1      53.556  33.022  53.652  0.00  0.00    -0.299 N 
ATOM      6  C   UNL d   1      54.010  33.714  53.768  0.00  0.00     0.080 A 
ATOM      7  C   UNL d   1      54.428  33.832  54.472  0.00  0.00     0.019 A 
ATOM      8  C   UNL d   1      54.396  33.252  55.076  0.00  0.00     0.003 A 
ATOM      9  C   UNL d   1      53.941  32.554  54.967  0.00  0.00     0.019 A 
ATOM     10  C   UNL d   1      54.810  33.366  55.778  0.00  0.00     0.000 C 
ATOM     11  C   UNL d   1      53.518  32.441  54.247  0.00  0.00     0.080 A 
ENDBRANCH   4   5
ENDBRANCH   1   4
BRANCH   2  12
ATOM     12  C   UNL d   1      51.362  34.082  52.465  0.00  0.00     0.085 A 
ATOM     13  C   UNL d   1      50.958  33.971  51.767  0.00  0.00     0.021 A 
ATOM     14  C   UNL d   1      50.165  34.200  51.708  0.00  0.00     0.026 A 
ATOM     15  C   UNL d   1      49.788  34.539  52.356  0.00  0.00     0.094 A 
ATOM     16  C   UNL d   1      50.199  34.650  53.059  0.00  0.00     0.026 A 
ATOM     17  C   UNL d   1      50.992  34.421  53.117  0.00  0.00     0.021 A 
BRANCH  15  18
ATOM     18  O   UNL d   1      49.000  34.769  52.305  0.00  0.00    -0.328 OA
ATOM     19  C   UNL d   1      48.647  34.880  51.570  0.00  0.00     0.181 C 
ENDBRANCH  15  18
ENDBRANCH   2  12
TORSDOF 4
ENDMDL
