MODEL 1
REMARK VINA RESULT:      23.6      0.000      0.000
REMARK  2 active torsions:
REMARK  status: ('A' for Active; 'I' for Inactive)
REMARK    1  A    between atoms: C_2  and  C_1 
REMARK    2  A    between atoms: C_14  and  C_8 
ROOT
ATOM      1  C   UNL d   1      46.266 -18.045  43.644  0.00  0.00     0.106 A 
ATOM      2  C   UNL d   1      46.322 -18.719  44.102  0.00  0.00     0.304 A 
ATOM      3  C   UNL d   1      46.321 -18.109  42.820  0.00  0.00     0.011 A 
ATOM      4  C   UNL d   1      46.429 -18.836  42.462  0.00  0.00     0.023 A 
ATOM      5  O   UNL d   1      46.433 -19.483  43.756  0.00  0.00    -0.273 OA
ATOM      6  C   UNL d   1      46.484 -19.510  42.921  0.00  0.00     0.103 A 
ATOM      7  C   UNL d   1      46.483 -18.900  41.639  0.00  0.00     0.002 A 
ATOM      8  O   UNL d   1      46.265 -18.650  44.953  0.00  0.00    -0.259 OA
ATOM      9  C   UNL d   1      46.596 -20.274  42.574  0.00  0.00     0.025 A 
ATOM     10  C   UNL d   1      46.592 -19.630  41.277  0.00  0.00     0.000 A 
ATOM     11  C   UNL d   1      46.647 -20.304  41.735  0.00  0.00     0.002 A 
ATOM     12  C   UNL d   1      46.427 -18.213  41.171  0.00  0.00     0.000 A 
ATOM     13  C   UNL d   1      46.646 -19.694  40.453  0.00  0.00     0.000 A 
ATOM     14  C   UNL d   1      46.480 -18.269  40.350  0.00  0.00     0.000 A 
ATOM     15  C   UNL d   1      46.592 -19.015  39.973  0.00  0.00     0.000 A 
ENDROOT
BRANCH   1  16
ATOM     16  C   UNL d   1      46.157 -17.312  44.011  0.00  0.00     0.210 A 
ATOM     17  O   UNL d   1      45.785 -16.635  43.720  0.00  0.00    -0.268 OA
ATOM     18  C   UNL d   1      45.829 -16.064  44.307  0.00  0.00     0.204 A 
ATOM     19  N   UNL d   1      46.221 -16.377  44.951  0.00  0.00    -0.121 NA
ATOM     20  N   UNL d   1      46.428 -17.150  44.777  0.00  0.00    -0.121 NA
BRANCH  18  21
ATOM     21  C   UNL d   1      45.555 -15.294  44.321  0.00  0.00     0.043 A 
ATOM     22  C   UNL d   1      44.918 -15.095  44.787  0.00  0.00     0.004 A 
ATOM     23  C   UNL d   1      44.636 -14.317  44.805  0.00  0.00     0.000 A 
ATOM     24  C   UNL d   1      44.998 -13.746  44.356  0.00  0.00     0.000 A 
ATOM     25  C   UNL d   1      45.642 -13.953  43.887  0.00  0.00     0.000 A 
ATOM     26  C   UNL d   1      45.921 -14.722  43.868  0.00  0.00     0.004 A 
ENDBRANCH  18  21
ENDBRANCH   1  16
TORSDOF 2
ENDMDL
MODEL 2
REMARK VINA RESULT:      26.6      0.964      5.029
REMARK  2 active torsions:
REMARK  status: ('A' for Active; 'I' for Inactive)
REMARK    1  A    between atoms: C_2  and  C_1 
REMARK    2  A    between atoms: C_14  and  C_8 
ROOT
ATOM      1  C   UNL d   1      45.410 -16.064  44.239  0.00  0.00     0.106 A 
ATOM      2  C   UNL d   1      44.740 -16.110  44.705  0.00  0.00     0.304 A 
ATOM      3  C   UNL d   1      45.685 -15.323  43.996  0.00  0.00     0.011 A 
ATOM      4  C   UNL d   1      45.297 -14.638  44.216  0.00  0.00     0.023 A 
ATOM      5  O   UNL d   1      44.320 -15.416  44.946  0.00  0.00    -0.273 OA
ATOM      6  C   UNL d   1      44.627 -14.683  44.682  0.00  0.00     0.103 A 
ATOM      7  C   UNL d   1      45.572 -13.896  43.973  0.00  0.00     0.002 A 
ATOM      8  O   UNL d   1      44.458 -16.877  44.955  0.00  0.00    -0.259 OA
ATOM      9  C   UNL d   1      44.207 -13.989  44.923  0.00  0.00     0.025 A 
ATOM     10  C   UNL d   1      45.183 -13.206  44.193  0.00  0.00     0.000 A 
ATOM     11  C   UNL d   1      44.514 -13.252  44.659  0.00  0.00     0.002 A 
ATOM     12  C   UNL d   1      46.255 -13.850  43.498  0.00  0.00     0.000 A 
ATOM     13  C   UNL d   1      45.459 -12.465  43.950  0.00  0.00     0.000 A 
ATOM     14  C   UNL d   1      46.535 -13.114  43.252  0.00  0.00     0.000 A 
ATOM     15  C   UNL d   1      46.140 -12.403  43.474  0.00  0.00     0.000 A 
ENDROOT
BRANCH   1  16
ATOM     16  C   UNL d   1      45.799 -16.760  44.019  0.00  0.00     0.210 A 
ATOM     17  O   UNL d   1      45.690 -17.227  43.347  0.00  0.00    -0.268 OA
ATOM     18  C   UNL d   1      46.217 -17.853  43.399  0.00  0.00     0.204 A 
ATOM     19  N   UNL d   1      46.647 -17.779  44.090  0.00  0.00    -0.121 NA
ATOM     20  N   UNL d   1      46.395 -17.104  44.481  0.00  0.00    -0.121 NA
BRANCH  18  21
ATOM     21  C   UNL d   1      46.350 -18.481  42.893  0.00  0.00     0.043 A 
ATOM     22  C   UNL d   1      46.341 -19.243  43.175  0.00  0.00     0.004 A 
ATOM     23  C   UNL d   1      46.476 -19.882  42.665  0.00  0.00     0.000 A 
ATOM     24  C   UNL d   1      46.618 -19.747  41.878  0.00  0.00     0.000 A 
ATOM     25  C   UNL d   1      46.625 -18.972  41.598  0.00  0.00     0.000 A 
ATOM     26  C   UNL d   1      46.493 -18.341  42.100  0.00  0.00     0.004 A 
ENDBRANCH  18  21
ENDBRANCH   1  16
TORSDOF 2
ENDMDL
