MODEL 1
REMARK VINA RESULT:      -2.7      0.000      0.000
REMARK  5 active torsions:
REMARK  status: ('A' for Active; 'I' for Inactive)
REMARK    1  A    between atoms: N_2  and  C_7 
REMARK    2  A    between atoms: N_8  and  C_3 
REMARK    3  A    between atoms: C_11  and  C_4 
REMARK    4  A    between atoms: N_9  and  N_8 
REMARK    5  A    between atoms: C_17  and  N_9 
ROOT
ATOM      1  N   UNL d   1      32.857  19.388 -22.294  0.00  0.00    -0.219 NA
ATOM      2  C   UNL d   1      33.079  20.187 -22.343  0.00  0.00     0.215 A 
ATOM      3  C   UNL d   1      32.889  19.071 -23.073  0.00  0.00     0.090 A 
ATOM      4  S   UNL d   1      33.241  20.353 -23.122  0.00  0.00    -0.045 SA
ATOM      5  C   UNL d   1      33.125  19.667 -23.575  0.00  0.00     0.058 A 
ENDROOT
BRANCH   3   6
ATOM      6  C   UNL d   1      32.702  18.276 -23.250  0.00  0.00     0.018 A 
ATOM      7  C   UNL d   1      33.237  17.680 -23.077  0.00  0.00     0.003 A 
ATOM      8  C   UNL d   1      33.066  16.911 -23.244  0.00  0.00     0.024 A 
ATOM      9  C   UNL d   1      32.337  16.720 -23.596  0.00  0.00     0.127 A 
ATOM     10  C   UNL d   1      31.805  17.305 -23.769  0.00  0.00     0.024 A 
ATOM     11  C   UNL d   1      31.988  18.110 -23.592  0.00  0.00     0.003 A 
BRANCH   9  12
ATOM     12  N   UNL d   1      32.149  15.947 -23.771  0.00  0.00    -0.114 N 
ATOM     13  O   UNL d   1      31.708  15.453 -23.289  0.00  0.00    -0.532 OA
ATOM     14  O   UNL d   1      32.383  15.582 -24.449  0.00  0.00    -0.532 OA
ENDBRANCH   9  12
ENDBRANCH   3   6
BRANCH   2  15
ATOM     15  N   UNL d   1      33.137  20.751 -21.722  0.00  0.00    -0.122 NA
BRANCH  15  16
ATOM     16  N   UNL d   1      32.438  21.027 -21.369  0.00  0.00    -0.146 NA
BRANCH  16  17
ATOM     17  C   UNL d   1      32.488  21.659 -20.818  0.00  0.00     0.103 C 
ATOM     18  C   UNL d   1      32.914  21.546 -20.117  0.00  0.00     0.022 C 
ATOM     19  C   UNL d   1      32.118  22.380 -20.975  0.00  0.00     0.022 C 
ENDBRANCH  16  17
ENDBRANCH  15  16
ENDBRANCH   2  15
TORSDOF 5
ENDMDL
MODEL 2
REMARK VINA RESULT:      -2.7      2.812      4.123
REMARK  5 active torsions:
REMARK  status: ('A' for Active; 'I' for Inactive)
REMARK    1  A    between atoms: N_2  and  C_7 
REMARK    2  A    between atoms: N_8  and  C_3 
REMARK    3  A    between atoms: C_11  and  C_4 
REMARK    4  A    between atoms: N_9  and  N_8 
REMARK    5  A    between atoms: C_17  and  N_9 
ROOT
ATOM      1  N   UNL d   1      32.998  22.419 -19.742  0.00  0.00    -0.219 NA
ATOM      2  C   UNL d   1      32.875  23.205 -19.506  0.00  0.00     0.215 A 
ATOM      3  C   UNL d   1      32.884  22.385 -20.575  0.00  0.00     0.090 A 
ATOM      4  S   UNL d   1      32.693  23.638 -20.169  0.00  0.00    -0.045 SA
ATOM      5  C   UNL d   1      32.697  23.136 -20.830  0.00  0.00     0.058 A 
ENDROOT
BRANCH   3   6
ATOM      6  C   UNL d   1      32.960  21.682 -21.018  0.00  0.00     0.018 A 
ATOM      7  C   UNL d   1      33.009  20.958 -20.635  0.00  0.00     0.003 A 
ATOM      8  C   UNL d   1      33.083  20.274 -21.054  0.00  0.00     0.024 A 
ATOM      9  C   UNL d   1      33.109  20.303 -21.885  0.00  0.00     0.127 A 
ATOM     10  C   UNL d   1      33.060  21.015 -22.268  0.00  0.00     0.024 A 
ATOM     11  C   UNL d   1      32.983  21.730 -21.825  0.00  0.00     0.003 A 
BRANCH   9  12
ATOM     12  N   UNL d   1      33.182  19.620 -22.323  0.00  0.00    -0.114 N 
ATOM     13  O   UNL d   1      33.222  18.865 -22.008  0.00  0.00    -0.532 OA
ATOM     14  O   UNL d   1      33.225  19.617 -23.127  0.00  0.00    -0.532 OA
ENDBRANCH   9  12
ENDBRANCH   3   6
BRANCH   2  15
ATOM     15  N   UNL d   1      32.922  23.531 -18.733  0.00  0.00    -0.122 NA
BRANCH  15  16
ATOM     16  N   UNL d   1      32.530  23.142 -18.113  0.00  0.00    -0.146 NA
BRANCH  16  17
ATOM     17  C   UNL d   1      32.529  23.497 -17.351  0.00  0.00     0.103 C 
ATOM     18  C   UNL d   1      31.804  23.647 -16.980  0.00  0.00     0.022 C 
ATOM     19  C   UNL d   1      33.241  23.692 -16.980  0.00  0.00     0.022 C 
ENDBRANCH  16  17
ENDBRANCH  15  16
ENDBRANCH   2  15
TORSDOF 5
ENDMDL
MODEL 3
REMARK VINA RESULT:      -2.5      2.790      4.887
REMARK  5 active torsions:
REMARK  status: ('A' for Active; 'I' for Inactive)
REMARK    1  A    between atoms: N_2  and  C_7 
REMARK    2  A    between atoms: N_8  and  C_3 
REMARK    3  A    between atoms: C_11  and  C_4 
REMARK    4  A    between atoms: N_9  and  N_8 
REMARK    5  A    between atoms: C_17  and  N_9 
ROOT
ATOM      1  N   UNL d   1      32.864  18.986 -22.336  0.00  0.00    -0.219 NA
ATOM      2  C   UNL d   1      32.996  18.567 -23.041  0.00  0.00     0.215 A 
ATOM      3  C   UNL d   1      33.021  19.798 -22.494  0.00  0.00     0.090 A 
ATOM      4  S   UNL d   1      33.225  19.101 -23.609  0.00  0.00    -0.045 SA
ATOM      5  C   UNL d   1      33.241  19.861 -23.275  0.00  0.00     0.058 A 
ENDROOT
BRANCH   3   6
ATOM      6  C   UNL d   1      32.949  20.397 -21.917  0.00  0.00     0.018 A 
ATOM      7  C   UNL d   1      32.589  21.109 -22.107  0.00  0.00     0.003 A 
ATOM      8  C   UNL d   1      32.515  21.693 -21.557  0.00  0.00     0.024 A 
ATOM      9  C   UNL d   1      32.807  21.572 -20.788  0.00  0.00     0.127 A 
ATOM     10  C   UNL d   1      33.162  20.870 -20.595  0.00  0.00     0.024 A 
ATOM     11  C   UNL d   1      33.238  20.260 -21.175  0.00  0.00     0.003 A 
BRANCH   9  12
ATOM     12  N   UNL d   1      32.739  22.152 -20.221  0.00  0.00    -0.114 N 
ATOM     13  O   UNL d   1      33.241  22.240 -19.579  0.00  0.00    -0.532 OA
ATOM     14  O   UNL d   1      32.160  22.711 -20.232  0.00  0.00    -0.532 OA
ENDBRANCH   9  12
ENDBRANCH   3   6
BRANCH   2  15
ATOM     15  N   UNL d   1      32.918  17.742 -23.179  0.00  0.00    -0.122 NA
BRANCH  15  16
ATOM     16  N   UNL d   1      32.288  17.475 -23.650  0.00  0.00    -0.146 NA
BRANCH  16  17
ATOM     17  C   UNL d   1      32.149  16.648 -23.706  0.00  0.00     0.103 C 
ATOM     18  C   UNL d   1      31.406  16.352 -23.489  0.00  0.00     0.022 C 
ATOM     19  C   UNL d   1      32.743  16.141 -23.973  0.00  0.00     0.022 C 
ENDBRANCH  16  17
ENDBRANCH  15  16
ENDBRANCH   2  15
TORSDOF 5
ENDMDL
MODEL 4
REMARK VINA RESULT:      -1.8      1.162      1.622
REMARK  5 active torsions:
REMARK  status: ('A' for Active; 'I' for Inactive)
REMARK    1  A    between atoms: N_2  and  C_7 
REMARK    2  A    between atoms: N_8  and  C_3 
REMARK    3  A    between atoms: C_11  and  C_4 
REMARK    4  A    between atoms: N_9  and  N_8 
REMARK    5  A    between atoms: C_17  and  N_9 
ROOT
ATOM      1  N   UNL d   1      33.212  20.548 -21.715  0.00  0.00    -0.219 NA
ATOM      2  C   UNL d   1      33.228  21.378 -21.708  0.00  0.00     0.215 A 
ATOM      3  C   UNL d   1      33.215  20.303 -22.520  0.00  0.00     0.090 A 
ATOM      4  S   UNL d   1      33.241  21.633 -22.480  0.00  0.00    -0.045 SA
ATOM      5  C   UNL d   1      33.233  20.973 -22.983  0.00  0.00     0.058 A 
ENDROOT
BRANCH   3   6
ATOM      6  C   UNL d   1      33.202  19.501 -22.754  0.00  0.00     0.018 A 
ATOM      7  C   UNL d   1      33.151  19.306 -23.548  0.00  0.00     0.003 A 
ATOM      8  C   UNL d   1      33.137  18.536 -23.783  0.00  0.00     0.024 A 
ATOM      9  C   UNL d   1      33.176  17.932 -23.212  0.00  0.00     0.127 A 
ATOM     10  C   UNL d   1      33.226  18.120 -22.426  0.00  0.00     0.024 A 
ATOM     11  C   UNL d   1      33.240  18.929 -22.184  0.00  0.00     0.003 A 
BRANCH   9  12
ATOM     12  N   UNL d   1      33.163  17.148 -23.434  0.00  0.00    -0.114 N 
ATOM     13  O   UNL d   1      33.076  16.518 -22.918  0.00  0.00    -0.532 OA
ATOM     14  O   UNL d   1      33.237  16.907 -24.199  0.00  0.00    -0.532 OA
ENDBRANCH   9  12
ENDBRANCH   3   6
BRANCH   2  15
ATOM     15  N   UNL d   1      33.232  21.894 -21.045  0.00  0.00    -0.122 NA
BRANCH  15  16
ATOM     16  N   UNL d   1      32.537  22.312 -20.862  0.00  0.00    -0.146 NA
BRANCH  16  17
ATOM     17  C   UNL d   1      32.557  22.870 -20.234  0.00  0.00     0.103 C 
ATOM     18  C   UNL d   1      32.194  23.607 -20.343  0.00  0.00     0.022 C 
ATOM     19  C   UNL d   1      32.932  22.685 -19.522  0.00  0.00     0.022 C 
ENDBRANCH  16  17
ENDBRANCH  15  16
ENDBRANCH   2  15
TORSDOF 5
ENDMDL
MODEL 5
REMARK VINA RESULT:      -1.5      4.361      6.685
REMARK  5 active torsions:
REMARK  status: ('A' for Active; 'I' for Inactive)
REMARK    1  A    between atoms: N_2  and  C_7 
REMARK    2  A    between atoms: N_8  and  C_3 
REMARK    3  A    between atoms: C_11  and  C_4 
REMARK    4  A    between atoms: N_9  and  N_8 
REMARK    5  A    between atoms: C_17  and  N_9 
ROOT
ATOM      1  N   UNL d   1      32.711  22.435 -20.014  0.00  0.00    -0.219 NA
ATOM      2  C   UNL d   1      32.777  22.675 -20.806  0.00  0.00     0.215 A 
ATOM      3  C   UNL d   1      32.951  23.083 -19.534  0.00  0.00     0.090 A 
ATOM      4  S   UNL d   1      33.046  23.442 -20.812  0.00  0.00    -0.045 SA
ATOM      5  C   UNL d   1      33.154  23.697 -20.029  0.00  0.00     0.058 A 
ENDROOT
BRANCH   3   6
ATOM      6  C   UNL d   1      32.961  23.054 -18.700  0.00  0.00     0.018 A 
ATOM      7  C   UNL d   1      32.699  23.697 -18.263  0.00  0.00     0.003 A 
ATOM      8  C   UNL d   1      32.705  23.678 -17.458  0.00  0.00     0.024 A 
ATOM      9  C   UNL d   1      32.979  22.998 -17.065  0.00  0.00     0.127 A 
ATOM     10  C   UNL d   1      33.238  22.360 -17.492  0.00  0.00     0.024 A 
ATOM     11  C   UNL d   1      33.231  22.384 -18.336  0.00  0.00     0.003 A 
BRANCH   9  12
ATOM     12  N   UNL d   1      32.991  22.963 -16.252  0.00  0.00    -0.114 N 
ATOM     13  O   UNL d   1      33.032  22.272 -15.813  0.00  0.00    -0.532 OA
ATOM     14  O   UNL d   1      32.963  23.618 -15.784  0.00  0.00    -0.532 OA
ENDBRANCH   9  12
ENDBRANCH   3   6
BRANCH   2  15
ATOM     15  N   UNL d   1      32.605  22.234 -21.501  0.00  0.00    -0.122 NA
BRANCH  15  16
ATOM     16  N   UNL d   1      33.206  21.767 -21.834  0.00  0.00    -0.146 NA
BRANCH  16  17
ATOM     17  C   UNL d   1      33.057  21.382 -22.566  0.00  0.00     0.103 C 
ATOM     18  C   UNL d   1      33.232  21.781 -23.271  0.00  0.00     0.022 C 
ATOM     19  C   UNL d   1      32.741  20.620 -22.581  0.00  0.00     0.022 C 
ENDBRANCH  16  17
ENDBRANCH  15  16
ENDBRANCH   2  15
TORSDOF 5
ENDMDL
