MODEL 1
REMARK VINA RESULT:      -6.2      0.000      0.000
REMARK  3 active torsions:
REMARK  status: ('A' for Active; 'I' for Inactive)
REMARK    1  A    between atoms: C_8  and  C_2 
REMARK    2  A    between atoms: O_11  and  C_8 
REMARK    3  A    between atoms: C_12  and  O_11 
ROOT
ATOM      1  O   UNL d   1     -41.460-123.273 -52.037  0.00  0.00    -0.302 OA
ENDROOT
BRANCH   1   2
ATOM      2  C   UNL d   1     -41.565-122.635 -51.519  0.00  0.00     0.161 C 
BRANCH   2   3
ATOM      3  C   UNL d   1     -41.702-122.774 -50.717  0.00  0.00     0.188 A 
ATOM      4  N   UNL d   1     -41.123-123.034 -50.156  0.00  0.00    -0.224 NA
ATOM      5  C   UNL d   1     -41.489-123.101 -49.438  0.00  0.00     0.101 A 
ATOM      6  C   UNL d   1     -42.309-122.882 -49.541  0.00  0.00     0.101 A 
ATOM      7  C   UNL d   1     -41.245-123.324 -48.672  0.00  0.00     0.021 A 
ATOM      8  C   UNL d   1     -42.823-122.897 -48.897  0.00  0.00     0.021 A 
ATOM      9  N   UNL d   1     -42.416-122.689 -50.317  0.00  0.00    -0.224 NA
ATOM     10  C   UNL d   1     -42.547-123.123 -48.153  0.00  0.00     0.002 A 
ATOM     11  C   UNL d   1     -41.754-123.335 -48.054  0.00  0.00     0.002 A 
ENDBRANCH   2   3
ENDBRANCH   1   2
BRANCH   1  12
ATOM     12  C   UNL d   1     -41.493-123.122 -52.848  0.00  0.00     0.100 A 
ATOM     13  C   UNL d   1     -41.853-122.473 -53.156  0.00  0.00     0.025 A 
ATOM     14  C   UNL d   1     -41.872-122.346 -53.970  0.00  0.00     0.002 A 
ATOM     15  C   UNL d   1     -42.257-121.656 -54.272  0.00  0.00     0.000 A 
ATOM     16  C   UNL d   1     -41.529-122.868 -54.478  0.00  0.00     0.000 A 
ATOM     17  C   UNL d   1     -42.276-121.529 -55.087  0.00  0.00     0.000 A 
ATOM     18  C   UNL d   1     -41.909-122.087 -55.630  0.00  0.00     0.000 A 
ATOM     19  C   UNL d   1     -41.548-122.741 -55.293  0.00  0.00     0.000 A 
ATOM     20  C   UNL d   1     -41.141-123.563 -54.177  0.00  0.00     0.002 A 
ATOM     21  C   UNL d   1     -41.123-123.690 -53.362  0.00  0.00     0.025 A 
ENDBRANCH   1  12
TORSDOF 3
ENDMDL
