MODEL 1
REMARK VINA RESULT:      11.8      0.000      0.000
REMARK  2 active torsions:
REMARK  status: ('A' for Active; 'I' for Inactive)
REMARK    1  A    between atoms: CA_2  and  C_1 
REMARK    2  A    between atoms: C_3  and  CA_2 
ROOT
ATOM      1  C   UNL d   1     -55.197-102.335 -37.341  0.00  0.00     0.025 A 
ATOM      2  C   UNL d   1     -55.712-102.856 -37.715  0.00  0.00     0.002 A 
ATOM      3  C   UNL d   1     -54.711-101.835 -37.791  0.00  0.00     0.002 A 
ATOM      4  C   UNL d   1     -55.746-102.880 -38.538  0.00  0.00     0.000 A 
ATOM      5  C   UNL d   1     -54.745-101.859 -38.613  0.00  0.00     0.000 A 
ATOM      6  C   UNL d   1     -55.260-102.380 -38.988  0.00  0.00     0.000 A 
ATOM      7  C   UNL d   1     -55.295-102.405 -39.813  0.00  0.00     0.000 C 
ENDROOT
BRANCH   1   8
ATOM      8  CA  UNL d   1     -55.167-102.315 -36.514  0.00  0.00     0.167 C 
ATOM      9  N   UNL d   1     -54.711-102.875 -36.104  0.00  0.00    -0.142 N 
BRANCH   8  10
ATOM     10  C   UNL d   1     -55.588-101.743 -36.094  0.00  0.00     0.231 C 
ATOM     11  O   UNL d   1     -56.236-101.965 -35.630  0.00  0.00    -0.643 OA
ATOM     12  OXT UNL d   1     -55.364-100.952 -36.135  0.00  0.00    -0.643 OA
ENDBRANCH   8  10
ENDBRANCH   1   8
TORSDOF 2
ENDMDL
