MODEL 1
REMARK VINA RESULT:      76.7      0.000      0.000
REMARK  2 active torsions:
REMARK  status: ('A' for Active; 'I' for Inactive)
REMARK    1  A    between atoms: C_10  and  C_4 
REMARK       I    between atoms: N_12  and  C_10 
REMARK       I    between atoms: C_11  and  N_13 
REMARK    2  A    between atoms: C_14  and  C_11 
ROOT
ATOM      1  C   UNL d   1     -54.779-100.664 -37.996  0.00  0.00     0.154 A 
ATOM      2  C   UNL d   1     -54.749-101.411 -38.339  0.00  0.00     0.093 A 
ATOM      3  N   UNL d   1     -54.801-100.590 -37.166  0.00  0.00    -0.211 NA
ATOM      4  C   UNL d   1     -54.750-100.505 -39.320  0.00  0.00     0.122 A 
ATOM      5  N   UNL d   1     -54.779-100.106 -38.599  0.00  0.00    -0.285 N 
ATOM      6  C   UNL d   1     -54.742-102.090 -37.864  0.00  0.00     0.269 A 
ATOM      7  N   UNL d   1     -54.764-102.020 -37.045  0.00  0.00    -0.259 N 
ATOM      8  C   UNL d   1     -54.794-101.264 -36.689  0.00  0.00     0.140 A 
ATOM      9  C   UNL d   1     -54.732-101.313 -39.153  0.00  0.00     0.030 A 
ATOM     10  C   UNL d   1     -54.757-102.694 -36.569  0.00  0.00     0.084 A 
ATOM     11  O   UNL d   1     -54.713-102.840 -38.213  0.00  0.00    -0.266 OA
ATOM     12  C   UNL d   1     -54.816-101.191 -35.879  0.00  0.00     0.064 A 
ATOM     13  C   UNL d   1     -54.780-102.616 -35.751  0.00  0.00     0.018 A 
ATOM     14  C   UNL d   1     -54.810-101.856 -35.402  0.00  0.00    -0.008 A 
ATOM     15  C   UNL d   1     -54.805 -99.284 -38.497  0.00  0.00     0.101 C 
ENDROOT
BRANCH   4  16
ATOM     16  C   UNL d   1     -54.742-100.159 -40.072  0.00  0.00     0.281 C 
ATOM     17  N   UNL d   1     -54.760-100.637 -40.743  0.00  0.00    -0.268 N 
ATOM     18  C   UNL d   1     -54.751-100.291 -41.495  0.00  0.00     0.102 A 
ATOM     19  C   UNL d   1     -54.788-101.457 -40.670  0.00  0.00     0.102 A 
ATOM     20  C   UNL d   1     -54.770-100.766 -42.173  0.00  0.00     0.102 A 
ATOM     21  N   UNL d   1     -54.797-101.584 -42.094  0.00  0.00    -0.267 N 
ATOM     22  C   UNL d   1     -54.816-102.060 -42.769  0.00  0.00     0.288 C 
ATOM     23  C   UNL d   1     -54.806-101.919 -41.337  0.00  0.00     0.102 A 
ATOM     24  O   UNL d   1     -54.843-102.877 -42.689  0.00  0.00    -0.264 OA
ATOM     25  O   UNL d   1     -54.714 -99.340 -40.146  0.00  0.00    -0.265 OA
BRANCH  22  26
ATOM     26  C   UNL d   1     -54.807-101.703 -43.515  0.00  0.00     0.156 A 
ATOM     27  O   UNL d   1     -54.883-100.894 -43.659  0.00  0.00    -0.300 OA
ATOM     28  C   UNL d   1     -54.845-100.770 -44.465  0.00  0.00     0.123 A 
ATOM     29  C   UNL d   1     -54.744-101.501 -44.838  0.00  0.00     0.029 A 
ATOM     30  C   UNL d   1     -54.721-102.075 -44.246  0.00  0.00     0.032 A 
ENDBRANCH  22  26
ENDBRANCH   4  16
TORSDOF 2
ENDMDL
