MODEL 1
REMARK VINA RESULT:      44.9      0.000      0.000
REMARK  3 active torsions:
REMARK  status: ('A' for Active; 'I' for Inactive)
REMARK    1  A    between atoms: C_7  and  C_1 
REMARK    2  A    between atoms: O_20  and  C_12 
REMARK    3  A    between atoms: O_22  and  C_16 
ROOT
ATOM      1  C   UNL d   1      59.298  49.697  50.759  0.00  0.00     0.062 A 
ATOM      2  C   UNL d   1      58.506  49.700  51.021  0.00  0.00     0.202 A 
ATOM      3  C   UNL d   1      57.885  49.702  50.475  0.00  0.00     0.101 A 
ATOM      4  C   UNL d   1      59.463  49.697  49.938  0.00  0.00     0.103 A 
ATOM      5  C   UNL d   1      58.053  49.701  49.655  0.00  0.00     0.109 A 
ATOM      6  O   UNL d   1      58.835  49.699  49.387  0.00  0.00    -0.307 OA
ATOM      7  C   UNL d   1      57.105  49.705  50.735  0.00  0.00     0.204 A 
ATOM      8  C   UNL d   1      57.432  49.703  49.109  0.00  0.00     0.067 A 
ATOM      9  C   UNL d   1      56.488  49.707  50.190  0.00  0.00     0.084 A 
ATOM     10  O   UNL d   1      58.344  49.701  51.830  0.00  0.00    -0.286 OA
ATOM     11  C   UNL d   1      56.651  49.706  49.382  0.00  0.00     0.201 A 
ATOM     12  O   UNL d   1      56.943  49.705  51.544  0.00  0.00    -0.286 OA
ATOM     13  C   UNL d   1      60.241  49.694  49.682  0.00  0.00     0.027 C 
ATOM     14  O   UNL d   1      56.034  49.708  48.836  0.00  0.00    -0.286 OA
ENDROOT
BRANCH   1  15
ATOM     15  C   UNL d   1      59.911  49.695  51.303  0.00  0.00     0.007 A 
ATOM     16  C   UNL d   1      60.691  49.683  51.039  0.00  0.00     0.026 A 
ATOM     17  C   UNL d   1      61.308  49.681  51.584  0.00  0.00     0.116 A 
ATOM     18  C   UNL d   1      61.144  49.691  52.401  0.00  0.00     0.116 A 
ATOM     19  C   UNL d   1      60.358  49.704  52.655  0.00  0.00     0.026 A 
ATOM     20  C   UNL d   1      59.741  49.706  52.111  0.00  0.00     0.002 A 
BRANCH  17  21
ATOM     21  O   UNL d   1      62.092  49.668  51.320  0.00  0.00    -0.326 OA
ATOM     22  C   UNL d   1      62.294  49.217  50.660  0.00  0.00     0.181 C 
ENDBRANCH  17  21
BRANCH  18  23
ATOM     23  O   UNL d   1      61.762  49.689  52.945  0.00  0.00    -0.326 OA
ATOM     24  C   UNL d   1      61.619  49.485  53.733  0.00  0.00     0.181 C 
ENDBRANCH  18  23
ENDBRANCH   1  15
TORSDOF 3
ENDMDL
