MODEL 1
REMARK VINA RESULT:      -9.5      0.000      0.000
REMARK  4 active torsions:
REMARK  status: ('A' for Active; 'I' for Inactive)
REMARK    1  A    between atoms: C_10  and  C_2 
REMARK    2  A    between atoms: C_9  and  C_4 
REMARK    3  A    between atoms: C_8  and  N_6 
REMARK    4  A    between atoms: N_7  and  C_9 
ROOT
ATOM      1  N   UNL d   1      52.528  33.793  53.580  0.00  0.00    -0.301 N 
ATOM      2  N   UNL d   1      51.148  34.026  52.710  0.00  0.00    -0.297 N 
ATOM      3  C   UNL d   1      52.477  34.417  53.042  0.00  0.00     0.100 A 
ATOM      4  C   UNL d   1      51.891  33.286  53.683  0.00  0.00     0.100 A 
ATOM      5  C   UNL d   1      51.787  34.534  52.607  0.00  0.00     0.100 A 
ATOM      6  C   UNL d   1      51.197  33.400  53.247  0.00  0.00     0.100 A 
ENDROOT
BRANCH   2   7
ATOM      7  C   UNL d   1      50.456  34.138  52.278  0.00  0.00     0.127 C 
BRANCH   7   8
ATOM      8  C   UNL d   1      49.878  34.646  52.565  0.00  0.00     0.222 A 
ATOM      9  N   UNL d   1      49.876  35.033  53.299  0.00  0.00    -0.119 NA
ATOM     10  N   UNL d   1      49.188  35.486  53.350  0.00  0.00    -0.121 NA
ATOM     11  C   UNL d   1      48.763  35.381  52.647  0.00  0.00     0.204 A 
ATOM     12  O   UNL d   1      49.187  34.864  52.162  0.00  0.00    -0.267 OA
BRANCH  11  13
ATOM     13  C   UNL d   1      48.038  35.736  52.467  0.00  0.00     0.043 A 
ATOM     14  C   UNL d   1      47.599  35.473  51.823  0.00  0.00     0.004 A 
ATOM     15  C   UNL d   1      46.875  35.828  51.644  0.00  0.00     0.000 A 
ATOM     16  C   UNL d   1      46.593  36.445  52.110  0.00  0.00     0.000 A 
ATOM     17  C   UNL d   1      47.042  36.708  52.763  0.00  0.00     0.000 A 
ATOM     18  C   UNL d   1      47.762  36.348  52.934  0.00  0.00     0.004 A 
ENDBRANCH  11  13
ENDBRANCH   7   8
ENDBRANCH   2   7
BRANCH   1  19
ATOM     19  C   UNL d   1      53.218  33.677  54.015  0.00  0.00     0.064 A 
ATOM     20  C   UNL d   1      53.748  33.083  53.796  0.00  0.00     0.020 A 
ATOM     21  C   UNL d   1      54.440  32.969  54.234  0.00  0.00     0.031 A 
ATOM     22  C   UNL d   1      54.603  33.446  54.891  0.00  0.00     0.140 A 
ATOM     23  C   UNL d   1      54.065  34.037  55.100  0.00  0.00     0.031 A 
ATOM     24  F   UNL d   1      55.279  33.366  55.354  0.00  0.00    -0.204 F 
ATOM     25  C   UNL d   1      53.375  34.153  54.665  0.00  0.00     0.020 A 
ENDBRANCH   1  19
TORSDOF 4
ENDMDL
MODEL 2
REMARK VINA RESULT:      -9.5      2.678      5.850
REMARK  4 active torsions:
REMARK  status: ('A' for Active; 'I' for Inactive)
REMARK    1  A    between atoms: C_10  and  C_2 
REMARK    2  A    between atoms: C_9  and  C_4 
REMARK    3  A    between atoms: C_8  and  N_6 
REMARK    4  A    between atoms: N_7  and  C_9 
ROOT
ATOM      1  N   UNL d   1      50.590  34.310  52.558  0.00  0.00    -0.301 N 
ATOM      2  N   UNL d   1      51.985  33.939  53.352  0.00  0.00    -0.297 N 
ATOM      3  C   UNL d   1      51.320  34.484  52.217  0.00  0.00     0.100 A 
ATOM      4  C   UNL d   1      50.557  33.951  53.296  0.00  0.00     0.100 A 
ATOM      5  C   UNL d   1      52.018  34.299  52.613  0.00  0.00     0.100 A 
ATOM      6  C   UNL d   1      51.255  33.764  53.696  0.00  0.00     0.100 A 
ENDROOT
BRANCH   2   7
ATOM      7  C   UNL d   1      52.679  33.752  53.753  0.00  0.00     0.127 C 
BRANCH   7   8
ATOM      8  C   UNL d   1      53.066  33.047  53.583  0.00  0.00     0.222 A 
ATOM      9  N   UNL d   1      53.828  32.962  53.264  0.00  0.00    -0.119 NA
ATOM     10  N   UNL d   1      53.986  32.156  53.188  0.00  0.00    -0.121 NA
ATOM     11  C   UNL d   1      53.324  31.740  53.459  0.00  0.00     0.204 A 
ATOM     12  O   UNL d   1      52.755  32.287  53.703  0.00  0.00    -0.267 OA
BRANCH  11  13
ATOM     13  C   UNL d   1      53.249  30.916  53.479  0.00  0.00     0.043 A 
ATOM     14  C   UNL d   1      53.517  30.495  54.133  0.00  0.00     0.004 A 
ATOM     15  C   UNL d   1      53.443  29.673  54.153  0.00  0.00     0.000 A 
ATOM     16  C   UNL d   1      53.101  29.275  53.519  0.00  0.00     0.000 A 
ATOM     17  C   UNL d   1      52.830  29.708  52.857  0.00  0.00     0.000 A 
ATOM     18  C   UNL d   1      52.908  30.526  52.847  0.00  0.00     0.004 A 
ENDBRANCH  11  13
ENDBRANCH   7   8
ENDBRANCH   2   7
BRANCH   1  19
ATOM     19  C   UNL d   1      49.892  34.496  52.162  0.00  0.00     0.064 A 
ATOM     20  C   UNL d   1      49.763  34.209  51.398  0.00  0.00     0.020 A 
ATOM     21  C   UNL d   1      49.062  34.397  51.003  0.00  0.00     0.031 A 
ATOM     22  C   UNL d   1      48.489  34.871  51.368  0.00  0.00     0.140 A 
ATOM     23  C   UNL d   1      48.630  35.152  52.131  0.00  0.00     0.031 A 
ATOM     24  F   UNL d   1      47.778  35.081  51.009  0.00  0.00    -0.204 F 
ATOM     25  C   UNL d   1      49.327  34.966  52.528  0.00  0.00     0.020 A 
ENDBRANCH   1  19
TORSDOF 4
ENDMDL
MODEL 3
REMARK VINA RESULT:      -8.6      2.466      3.410
REMARK  4 active torsions:
REMARK  status: ('A' for Active; 'I' for Inactive)
REMARK    1  A    between atoms: C_10  and  C_2 
REMARK    2  A    between atoms: C_9  and  C_4 
REMARK    3  A    between atoms: C_8  and  N_6 
REMARK    4  A    between atoms: N_7  and  C_9 
ROOT
ATOM      1  N   UNL d   1      53.319  31.025  53.783  0.00  0.00    -0.301 N 
ATOM      2  N   UNL d   1      53.275  32.555  53.174  0.00  0.00    -0.297 N 
ATOM      3  C   UNL d   1      53.667  31.647  54.199  0.00  0.00     0.100 A 
ATOM      4  C   UNL d   1      52.950  31.167  53.064  0.00  0.00     0.100 A 
ATOM      5  C   UNL d   1      53.644  32.412  53.895  0.00  0.00     0.100 A 
ATOM      6  C   UNL d   1      52.926  31.934  52.756  0.00  0.00     0.100 A 
ENDROOT
BRANCH   2   7
ATOM      7  C   UNL d   1      53.249  33.318  52.866  0.00  0.00     0.127 C 
BRANCH   7   8
ATOM      8  C   UNL d   1      52.580  33.780  52.984  0.00  0.00     0.222 A 
ATOM      9  N   UNL d   1      52.480  34.374  53.554  0.00  0.00    -0.119 NA
ATOM     10  N   UNL d   1      51.722  34.688  53.469  0.00  0.00    -0.121 NA
ATOM     11  C   UNL d   1      51.350  34.290  52.845  0.00  0.00     0.204 A 
ATOM     12  O   UNL d   1      51.878  33.729  52.545  0.00  0.00    -0.267 OA
BRANCH  11  13
ATOM     13  C   UNL d   1      50.583  34.433  52.574  0.00  0.00     0.043 A 
ATOM     14  C   UNL d   1      50.009  34.714  53.091  0.00  0.00     0.004 A 
ATOM     15  C   UNL d   1      49.242  34.857  52.820  0.00  0.00     0.000 A 
ATOM     16  C   UNL d   1      49.052  34.717  52.031  0.00  0.00     0.000 A 
ATOM     17  C   UNL d   1      49.639  34.432  51.509  0.00  0.00     0.000 A 
ATOM     18  C   UNL d   1      50.399  34.293  51.789  0.00  0.00     0.004 A 
ENDBRANCH  11  13
ENDBRANCH   7   8
ENDBRANCH   2   7
BRANCH   1  19
ATOM     19  C   UNL d   1      53.342  30.260  54.088  0.00  0.00     0.064 A 
ATOM     20  C   UNL d   1      53.394  29.614  53.576  0.00  0.00     0.020 A 
ATOM     21  C   UNL d   1      53.416  28.847  53.884  0.00  0.00     0.031 A 
ATOM     22  C   UNL d   1      53.386  28.724  54.703  0.00  0.00     0.140 A 
ATOM     23  C   UNL d   1      53.334  29.378  55.204  0.00  0.00     0.031 A 
ATOM     24  F   UNL d   1      53.406  27.978  55.050  0.00  0.00    -0.204 F 
ATOM     25  C   UNL d   1      53.312  30.143  54.900  0.00  0.00     0.020 A 
ENDBRANCH   1  19
TORSDOF 4
ENDMDL
MODEL 4
REMARK VINA RESULT:      -8.5      2.220      5.900
REMARK  4 active torsions:
REMARK  status: ('A' for Active; 'I' for Inactive)
REMARK    1  A    between atoms: C_10  and  C_2 
REMARK    2  A    between atoms: C_9  and  C_4 
REMARK    3  A    between atoms: C_8  and  N_6 
REMARK    4  A    between atoms: N_7  and  C_9 
ROOT
ATOM      1  N   UNL d   1      49.174  34.969  52.412  0.00  0.00    -0.301 N 
ATOM      2  N   UNL d   1      50.567  34.090  52.403  0.00  0.00    -0.297 N 
ATOM      3  C   UNL d   1      49.481  34.670  53.117  0.00  0.00     0.100 A 
ATOM      4  C   UNL d   1      49.563  34.829  51.703  0.00  0.00     0.100 A 
ATOM      5  C   UNL d   1      50.177  34.230  53.113  0.00  0.00     0.100 A 
ATOM      6  C   UNL d   1      50.263  34.388  51.696  0.00  0.00     0.100 A 
ENDROOT
BRANCH   2   7
ATOM      7  C   UNL d   1      51.264  33.651  52.393  0.00  0.00     0.127 C 
BRANCH   7   8
ATOM      8  C   UNL d   1      51.926  33.934  52.789  0.00  0.00     0.222 A 
ATOM      9  N   UNL d   1      52.227  34.706  52.765  0.00  0.00    -0.119 NA
ATOM     10  N   UNL d   1      52.896  34.737  53.247  0.00  0.00    -0.121 NA
ATOM     11  C   UNL d   1      53.010  33.983  53.571  0.00  0.00     0.204 A 
ATOM     12  O   UNL d   1      52.413  33.486  53.290  0.00  0.00    -0.267 OA
BRANCH  11  13
ATOM     13  C   UNL d   1      53.620  33.770  54.087  0.00  0.00     0.043 A 
ATOM     14  C   UNL d   1      53.681  34.130  54.824  0.00  0.00     0.004 A 
ATOM     15  C   UNL d   1      54.290  33.917  55.340  0.00  0.00     0.000 A 
ATOM     16  C   UNL d   1      54.837  33.345  55.115  0.00  0.00     0.000 A 
ATOM     17  C   UNL d   1      54.771  32.982  54.366  0.00  0.00     0.000 A 
ATOM     18  C   UNL d   1      54.161  33.201  53.860  0.00  0.00     0.004 A 
ENDBRANCH  11  13
ENDBRANCH   7   8
ENDBRANCH   2   7
BRANCH   1  19
ATOM     19  C   UNL d   1      48.478  35.409  52.417  0.00  0.00     0.064 A 
ATOM     20  C   UNL d   1      48.330  35.941  53.031  0.00  0.00     0.020 A 
ATOM     21  C   UNL d   1      47.630  36.381  53.033  0.00  0.00     0.031 A 
ATOM     22  C   UNL d   1      47.077  36.291  52.423  0.00  0.00     0.140 A 
ATOM     23  C   UNL d   1      47.236  35.756  51.814  0.00  0.00     0.031 A 
ATOM     24  F   UNL d   1      46.369  36.709  52.387  0.00  0.00    -0.204 F 
ATOM     25  C   UNL d   1      47.933  35.316  51.810  0.00  0.00     0.020 A 
ENDBRANCH   1  19
TORSDOF 4
ENDMDL
