MODEL 1
REMARK VINA RESULT:       6.2      0.000      0.000
REMARK  1 active torsions:
REMARK  status: ('A' for Active; 'I' for Inactive)
REMARK       I    between atoms: N_2  and  C_1 
REMARK    1  A    between atoms: C_5  and  N_2 
ROOT
ATOM      1  C   UNL d   1     -54.747-101.785 -37.676  0.00  0.00     0.100 A 
ATOM      2  C   UNL d   1     -54.788-102.347 -39.231  0.00  0.00     0.058 A 
ATOM      3 CL   UNL d   1     -54.809-102.624 -40.005  0.00  0.00    -0.082 Cl
ATOM      4  C   UNL d   1     -54.733-102.601 -37.826  0.00  0.00     0.021 A 
ATOM      5  C   UNL d   1     -54.782-101.253 -38.305  0.00  0.00     0.021 A 
ATOM      6  C   UNL d   1     -54.754-102.879 -38.601  0.00  0.00     0.013 A 
ATOM      7  C   UNL d   1     -54.803-101.536 -39.084  0.00  0.00     0.013 A 
ENDROOT
BRANCH   1   8
ATOM      8  N   UNL d   1     -54.727-101.510 -36.897  0.00  0.00    -0.056 NA
ATOM      9  C   UNL d   1     -54.939-102.006 -36.276  0.00  0.00     0.787 C 
ATOM     10  N   UNL d   1     -54.920-101.736 -35.499  0.00  0.00     0.064 N 
ATOM     11  N   UNL d   1     -55.173-102.781 -36.438  0.00  0.00     0.064 N 
ENDBRANCH   1   8
TORSDOF 1
ENDMDL
