MODEL 1
REMARK VINA RESULT:      59.5      0.000      0.000
REMARK  6 active torsions:
REMARK  status: ('A' for Active; 'I' for Inactive)
REMARK    1  A    between atoms: C_12  and  N_1 
REMARK    2  A    between atoms: S_10  and  C_2 
REMARK    3  A    between atoms: C_5  and  N_7 
REMARK       I    between atoms: N_7  and  C_11 
REMARK    4  A    between atoms: C_16  and  S_10 
REMARK    5  A    between atoms: C_11  and  C_16 
REMARK    6  A    between atoms: C_17  and  C_12 
ROOT
ATOM      1  N   UNL d   1     -51.758  24.091  33.341  0.00  0.00    -0.303 N 
ATOM      2  C   UNL d   1     -51.128  25.265  33.404  0.00  0.00     0.049 A 
ATOM      3  C   UNL d   1     -51.874  24.891  33.380  0.00  0.00     0.087 A 
ATOM      4  C   UNL d   1     -50.560  24.665  33.379  0.00  0.00     0.024 A 
ATOM      5  C   UNL d   1     -50.950  23.938  33.341  0.00  0.00     0.065 A 
ATOM      6  C   UNL d   1     -49.740  24.693  33.388  0.00  0.00     0.002 A 
ATOM      7  C   UNL d   1     -50.518  23.241  33.310  0.00  0.00     0.018 A 
ATOM      8  C   UNL d   1     -49.304  23.992  33.357  0.00  0.00     0.000 A 
ATOM      9  C   UNL d   1     -49.693  23.266  33.318  0.00  0.00     0.002 A 
ENDROOT
BRANCH   2  10
ATOM     10  S   UNL d   1     -50.981  26.073  33.445  0.00  0.00    -0.080 SA
BRANCH  10  11
ATOM     11  C   UNL d   1     -50.215  26.367  33.314  0.00  0.00     0.098 C 
BRANCH  11  12
ATOM     12  C   UNL d   1     -49.833  26.822  33.881  0.00  0.00     0.288 C 
ATOM     13  N   UNL d   1     -49.518  27.562  33.693  0.00  0.00    -0.182 NA
ATOM     14  O   UNL d   1     -49.765  26.535  34.644  0.00  0.00    -0.265 OA
BRANCH  13  15
ATOM     15  C   UNL d   1     -49.136  28.011  34.268  0.00  0.00     0.197 A 
ATOM     16  N   UNL d   1     -49.433  28.503  34.862  0.00  0.00    -0.219 NA
ATOM     17  C   UNL d   1     -48.784  28.810  35.277  0.00  0.00     0.108 A 
ATOM     18  C   UNL d   1     -48.101  28.505  34.935  0.00  0.00     0.059 A 
ATOM     19  S   UNL d   1     -48.320  28.010  34.312  0.00  0.00    -0.046 SA
ENDBRANCH  13  15
ENDBRANCH  11  12
ENDBRANCH  10  11
ENDBRANCH   2  10
BRANCH   1  20
ATOM     20  C   UNL d   1     -52.364  23.511  33.308  0.00  0.00     0.080 C 
BRANCH  20  21
ATOM     21  C   UNL d   1     -52.886  23.421  33.935  0.00  0.00     0.018 A 
ATOM     22  C   UNL d   1     -53.691  23.299  33.799  0.00  0.00     0.002 A 
ATOM     23  C   UNL d   1     -54.212  23.208  34.431  0.00  0.00     0.000 A 
ATOM     24  C   UNL d   1     -53.937  23.239  35.200  0.00  0.00     0.000 A 
ATOM     25  C   UNL d   1     -53.122  23.362  35.348  0.00  0.00     0.000 A 
ATOM     26  C   UNL d   1     -52.603  23.452  34.708  0.00  0.00     0.002 A 
ENDBRANCH  20  21
ENDBRANCH   1  20
TORSDOF 6
ENDMDL
MODEL 2
REMARK VINA RESULT:      60.1      2.361      7.066
REMARK  6 active torsions:
REMARK  status: ('A' for Active; 'I' for Inactive)
REMARK    1  A    between atoms: C_12  and  N_1 
REMARK    2  A    between atoms: S_10  and  C_2 
REMARK    3  A    between atoms: C_5  and  N_7 
REMARK       I    between atoms: N_7  and  C_11 
REMARK    4  A    between atoms: C_16  and  S_10 
REMARK    5  A    between atoms: C_11  and  C_16 
REMARK    6  A    between atoms: C_17  and  C_12 
ROOT
ATOM      1  N   UNL d   1     -47.421  30.303  34.906  0.00  0.00    -0.303 N 
ATOM      2  C   UNL d   1     -48.119  29.198  35.172  0.00  0.00     0.049 A 
ATOM      3  C   UNL d   1     -47.869  29.720  34.569  0.00  0.00     0.087 A 
ATOM      4  C   UNL d   1     -47.806  29.487  35.881  0.00  0.00     0.024 A 
ATOM      5  C   UNL d   1     -47.374  30.170  35.716  0.00  0.00     0.065 A 
ATOM      6  C   UNL d   1     -47.864  29.210  36.652  0.00  0.00     0.002 A 
ATOM      7  C   UNL d   1     -46.999  30.577  36.323  0.00  0.00     0.018 A 
ATOM      8  C   UNL d   1     -47.487  29.618  37.263  0.00  0.00     0.000 A 
ATOM      9  C   UNL d   1     -47.055  30.301  37.099  0.00  0.00     0.002 A 
ENDROOT
BRANCH   2  10
ATOM     10  S   UNL d   1     -48.586  28.527  35.084  0.00  0.00    -0.080 SA
BRANCH  10  11
ATOM     11  C   UNL d   1     -48.810  28.269  34.327  0.00  0.00     0.098 C 
BRANCH  11  12
ATOM     12  C   UNL d   1     -49.313  27.626  34.229  0.00  0.00     0.288 C 
ATOM     13  N   UNL d   1     -49.892  27.623  33.641  0.00  0.00    -0.182 NA
ATOM     14  O   UNL d   1     -49.234  26.981  34.725  0.00  0.00    -0.265 OA
BRANCH  13  15
ATOM     15  C   UNL d   1     -50.391  26.973  33.552  0.00  0.00     0.197 A 
ATOM     16  N   UNL d   1     -50.249  26.163  33.625  0.00  0.00    -0.219 NA
ATOM     17  C   UNL d   1     -50.964  25.771  33.471  0.00  0.00     0.108 A 
ATOM     18  C   UNL d   1     -51.532  26.342  33.307  0.00  0.00     0.059 A 
ATOM     19  S   UNL d   1     -51.177  27.086  33.358  0.00  0.00    -0.046 SA
ENDBRANCH  13  15
ENDBRANCH  11  12
ENDBRANCH  10  11
ENDBRANCH   2  10
BRANCH   1  20
ATOM     20  C   UNL d   1     -47.061  30.940  34.494  0.00  0.00     0.080 C 
BRANCH  20  21
ATOM     21  C   UNL d   1     -47.478  31.633  34.357  0.00  0.00     0.018 A 
ATOM     22  C   UNL d   1     -47.278  32.331  34.751  0.00  0.00     0.002 A 
ATOM     23  C   UNL d   1     -47.699  33.025  34.611  0.00  0.00     0.000 A 
ATOM     24  C   UNL d   1     -48.321  33.030  34.079  0.00  0.00     0.000 A 
ATOM     25  C   UNL d   1     -48.531  32.328  33.675  0.00  0.00     0.000 A 
ATOM     26  C   UNL d   1     -48.104  31.633  33.821  0.00  0.00     0.002 A 
ENDBRANCH  20  21
ENDBRANCH   1  20
TORSDOF 6
ENDMDL
MODEL 3
REMARK VINA RESULT:      62.0      1.482      2.936
REMARK  6 active torsions:
REMARK  status: ('A' for Active; 'I' for Inactive)
REMARK    1  A    between atoms: C_12  and  N_1 
REMARK    2  A    between atoms: S_10  and  C_2 
REMARK    3  A    between atoms: C_5  and  N_7 
REMARK       I    between atoms: N_7  and  C_11 
REMARK    4  A    between atoms: C_16  and  S_10 
REMARK    5  A    between atoms: C_11  and  C_16 
REMARK    6  A    between atoms: C_17  and  C_12 
ROOT
ATOM      1  N   UNL d   1     -50.978  26.152  33.542  0.00  0.00    -0.303 N 
ATOM      2  C   UNL d   1     -49.980  26.917  33.987  0.00  0.00     0.049 A 
ATOM      3  C   UNL d   1     -50.217  26.134  33.817  0.00  0.00     0.087 A 
ATOM      4  C   UNL d   1     -50.623  27.404  33.805  0.00  0.00     0.024 A 
ATOM      5  C   UNL d   1     -51.240  26.931  33.530  0.00  0.00     0.065 A 
ATOM      6  C   UNL d   1     -50.718  28.218  33.858  0.00  0.00     0.002 A 
ATOM      7  C   UNL d   1     -51.952  27.272  33.306  0.00  0.00     0.018 A 
ATOM      8  C   UNL d   1     -51.434  28.563  33.633  0.00  0.00     0.000 A 
ATOM      9  C   UNL d   1     -52.051  28.090  33.358  0.00  0.00     0.002 A 
ENDROOT
BRANCH   2  10
ATOM     10  S   UNL d   1     -49.251  27.161  34.279  0.00  0.00    -0.080 SA
BRANCH  10  11
ATOM     11  C   UNL d   1     -48.987  27.939  34.151  0.00  0.00     0.098 C 
BRANCH  11  12
ATOM     12  C   UNL d   1     -48.623  28.367  34.751  0.00  0.00     0.288 C 
ATOM     13  N   UNL d   1     -48.149  29.021  34.581  0.00  0.00    -0.182 NA
ATOM     14  O   UNL d   1     -48.735  28.138  35.528  0.00  0.00    -0.265 OA
BRANCH  13  15
ATOM     15  C   UNL d   1     -47.789  29.443  35.189  0.00  0.00     0.197 A 
ATOM     16  N   UNL d   1     -48.031  30.113  35.607  0.00  0.00    -0.219 NA
ATOM     17  C   UNL d   1     -47.438  30.290  36.159  0.00  0.00     0.108 A 
ATOM     18  C   UNL d   1     -46.842  29.729  36.074  0.00  0.00     0.059 A 
ATOM     19  S   UNL d   1     -47.060  29.206  35.474  0.00  0.00    -0.046 SA
ENDBRANCH  13  15
ENDBRANCH  11  12
ENDBRANCH  10  11
ENDBRANCH   2  10
BRANCH   1  20
ATOM     20  C   UNL d   1     -51.426  25.482  33.307  0.00  0.00     0.080 C 
BRANCH  20  21
ATOM     21  C   UNL d   1     -51.155  24.724  33.468  0.00  0.00     0.018 A 
ATOM     22  C   UNL d   1     -50.372  24.514  33.310  0.00  0.00     0.002 A 
ATOM     23  C   UNL d   1     -50.104  23.752  33.473  0.00  0.00     0.000 A 
ATOM     24  C   UNL d   1     -50.611  23.196  33.793  0.00  0.00     0.000 A 
ATOM     25  C   UNL d   1     -51.406  23.400  33.957  0.00  0.00     0.000 A 
ATOM     26  C   UNL d   1     -51.670  24.167  33.790  0.00  0.00     0.002 A 
ENDBRANCH  20  21
ENDBRANCH   1  20
TORSDOF 6
ENDMDL
MODEL 4
REMARK VINA RESULT:      62.1      2.730      3.803
REMARK  6 active torsions:
REMARK  status: ('A' for Active; 'I' for Inactive)
REMARK    1  A    between atoms: C_12  and  N_1 
REMARK    2  A    between atoms: S_10  and  C_2 
REMARK    3  A    between atoms: C_5  and  N_7 
REMARK       I    between atoms: N_7  and  C_11 
REMARK    4  A    between atoms: C_16  and  S_10 
REMARK    5  A    between atoms: C_11  and  C_16 
REMARK    6  A    between atoms: C_17  and  C_12 
ROOT
ATOM      1  N   UNL d   1     -51.599  25.737  33.937  0.00  0.00    -0.303 N 
ATOM      2  C   UNL d   1     -51.522  26.326  35.131  0.00  0.00     0.049 A 
ATOM      3  C   UNL d   1     -51.930  25.758  34.675  0.00  0.00     0.087 A 
ATOM      4  C   UNL d   1     -50.936  26.646  34.644  0.00  0.00     0.024 A 
ATOM      5  C   UNL d   1     -50.984  26.282  33.905  0.00  0.00     0.065 A 
ATOM      6  C   UNL d   1     -50.369  27.222  34.785  0.00  0.00     0.002 A 
ATOM      7  C   UNL d   1     -50.463  26.494  33.307  0.00  0.00     0.018 A 
ATOM      8  C   UNL d   1     -49.844  27.437  34.184  0.00  0.00     0.000 A 
ATOM      9  C   UNL d   1     -49.891  27.073  33.445  0.00  0.00     0.002 A 
ENDROOT
BRANCH   2  10
ATOM     10  S   UNL d   1     -51.671  26.532  35.914  0.00  0.00    -0.080 SA
BRANCH  10  11
ATOM     11  C   UNL d   1     -51.318  26.105  36.533  0.00  0.00     0.098 C 
BRANCH  11  12
ATOM     12  C   UNL d   1     -51.684  26.042  37.266  0.00  0.00     0.288 C 
ATOM     13  N   UNL d   1     -52.039  25.336  37.506  0.00  0.00    -0.182 NA
ATOM     14  O   UNL d   1     -51.694  26.691  37.764  0.00  0.00    -0.265 OA
BRANCH  13  15
ATOM     15  C   UNL d   1     -52.403  25.284  38.243  0.00  0.00     0.197 A 
ATOM     16  N   UNL d   1     -52.447  25.820  38.870  0.00  0.00    -0.219 NA
ATOM     17  C   UNL d   1     -52.890  25.461  39.473  0.00  0.00     0.108 A 
ATOM     18  C   UNL d   1     -53.110  24.714  39.211  0.00  0.00     0.059 A 
ATOM     19  S   UNL d   1     -52.809  24.605  38.450  0.00  0.00    -0.046 SA
ENDBRANCH  13  15
ENDBRANCH  11  12
ENDBRANCH  10  11
ENDBRANCH   2  10
BRANCH   1  20
ATOM     20  C   UNL d   1     -51.845  25.240  33.306  0.00  0.00     0.080 C 
BRANCH  20  21
ATOM     21  C   UNL d   1     -52.279  24.561  33.459  0.00  0.00     0.018 A 
ATOM     22  C   UNL d   1     -53.099  24.553  33.360  0.00  0.00     0.002 A 
ATOM     23  C   UNL d   1     -53.531  23.869  33.514  0.00  0.00     0.000 A 
ATOM     24  C   UNL d   1     -53.153  23.190  33.768  0.00  0.00     0.000 A 
ATOM     25  C   UNL d   1     -52.322  23.188  33.871  0.00  0.00     0.000 A 
ATOM     26  C   UNL d   1     -51.893  23.879  33.714  0.00  0.00     0.002 A 
ENDBRANCH  20  21
ENDBRANCH   1  20
TORSDOF 6
ENDMDL
