MODEL 1
REMARK VINA RESULT:      -7.4      0.000      0.000
REMARK  5 active torsions:
REMARK  status: ('A' for Active; 'I' for Inactive)
REMARK    1  A    between atoms: S_10  and  C_6 
REMARK    2  A    between atoms: C_14  and  S_10 
REMARK    3  A    between atoms: C_12  and  C_14 
REMARK    4  A    between atoms: O_16  and  C_12 
REMARK    5  A    between atoms: C_18  and  O_16 
ROOT
ATOM      1  C   UNL d   1     -48.441  13.178  23.119  0.00  0.00     0.117 A 
ATOM      2  C   UNL d   1     -48.603  12.410  23.335  0.00  0.00     0.082 A 
ATOM      3  N   UNL d   1     -47.642  13.422  23.013  0.00  0.00    -0.214 NA
ATOM      4  C   UNL d   1     -47.997  11.865  23.452  0.00  0.00     0.283 A 
ATOM      5  N   UNL d   1     -47.197  12.108  23.346  0.00  0.00    -0.183 NA
ATOM      6  C   UNL d   1     -47.039  12.886  23.128  0.00  0.00     0.198 A 
ATOM      7  S   UNL d   1     -49.169  13.610  23.039  0.00  0.00    -0.068 SA
ATOM      8  C   UNL d   1     -49.412  12.337  23.395  0.00  0.00     0.013 A 
ATOM      9  C   UNL d   1     -49.782  13.085  23.211  0.00  0.00     0.031 A 
ATOM     10  O   UNL d   1     -48.170  11.073  23.675  0.00  0.00    -0.265 OA
ATOM     11  C   UNL d   1     -49.893  11.696  23.592  0.00  0.00     0.001 A 
ATOM     12  C   UNL d   1     -50.606  13.172  23.229  0.00  0.00     0.006 A 
ATOM     13  C   UNL d   1     -50.717  11.784  23.610  0.00  0.00     0.000 A 
ATOM     14  C   UNL d   1     -51.064  12.538  23.423  0.00  0.00     0.001 A 
ENDROOT
BRANCH   6  15
ATOM     15  S   UNL d   1     -46.244  13.129  23.022  0.00  0.00    -0.042 SA
BRANCH  15  16
ATOM     16  C   UNL d   1     -45.848  12.924  22.341  0.00  0.00     0.107 C 
BRANCH  16  17
ATOM     17  C   UNL d   1     -45.082  13.252  22.187  0.00  0.00     0.307 C 
ATOM     18  O   UNL d   1     -44.968  14.066  22.198  0.00  0.00    -0.258 OA
BRANCH  17  19
ATOM     19  O   UNL d   1     -44.433  12.736  22.021  0.00  0.00    -0.271 OA
BRANCH  19  20
ATOM     20  C   UNL d   1     -43.870  12.956  21.454  0.00  0.00     0.126 C 
ATOM     21  C   UNL d   1     -43.123  12.609  21.444  0.00  0.00     0.029 C 
ENDBRANCH  19  20
ENDBRANCH  17  19
ENDBRANCH  16  17
ENDBRANCH  15  16
ENDBRANCH   6  15
TORSDOF 5
ENDMDL
MODEL 2
REMARK VINA RESULT:      -7.3      1.690      1.874
REMARK  5 active torsions:
REMARK  status: ('A' for Active; 'I' for Inactive)
REMARK    1  A    between atoms: S_10  and  C_6 
REMARK    2  A    between atoms: C_14  and  S_10 
REMARK    3  A    between atoms: C_12  and  C_14 
REMARK    4  A    between atoms: O_16  and  C_12 
REMARK    5  A    between atoms: C_18  and  O_16 
ROOT
ATOM      1  C   UNL d   1     -48.329  13.070  22.726  0.00  0.00     0.117 A 
ATOM      2  C   UNL d   1     -48.939  12.551  22.873  0.00  0.00     0.082 A 
ATOM      3  N   UNL d   1     -47.555  12.893  23.006  0.00  0.00    -0.214 NA
ATOM      4  C   UNL d   1     -48.811  11.853  23.291  0.00  0.00     0.283 A 
ATOM      5  N   UNL d   1     -48.037  11.676  23.570  0.00  0.00    -0.183 NA
ATOM      6  C   UNL d   1     -47.424  12.204  23.420  0.00  0.00     0.198 A 
ATOM      7  S   UNL d   1     -48.623  13.736  22.287  0.00  0.00    -0.068 SA
ATOM      8  C   UNL d   1     -49.614  12.864  22.540  0.00  0.00     0.013 A 
ATOM      9  C   UNL d   1     -49.429  13.611  22.168  0.00  0.00     0.031 A 
ATOM     10  O   UNL d   1     -49.445  11.321  23.438  0.00  0.00    -0.265 OA
ATOM     11  C   UNL d   1     -50.391  12.590  22.512  0.00  0.00     0.001 A 
ATOM     12  C   UNL d   1     -50.015  14.055  21.785  0.00  0.00     0.006 A 
ATOM     13  C   UNL d   1     -50.976  13.034  22.128  0.00  0.00     0.000 A 
ATOM     14  C   UNL d   1     -50.770  13.776  21.764  0.00  0.00     0.001 A 
ENDROOT
BRANCH   6  15
ATOM     15  S   UNL d   1     -46.653  12.027  23.698  0.00  0.00    -0.042 SA
BRANCH  15  16
ATOM     16  C   UNL d   1     -46.316  11.308  23.519  0.00  0.00     0.107 C 
BRANCH  16  17
ATOM     17  C   UNL d   1     -45.472  11.234  23.502  0.00  0.00     0.307 C 
ATOM     18  O   UNL d   1     -45.001  11.878  23.306  0.00  0.00    -0.258 OA
BRANCH  17  19
ATOM     19  O   UNL d   1     -45.115  10.491  23.690  0.00  0.00    -0.271 OA
BRANCH  19  20
ATOM     20  C   UNL d   1     -44.312  10.369  23.523  0.00  0.00     0.126 C 
ATOM     21  C   UNL d   1     -43.969   9.627  23.622  0.00  0.00     0.029 C 
ENDBRANCH  19  20
ENDBRANCH  17  19
ENDBRANCH  16  17
ENDBRANCH  15  16
ENDBRANCH   6  15
TORSDOF 5
ENDMDL
MODEL 3
REMARK VINA RESULT:      -5.2      8.013      9.876
REMARK  5 active torsions:
REMARK  status: ('A' for Active; 'I' for Inactive)
REMARK    1  A    between atoms: S_10  and  C_6 
REMARK    2  A    between atoms: C_14  and  S_10 
REMARK    3  A    between atoms: C_12  and  C_14 
REMARK    4  A    between atoms: O_16  and  C_12 
REMARK    5  A    between atoms: C_18  and  O_16 
ROOT
ATOM      1  C   UNL d   1     -39.556  15.433  18.964  0.00  0.00     0.117 A 
ATOM      2  C   UNL d   1     -40.144  14.871  19.006  0.00  0.00     0.082 A 
ATOM      3  N   UNL d   1     -39.160  15.568  18.233  0.00  0.00    -0.214 NA
ATOM      4  C   UNL d   1     -40.360  14.432  18.343  0.00  0.00     0.283 A 
ATOM      5  N   UNL d   1     -39.964  14.567  17.613  0.00  0.00    -0.183 NA
ATOM      6  C   UNL d   1     -39.370  15.136  17.575  0.00  0.00     0.198 A 
ATOM      7  S   UNL d   1     -39.455  15.795  19.726  0.00  0.00    -0.068 SA
ATOM      8  C   UNL d   1     -40.422  14.863  19.772  0.00  0.00     0.013 A 
ATOM      9  C   UNL d   1     -39.997  15.440  20.237  0.00  0.00     0.031 A 
ATOM     10  O   UNL d   1     -40.968  13.853  18.394  0.00  0.00    -0.265 OA
ATOM     11  C   UNL d   1     -41.009  14.415  20.139  0.00  0.00     0.001 A 
ATOM     12  C   UNL d   1     -40.166  15.552  21.040  0.00  0.00     0.006 A 
ATOM     13  C   UNL d   1     -41.178  14.527  20.942  0.00  0.00     0.000 A 
ATOM     14  C   UNL d   1     -40.742  15.107  21.387  0.00  0.00     0.001 A 
ENDROOT
BRANCH   6  15
ATOM     15  S   UNL d   1     -38.976  15.271  16.848  0.00  0.00    -0.042 SA
BRANCH  15  16
ATOM     16  C   UNL d   1     -38.476  14.702  16.550  0.00  0.00     0.107 C 
BRANCH  16  17
ATOM     17  C   UNL d   1     -38.177  14.779  15.762  0.00  0.00     0.307 C 
ATOM     18  O   UNL d   1     -38.115  15.519  15.409  0.00  0.00    -0.258 OA
BRANCH  17  19
ATOM     19  O   UNL d   1     -37.940  14.087  15.336  0.00  0.00    -0.271 OA
BRANCH  19  20
ATOM     20  C   UNL d   1     -38.090  14.037  14.522  0.00  0.00     0.126 C 
ATOM     21  C   UNL d   1     -37.940  13.340  14.109  0.00  0.00     0.029 C 
ENDBRANCH  19  20
ENDBRANCH  17  19
ENDBRANCH  16  17
ENDBRANCH  15  16
ENDBRANCH   6  15
TORSDOF 5
ENDMDL
MODEL 4
REMARK VINA RESULT:      -5.2      8.398     10.486
REMARK  5 active torsions:
REMARK  status: ('A' for Active; 'I' for Inactive)
REMARK    1  A    between atoms: S_10  and  C_6 
REMARK    2  A    between atoms: C_14  and  S_10 
REMARK    3  A    between atoms: C_12  and  C_14 
REMARK    4  A    between atoms: O_16  and  C_12 
REMARK    5  A    between atoms: C_18  and  O_16 
ROOT
ATOM      1  C   UNL d   1     -39.276  15.086  17.516  0.00  0.00     0.117 A 
ATOM      2  C   UNL d   1     -39.125  14.306  17.335  0.00  0.00     0.082 A 
ATOM      3  N   UNL d   1     -39.687  15.277  18.225  0.00  0.00    -0.214 NA
ATOM      4  C   UNL d   1     -39.369  13.699  17.835  0.00  0.00     0.283 A 
ATOM      5  N   UNL d   1     -39.781  13.890  18.544  0.00  0.00    -0.183 NA
ATOM      6  C   UNL d   1     -39.931  14.680  18.723  0.00  0.00     0.198 A 
ATOM      7  S   UNL d   1     -38.962  15.585  16.903  0.00  0.00    -0.068 SA
ATOM      8  C   UNL d   1     -38.725  14.291  16.625  0.00  0.00     0.013 A 
ATOM      9  C   UNL d   1     -38.615  15.090  16.342  0.00  0.00     0.031 A 
ATOM     10  O   UNL d   1     -39.211  12.896  17.642  0.00  0.00    -0.265 OA
ATOM     11  C   UNL d   1     -38.431  13.668  16.173  0.00  0.00     0.001 A 
ATOM     12  C   UNL d   1     -38.222  15.242  15.628  0.00  0.00     0.006 A 
ATOM     13  C   UNL d   1     -38.038  13.819  15.459  0.00  0.00     0.000 A 
ATOM     14  C   UNL d   1     -37.940  14.623  15.195  0.00  0.00     0.001 A 
ENDROOT
BRANCH   6  15
ATOM     15  S   UNL d   1     -40.340  14.870  19.429  0.00  0.00    -0.042 SA
BRANCH  15  16
ATOM     16  C   UNL d   1     -39.951  14.828  20.143  0.00  0.00     0.107 C 
BRANCH  16  17
ATOM     17  C   UNL d   1     -40.315  15.149  20.837  0.00  0.00     0.307 C 
ATOM     18  O   UNL d   1     -41.097  14.972  21.018  0.00  0.00    -0.258 OA
BRANCH  17  19
ATOM     19  O   UNL d   1     -39.868  15.656  21.346  0.00  0.00    -0.271 OA
BRANCH  19  20
ATOM     20  C   UNL d   1     -39.692  15.409  22.117  0.00  0.00     0.126 C 
ATOM     21  C   UNL d   1     -39.221  15.871  22.610  0.00  0.00     0.029 C 
ENDBRANCH  19  20
ENDBRANCH  17  19
ENDBRANCH  16  17
ENDBRANCH  15  16
ENDBRANCH   6  15
TORSDOF 5
ENDMDL
MODEL 5
REMARK VINA RESULT:      -5.2      1.992      4.549
REMARK  5 active torsions:
REMARK  status: ('A' for Active; 'I' for Inactive)
REMARK    1  A    between atoms: S_10  and  C_6 
REMARK    2  A    between atoms: C_14  and  S_10 
REMARK    3  A    between atoms: C_12  and  C_14 
REMARK    4  A    between atoms: O_16  and  C_12 
REMARK    5  A    between atoms: C_18  and  O_16 
ROOT
ATOM      1  C   UNL d   1     -46.571  12.190  23.348  0.00  0.00     0.117 A 
ATOM      2  C   UNL d   1     -45.890  12.415  22.962  0.00  0.00     0.082 A 
ATOM      3  N   UNL d   1     -47.238  12.704  23.348  0.00  0.00    -0.214 NA
ATOM      4  C   UNL d   1     -45.842  13.139  22.572  0.00  0.00     0.283 A 
ATOM      5  N   UNL d   1     -46.509  13.652  22.573  0.00  0.00    -0.183 NA
ATOM      6  C   UNL d   1     -47.195  13.421  22.963  0.00  0.00     0.198 A 
ATOM      7  S   UNL d   1     -46.460  11.423  23.697  0.00  0.00    -0.068 SA
ATOM      8  C   UNL d   1     -45.346  11.815  23.055  0.00  0.00     0.013 A 
ATOM      9  C   UNL d   1     -45.691  11.184  23.515  0.00  0.00     0.031 A 
ATOM     10  O   UNL d   1     -45.135  13.365  22.176  0.00  0.00    -0.265 OA
ATOM     11  C   UNL d   1     -44.569  11.732  22.790  0.00  0.00     0.001 A 
ATOM     12  C   UNL d   1     -45.260  10.500  23.696  0.00  0.00     0.006 A 
ATOM     13  C   UNL d   1     -44.138  11.048  22.971  0.00  0.00     0.000 A 
ATOM     14  C   UNL d   1     -44.502  10.431  23.431  0.00  0.00     0.001 A 
ENDROOT
BRANCH   6  15
ATOM     15  S   UNL d   1     -47.859  13.932  22.964  0.00  0.00    -0.042 SA
BRANCH  15  16
ATOM     16  C   UNL d   1     -48.541  13.706  22.580  0.00  0.00     0.107 C 
BRANCH  16  17
ATOM     17  C   UNL d   1     -49.190  14.248  22.526  0.00  0.00     0.307 C 
ATOM     18  O   UNL d   1     -49.067  15.055  22.617  0.00  0.00    -0.258 OA
BRANCH  17  19
ATOM     19  O   UNL d   1     -49.968  13.953  22.377  0.00  0.00    -0.271 OA
BRANCH  19  20
ATOM     20  C   UNL d   1     -50.291  14.015  21.616  0.00  0.00     0.126 C 
ATOM     21  C   UNL d   1     -51.064  14.278  21.506  0.00  0.00     0.029 C 
ENDBRANCH  19  20
ENDBRANCH  17  19
ENDBRANCH  16  17
ENDBRANCH  15  16
ENDBRANCH   6  15
TORSDOF 5
ENDMDL
MODEL 6
REMARK VINA RESULT:      -4.8      8.728      9.761
REMARK  5 active torsions:
REMARK  status: ('A' for Active; 'I' for Inactive)
REMARK    1  A    between atoms: S_10  and  C_6 
REMARK    2  A    between atoms: C_14  and  S_10 
REMARK    3  A    between atoms: C_12  and  C_14 
REMARK    4  A    between atoms: O_16  and  C_12 
REMARK    5  A    between atoms: C_18  and  O_16 
ROOT
ATOM      1  C   UNL d   1     -39.293  15.339  18.941  0.00  0.00     0.117 A 
ATOM      2  C   UNL d   1     -39.806  14.891  18.495  0.00  0.00     0.082 A 
ATOM      3  N   UNL d   1     -39.308  15.279  19.781  0.00  0.00    -0.214 NA
ATOM      4  C   UNL d   1     -40.342  14.378  18.852  0.00  0.00     0.283 A 
ATOM      5  N   UNL d   1     -40.358  14.317  19.692  0.00  0.00    -0.183 NA
ATOM      6  C   UNL d   1     -39.837  14.772  20.138  0.00  0.00     0.198 A 
ATOM      7  S   UNL d   1     -38.809  15.812  18.427  0.00  0.00    -0.068 SA
ATOM      8  C   UNL d   1     -39.665  15.063  17.711  0.00  0.00     0.013 A 
ATOM      9  C   UNL d   1     -39.040  15.642  17.653  0.00  0.00     0.031 A 
ATOM     10  O   UNL d   1     -40.869  13.918  18.386  0.00  0.00    -0.265 OA
ATOM     11  C   UNL d   1     -40.011  14.783  17.016  0.00  0.00     0.001 A 
ATOM     12  C   UNL d   1     -38.781  15.921  16.917  0.00  0.00     0.006 A 
ATOM     13  C   UNL d   1     -39.751  15.062  16.280  0.00  0.00     0.000 A 
ATOM     14  C   UNL d   1     -39.126  15.639  16.245  0.00  0.00     0.001 A 
ENDROOT
BRANCH   6  15
ATOM     15  S   UNL d   1     -39.853  14.712  20.974  0.00  0.00    -0.042 SA
BRANCH  15  16
ATOM     16  C   UNL d   1     -39.277  14.282  21.357  0.00  0.00     0.107 C 
BRANCH  16  17
ATOM     17  C   UNL d   1     -39.237  14.298  22.203  0.00  0.00     0.307 C 
ATOM     18  O   UNL d   1     -39.417  14.985  22.617  0.00  0.00    -0.258 OA
BRANCH  17  19
ATOM     19  O   UNL d   1     -39.010  13.599  22.623  0.00  0.00    -0.271 OA
BRANCH  19  20
ATOM     20  C   UNL d   1     -38.462  13.654  23.242  0.00  0.00     0.126 C 
ATOM     21  C   UNL d   1     -38.273  12.995  23.698  0.00  0.00     0.029 C 
ENDBRANCH  19  20
ENDBRANCH  17  19
ENDBRANCH  16  17
ENDBRANCH  15  16
ENDBRANCH   6  15
TORSDOF 5
ENDMDL
MODEL 7
REMARK VINA RESULT:      -4.4      8.628      9.789
REMARK  5 active torsions:
REMARK  status: ('A' for Active; 'I' for Inactive)
REMARK    1  A    between atoms: S_10  and  C_6 
REMARK    2  A    between atoms: C_14  and  S_10 
REMARK    3  A    between atoms: C_12  and  C_14 
REMARK    4  A    between atoms: O_16  and  C_12 
REMARK    5  A    between atoms: C_18  and  O_16 
ROOT
ATOM      1  C   UNL d   1     -38.599  14.120  20.343  0.00  0.00     0.117 A 
ATOM      2  C   UNL d   1     -39.273  14.182  20.796  0.00  0.00     0.082 A 
ATOM      3  N   UNL d   1     -38.615  14.363  19.537  0.00  0.00    -0.214 NA
ATOM      4  C   UNL d   1     -39.973  14.478  20.478  0.00  0.00     0.283 A 
ATOM      5  N   UNL d   1     -39.989  14.720  19.671  0.00  0.00    -0.183 NA
ATOM      6  C   UNL d   1     -39.305  14.656  19.218  0.00  0.00     0.198 A 
ATOM      7  S   UNL d   1     -37.969  13.799  20.815  0.00  0.00    -0.068 SA
ATOM      8  C   UNL d   1     -39.094  13.909  21.543  0.00  0.00     0.013 A 
ATOM      9  C   UNL d   1     -38.275  13.665  21.569  0.00  0.00     0.031 A 
ATOM     10  O   UNL d   1     -40.665  14.538  20.950  0.00  0.00    -0.265 OA
ATOM     11  C   UNL d   1     -39.549  13.839  22.226  0.00  0.00     0.001 A 
ATOM     12  C   UNL d   1     -37.940  13.363  22.264  0.00  0.00     0.006 A 
ATOM     13  C   UNL d   1     -39.214  13.538  22.921  0.00  0.00     0.000 A 
ATOM     14  C   UNL d   1     -38.396  13.300  22.926  0.00  0.00     0.001 A 
ENDROOT
BRANCH   6  15
ATOM     15  S   UNL d   1     -39.321  14.897  18.415  0.00  0.00    -0.042 SA
BRANCH  15  16
ATOM     16  C   UNL d   1     -39.132  14.363  17.831  0.00  0.00     0.107 C 
BRANCH  16  17
ATOM     17  C   UNL d   1     -39.120  14.614  17.022  0.00  0.00     0.307 C 
ATOM     18  O   UNL d   1     -39.751  15.034  16.706  0.00  0.00    -0.258 OA
BRANCH  17  19
ATOM     19  O   UNL d   1     -38.450  14.430  16.539  0.00  0.00    -0.271 OA
BRANCH  19  20
ATOM     20  C   UNL d   1     -38.565  14.066  15.803  0.00  0.00     0.126 C 
ATOM     21  C   UNL d   1     -37.949  14.015  15.258  0.00  0.00     0.029 C 
ENDBRANCH  19  20
ENDBRANCH  17  19
ENDBRANCH  16  17
ENDBRANCH  15  16
ENDBRANCH   6  15
TORSDOF 5
ENDMDL
