MODEL 1
REMARK VINA RESULT:      42.6      0.000      0.000
REMARK  4 active torsions:
REMARK  status: ('A' for Active; 'I' for Inactive)
REMARK       I    between atoms: C_2  and  N_1 
REMARK       I    between atoms: N_8  and  C_2 
REMARK    1  A    between atoms: C_12  and  N_8 
REMARK    2  A    between atoms: C_9  and  C_12 
REMARK    3  A    between atoms: O_13  and  C_9 
REMARK    4  A    between atoms: C_18  and  O_13 
ROOT
ATOM      1  N   UNL d   1      58.160  49.707  50.643  0.00  0.00    -0.258 N 
ATOM      2  C   UNL d   1      58.919  49.707  50.321  0.00  0.00     0.354 C 
ATOM      3  S   UNL d   1      56.631  49.707  51.293  0.00  0.00    -0.084 SA
ATOM      4  C   UNL d   1      57.499  49.707  50.149  0.00  0.00     0.074 A 
ATOM      5  C   UNL d   1      58.063  49.707  51.462  0.00  0.00     0.074 A 
ATOM      6  C   UNL d   1      56.734  49.707  50.470  0.00  0.00     0.046 A 
ATOM      7  C   UNL d   1      57.294  49.707  51.789  0.00  0.00     0.046 A 
ATOM      8  N   UNL d   1      59.583  49.707  50.823  0.00  0.00    -0.185 NA
ATOM      9  O   UNL d   1      59.016  49.707  49.505  0.00  0.00    -0.244 OA
ATOM     10  C   UNL d   1      57.605  49.707  49.336  0.00  0.00     0.018 A 
ATOM     11  C   UNL d   1      58.722  49.707  51.947  0.00  0.00     0.018 A 
ATOM     12  C   UNL d   1      57.192  49.707  52.597  0.00  0.00     0.008 A 
ATOM     13  C   UNL d   1      56.077  49.707  49.972  0.00  0.00     0.008 A 
ATOM     14  C   UNL d   1      56.951  49.707  48.828  0.00  0.00     0.002 A 
ATOM     15  C   UNL d   1      58.618  49.707  52.782  0.00  0.00     0.002 A 
ATOM     16  C   UNL d   1      57.853  49.707  53.102  0.00  0.00     0.001 A 
ATOM     17  C   UNL d   1      56.190  49.707  49.146  0.00  0.00     0.001 A 
ENDROOT
BRANCH   8  18
ATOM     18  C   UNL d   1      60.364  49.706  50.491  0.00  0.00     0.172 C 
BRANCH  18  19
ATOM     19  C   UNL d   1      60.975  49.374  50.914  0.00  0.00     0.320 C 
ATOM     20  O   UNL d   1      61.367  48.716  50.613  0.00  0.00    -0.257 OA
BRANCH  19  21
ATOM     21  O   UNL d   1      61.199  49.689  51.630  0.00  0.00    -0.270 OA
BRANCH  21  22
ATOM     22  C   UNL d   1      61.952  49.513  51.947  0.00  0.00     0.126 C 
ATOM     23  C   UNL d   1      62.055  49.468  52.758  0.00  0.00     0.029 C 
ENDBRANCH  21  22
ENDBRANCH  19  21
ENDBRANCH  18  19
ENDBRANCH   8  18
TORSDOF 4
ENDMDL
MODEL 2
REMARK VINA RESULT:      43.1      1.066      2.452
REMARK  4 active torsions:
REMARK  status: ('A' for Active; 'I' for Inactive)
REMARK       I    between atoms: C_2  and  N_1 
REMARK       I    between atoms: N_8  and  C_2 
REMARK    1  A    between atoms: C_12  and  N_8 
REMARK    2  A    between atoms: C_9  and  C_12 
REMARK    3  A    between atoms: O_13  and  C_9 
REMARK    4  A    between atoms: C_18  and  O_13 
ROOT
ATOM      1  N   UNL d   1      57.915  49.707  51.180  0.00  0.00    -0.258 N 
ATOM      2  C   UNL d   1      58.726  49.707  51.325  0.00  0.00     0.354 C 
ATOM      3  S   UNL d   1      56.279  49.707  50.888  0.00  0.00    -0.084 SA
ATOM      4  C   UNL d   1      57.381  49.707  51.809  0.00  0.00     0.074 A 
ATOM      5  C   UNL d   1      57.637  49.707  50.403  0.00  0.00     0.074 A 
ATOM      6  C   UNL d   1      56.563  49.707  51.667  0.00  0.00     0.046 A 
ATOM      7  C   UNL d   1      56.815  49.706  50.256  0.00  0.00     0.046 A 
ATOM      8  N   UNL d   1      59.262  49.707  50.688  0.00  0.00    -0.185 NA
ATOM      9  O   UNL d   1      59.003  49.708  52.099  0.00  0.00    -0.244 OA
ATOM     10  C   UNL d   1      57.665  49.708  52.578  0.00  0.00     0.018 A 
ATOM     11  C   UNL d   1      58.172  49.706  49.784  0.00  0.00     0.018 A 
ATOM     12  C   UNL d   1      56.536  49.706  49.491  0.00  0.00     0.008 A 
ATOM     13  C   UNL d   1      56.033  49.707  52.298  0.00  0.00     0.008 A 
ATOM     14  C   UNL d   1      57.141  49.708  53.219  0.00  0.00     0.002 A 
ATOM     15  C   UNL d   1      57.885  49.706  48.993  0.00  0.00     0.002 A 
ATOM     16  C   UNL d   1      57.067  49.706  48.851  0.00  0.00     0.001 A 
ATOM     17  C   UNL d   1      56.328  49.708  53.078  0.00  0.00     0.001 A 
ENDROOT
BRANCH   8  18
ATOM     18  C   UNL d   1      60.097  49.707  50.837  0.00  0.00     0.172 C 
BRANCH  18  19
ATOM     19  C   UNL d   1      60.590  49.290  50.341  0.00  0.00     0.320 C 
ATOM     20  O   UNL d   1      61.128  49.694  49.868  0.00  0.00    -0.257 OA
BRANCH  19  21
ATOM     21  O   UNL d   1      60.551  48.478  50.312  0.00  0.00    -0.270 OA
BRANCH  21  22
ATOM     22  C   UNL d   1      61.255  48.026  50.296  0.00  0.00     0.126 C 
ATOM     23  C   UNL d   1      61.230  47.224  50.459  0.00  0.00     0.029 C 
ENDBRANCH  21  22
ENDBRANCH  19  21
ENDBRANCH  18  19
ENDBRANCH   8  18
TORSDOF 4
ENDMDL
