MODEL 1
REMARK VINA RESULT:      -3.4      0.000      0.000
REMARK  2 active torsions:
REMARK  status: ('A' for Active; 'I' for Inactive)
REMARK    1  A    between atoms: C_6  and  C_3 
REMARK    2  A    between atoms: C_13  and  C_7 
ROOT
ATOM      1  C   UNL d   1      33.016  20.239 -22.198  0.00  0.00     0.018 A 
ATOM      2  C   UNL d   1      32.863  21.621 -21.321  0.00  0.00     0.000 A 
ATOM      3  C   UNL d   1      32.718  20.206 -21.432  0.00  0.00     0.002 A 
ATOM      4  C   UNL d   1      33.240  20.961 -22.531  0.00  0.00     0.002 A 
ATOM      5  C   UNL d   1      32.639  20.898 -20.988  0.00  0.00     0.000 A 
ATOM      6  C   UNL d   1      33.162  21.650 -22.090  0.00  0.00     0.000 A 
ENDROOT
BRANCH   1   7
ATOM      7  C   UNL d   1      33.094  19.546 -22.641  0.00  0.00     0.090 A 
ATOM      8  N   UNL d   1      33.100  19.492 -23.464  0.00  0.00    -0.219 NA
ATOM      9  C   UNL d   1      33.189  18.701 -23.670  0.00  0.00     0.215 A 
ATOM     10  S   UNL d   1      33.240  18.253 -22.979  0.00  0.00    -0.045 SA
ATOM     11  N   UNL d   1      33.223  18.398 -24.438  0.00  0.00    -0.120 N 
ATOM     12  C   UNL d   1      33.181  18.774 -22.338  0.00  0.00     0.058 A 
ENDBRANCH   1   7
BRANCH   2  13
ATOM     13  C   UNL d   1      32.786  22.315 -20.880  0.00  0.00     0.000 A 
ATOM     14  C   UNL d   1      33.138  22.363 -20.136  0.00  0.00     0.000 A 
ATOM     15  C   UNL d   1      33.061  23.048 -19.703  0.00  0.00     0.000 A 
ATOM     16  C   UNL d   1      32.636  23.692 -20.000  0.00  0.00     0.000 A 
ATOM     17  C   UNL d   1      32.288  23.637 -20.740  0.00  0.00     0.000 A 
ATOM     18  C   UNL d   1      32.363  22.947 -21.182  0.00  0.00     0.000 A 
ENDBRANCH   2  13
TORSDOF 2
ENDMDL
MODEL 2
REMARK VINA RESULT:      -3.3      2.238      4.425
REMARK  2 active torsions:
REMARK  status: ('A' for Active; 'I' for Inactive)
REMARK    1  A    between atoms: C_6  and  C_3 
REMARK    2  A    between atoms: C_13  and  C_7 
ROOT
ATOM      1  C   UNL d   1      32.771  21.570 -21.344  0.00  0.00     0.018 A 
ATOM      2  C   UNL d   1      32.894  20.199 -22.243  0.00  0.00     0.000 A 
ATOM      3  C   UNL d   1      33.176  21.586 -22.059  0.00  0.00     0.002 A 
ATOM      4  C   UNL d   1      32.425  20.871 -21.073  0.00  0.00     0.002 A 
ATOM      5  C   UNL d   1      33.240  20.900 -22.514  0.00  0.00     0.000 A 
ATOM      6  C   UNL d   1      32.488  20.188 -21.525  0.00  0.00     0.000 A 
ENDROOT
BRANCH   1   7
ATOM      7  C   UNL d   1      32.708  22.258 -20.889  0.00  0.00     0.090 A 
ATOM      8  N   UNL d   1      33.149  22.439 -20.216  0.00  0.00    -0.219 NA
ATOM      9  C   UNL d   1      32.906  23.176 -19.941  0.00  0.00     0.215 A 
ATOM     10  S   UNL d   1      32.313  23.460 -20.438  0.00  0.00    -0.045 SA
ATOM     11  N   UNL d   1      33.203  23.569 -19.278  0.00  0.00    -0.120 N 
ATOM     12  C   UNL d   1      32.187  22.894 -21.028  0.00  0.00     0.058 A 
ENDBRANCH   1   7
BRANCH   2  13
ATOM     13  C   UNL d   1      32.955  19.511 -22.695  0.00  0.00     0.000 A 
ATOM     14  C   UNL d   1      32.789  19.541 -23.503  0.00  0.00     0.000 A 
ATOM     15  C   UNL d   1      32.850  18.861 -23.946  0.00  0.00     0.000 A 
ATOM     16  C   UNL d   1      33.076  18.146 -23.598  0.00  0.00     0.000 A 
ATOM     17  C   UNL d   1      33.240  18.124 -22.796  0.00  0.00     0.000 A 
ATOM     18  C   UNL d   1      33.180  18.808 -22.342  0.00  0.00     0.000 A 
ENDBRANCH   2  13
TORSDOF 2
ENDMDL
MODEL 3
REMARK VINA RESULT:      -2.8      1.925      5.082
REMARK  2 active torsions:
REMARK  status: ('A' for Active; 'I' for Inactive)
REMARK    1  A    between atoms: C_6  and  C_3 
REMARK    2  A    between atoms: C_13  and  C_7 
ROOT
ATOM      1  C   UNL d   1      32.941  19.368 -22.705  0.00  0.00     0.018 A 
ATOM      2  C   UNL d   1      32.852  17.935 -23.505  0.00  0.00     0.000 A 
ATOM      3  C   UNL d   1      32.600  19.338 -23.452  0.00  0.00     0.002 A 
ATOM      4  C   UNL d   1      33.239  18.683 -22.351  0.00  0.00     0.002 A 
ATOM      5  C   UNL d   1      32.554  18.620 -23.858  0.00  0.00     0.000 A 
ATOM      6  C   UNL d   1      33.193  17.969 -22.754  0.00  0.00     0.000 A 
ENDROOT
BRANCH   1   7
ATOM      7  C   UNL d   1      32.988  20.087 -22.300  0.00  0.00     0.090 A 
ATOM      8  N   UNL d   1      32.794  20.214 -21.508  0.00  0.00    -0.219 NA
ATOM      9  C   UNL d   1      32.923  21.008 -21.336  0.00  0.00     0.215 A 
ATOM     10  S   UNL d   1      33.197  21.384 -22.017  0.00  0.00    -0.045 SA
ATOM     11  N   UNL d   1      32.799  21.374 -20.605  0.00  0.00    -0.120 N 
ATOM     12  C   UNL d   1      33.238  20.816 -22.617  0.00  0.00     0.058 A 
ENDBRANCH   1   7
BRANCH   2  13
ATOM     13  C   UNL d   1      32.806  17.214 -23.907  0.00  0.00     0.000 A 
ATOM     14  C   UNL d   1      32.364  16.598 -23.584  0.00  0.00     0.000 A 
ATOM     15  C   UNL d   1      32.321  15.889 -23.982  0.00  0.00     0.000 A 
ATOM     16  C   UNL d   1      32.713  15.782 -24.701  0.00  0.00     0.000 A 
ATOM     17  C   UNL d   1      33.151  16.399 -25.016  0.00  0.00     0.000 A 
ATOM     18  C   UNL d   1      33.198  17.118 -24.619  0.00  0.00     0.000 A 
ENDBRANCH   2  13
TORSDOF 2
ENDMDL
MODEL 4
REMARK VINA RESULT:      -2.7      4.246      6.151
REMARK  2 active torsions:
REMARK  status: ('A' for Active; 'I' for Inactive)
REMARK    1  A    between atoms: C_6  and  C_3 
REMARK    2  A    between atoms: C_13  and  C_7 
ROOT
ATOM      1  C   UNL d   1      31.258  17.453 -24.438  0.00  0.00     0.018 A 
ATOM      2  C   UNL d   1      29.848  16.672 -24.118  0.00  0.00     0.000 A 
ATOM      3  C   UNL d   1      31.259  16.792 -23.949  0.00  0.00     0.002 A 
ATOM      4  C   UNL d   1      30.553  17.729 -24.770  0.00  0.00     0.002 A 
ATOM      5  C   UNL d   1      30.553  16.397 -23.786  0.00  0.00     0.000 A 
ATOM      6  C   UNL d   1      29.850  17.335 -24.608  0.00  0.00     0.000 A 
ENDROOT
BRANCH   1   7
ATOM      7  C   UNL d   1      31.966  17.849 -24.601  0.00  0.00     0.090 A 
ATOM      8  N   UNL d   1      32.097  18.660 -24.530  0.00  0.00    -0.219 NA
ATOM      9  C   UNL d   1      32.876  18.813 -24.748  0.00  0.00     0.215 A 
ATOM     10  S   UNL d   1      33.236  18.101 -24.956  0.00  0.00    -0.045 SA
ATOM     11  N   UNL d   1      33.241  19.555 -24.759  0.00  0.00    -0.120 N 
ATOM     12  C   UNL d   1      32.675  17.500 -24.866  0.00  0.00     0.058 A 
ENDBRANCH   1   7
BRANCH   2  13
ATOM     13  C   UNL d   1      29.139  16.278 -23.957  0.00  0.00     0.000 A 
ATOM     14  C   UNL d   1      28.810  16.330 -23.202  0.00  0.00     0.000 A 
ATOM     15  C   UNL d   1      28.112  15.942 -23.046  0.00  0.00     0.000 A 
ATOM     16  C   UNL d   1      27.733  15.500 -23.631  0.00  0.00     0.000 A 
ATOM     17  C   UNL d   1      28.065  15.453 -24.378  0.00  0.00     0.000 A 
ATOM     18  C   UNL d   1      28.771  15.842 -24.543  0.00  0.00     0.000 A 
ENDBRANCH   2  13
TORSDOF 2
ENDMDL
MODEL 5
REMARK VINA RESULT:      -2.5      3.286      4.708
REMARK  2 active torsions:
REMARK  status: ('A' for Active; 'I' for Inactive)
REMARK    1  A    between atoms: C_6  and  C_3 
REMARK    2  A    between atoms: C_13  and  C_7 
ROOT
ATOM      1  C   UNL d   1      33.011  22.918 -19.330  0.00  0.00     0.018 A 
ATOM      2  C   UNL d   1      33.103  22.718 -20.959  0.00  0.00     0.000 A 
ATOM      3  C   UNL d   1      32.917  23.566 -19.827  0.00  0.00     0.002 A 
ATOM      4  C   UNL d   1      33.152  22.166 -19.642  0.00  0.00     0.002 A 
ATOM      5  C   UNL d   1      32.962  23.470 -20.646  0.00  0.00     0.000 A 
ATOM      6  C   UNL d   1      33.197  22.070 -20.456  0.00  0.00     0.000 A 
ENDROOT
BRANCH   1   7
ATOM      7  C   UNL d   1      32.966  23.016 -18.510  0.00  0.00     0.090 A 
ATOM      8  N   UNL d   1      33.223  22.477 -17.940  0.00  0.00    -0.219 NA
ATOM      9  C   UNL d   1      33.071  22.797 -17.198  0.00  0.00     0.215 A 
ATOM     10  S   UNL d   1      32.719  23.537 -17.296  0.00  0.00    -0.045 SA
ATOM     11  N   UNL d   1      33.241  22.442 -16.471  0.00  0.00    -0.120 N 
ATOM     12  C   UNL d   1      32.652  23.676 -18.109  0.00  0.00     0.058 A 
ENDBRANCH   1   7
BRANCH   2  13
ATOM     13  C   UNL d   1      33.149  22.617 -21.777  0.00  0.00     0.000 A 
ATOM     14  C   UNL d   1      33.190  21.855 -22.090  0.00  0.00     0.000 A 
ATOM     15  C   UNL d   1      33.235  21.759 -22.897  0.00  0.00     0.000 A 
ATOM     16  C   UNL d   1      33.241  22.412 -23.403  0.00  0.00     0.000 A 
ATOM     17  C   UNL d   1      33.200  23.166 -23.085  0.00  0.00     0.000 A 
ATOM     18  C   UNL d   1      33.154  23.270 -22.270  0.00  0.00     0.000 A 
ENDBRANCH   2  13
TORSDOF 2
ENDMDL
MODEL 6
REMARK VINA RESULT:      -2.4      2.585      3.732
REMARK  2 active torsions:
REMARK  status: ('A' for Active; 'I' for Inactive)
REMARK    1  A    between atoms: C_6  and  C_3 
REMARK    2  A    between atoms: C_13  and  C_7 
ROOT
ATOM      1  C   UNL d   1      32.744  22.934 -20.266  0.00  0.00     0.018 A 
ATOM      2  C   UNL d   1      32.941  22.963 -18.634  0.00  0.00     0.000 A 
ATOM      3  C   UNL d   1      32.681  23.646 -19.859  0.00  0.00     0.002 A 
ATOM      4  C   UNL d   1      32.906  22.232 -19.861  0.00  0.00     0.002 A 
ATOM      5  C   UNL d   1      32.779  23.665 -19.040  0.00  0.00     0.000 A 
ATOM      6  C   UNL d   1      33.004  22.250 -19.046  0.00  0.00     0.000 A 
ENDROOT
BRANCH   1   7
ATOM      7  C   UNL d   1      32.645  22.916 -21.087  0.00  0.00     0.090 A 
ATOM      8  N   UNL d   1      33.186  22.623 -21.636  0.00  0.00    -0.219 NA
ATOM      9  C   UNL d   1      32.864  22.714 -22.387  0.00  0.00     0.215 A 
ATOM     10  S   UNL d   1      32.120  23.064 -22.314  0.00  0.00    -0.045 SA
ATOM     11  N   UNL d   1      33.220  22.493 -23.100  0.00  0.00    -0.120 N 
ATOM     12  C   UNL d   1      31.981  23.191 -21.509  0.00  0.00     0.058 A 
ENDBRANCH   1   7
BRANCH   2  13
ATOM     13  C   UNL d   1      33.040  22.978 -17.814  0.00  0.00     0.000 A 
ATOM     14  C   UNL d   1      33.044  22.268 -17.394  0.00  0.00     0.000 A 
ATOM     15  C   UNL d   1      33.142  22.285 -16.586  0.00  0.00     0.000 A 
ATOM     16  C   UNL d   1      33.237  23.001 -16.185  0.00  0.00     0.000 A 
ATOM     17  C   UNL d   1      33.232  23.702 -16.609  0.00  0.00     0.000 A 
ATOM     18  C   UNL d   1      33.134  23.692 -17.426  0.00  0.00     0.000 A 
ENDBRANCH   2  13
TORSDOF 2
ENDMDL
MODEL 7
REMARK VINA RESULT:      -2.4      1.307      2.249
REMARK  2 active torsions:
REMARK  status: ('A' for Active; 'I' for Inactive)
REMARK    1  A    between atoms: C_6  and  C_3 
REMARK    2  A    between atoms: C_13  and  C_7 
ROOT
ATOM      1  C   UNL d   1      32.783  18.608 -23.346  0.00  0.00     0.018 A 
ATOM      2  C   UNL d   1      32.966  19.866 -22.303  0.00  0.00     0.000 A 
ATOM      3  C   UNL d   1      32.951  18.461 -22.555  0.00  0.00     0.002 A 
ATOM      4  C   UNL d   1      32.705  19.383 -23.622  0.00  0.00     0.002 A 
ATOM      5  C   UNL d   1      33.044  19.090 -22.028  0.00  0.00     0.000 A 
ATOM      6  C   UNL d   1      32.797  20.009 -23.098  0.00  0.00     0.000 A 
ENDROOT
BRANCH   1   7
ATOM      7  C   UNL d   1      32.690  17.978 -23.873  0.00  0.00     0.090 A 
ATOM      8  N   UNL d   1      32.112  17.391 -23.834  0.00  0.00    -0.219 NA
ATOM      9  C   UNL d   1      32.224  16.877 -24.466  0.00  0.00     0.215 A 
ATOM     10  S   UNL d   1      32.871  17.138 -24.906  0.00  0.00    -0.045 SA
ATOM     11  N   UNL d   1      31.767  16.210 -24.638  0.00  0.00    -0.120 N 
ATOM     12  C   UNL d   1      33.163  17.821 -24.541  0.00  0.00     0.058 A 
ENDBRANCH   1   7
BRANCH   2  13
ATOM     13  C   UNL d   1      33.058  20.497 -21.779  0.00  0.00     0.000 A 
ATOM     14  C   UNL d   1      33.063  21.269 -22.071  0.00  0.00     0.000 A 
ATOM     15  C   UNL d   1      33.154  21.889 -21.553  0.00  0.00     0.000 A 
ATOM     16  C   UNL d   1      33.241  21.756 -20.742  0.00  0.00     0.000 A 
ATOM     17  C   UNL d   1      33.235  20.987 -20.459  0.00  0.00     0.000 A 
ATOM     18  C   UNL d   1      33.144  20.355 -20.978  0.00  0.00     0.000 A 
ENDBRANCH   2  13
TORSDOF 2
ENDMDL
MODEL 8
REMARK VINA RESULT:      -2.2      4.648      5.931
REMARK  2 active torsions:
REMARK  status: ('A' for Active; 'I' for Inactive)
REMARK    1  A    between atoms: C_6  and  C_3 
REMARK    2  A    between atoms: C_13  and  C_7 
ROOT
ATOM      1  C   UNL d   1      29.595  16.548 -24.082  0.00  0.00     0.018 A 
ATOM      2  C   UNL d   1      31.049  17.315 -24.102  0.00  0.00     0.000 A 
ATOM      3  C   UNL d   1      30.264  16.163 -23.799  0.00  0.00     0.002 A 
ATOM      4  C   UNL d   1      29.647  17.319 -24.377  0.00  0.00     0.002 A 
ATOM      5  C   UNL d   1      30.996  16.545 -23.807  0.00  0.00     0.000 A 
ATOM      6  C   UNL d   1      30.375  17.699 -24.385  0.00  0.00     0.000 A 
ENDROOT
BRANCH   1   7
ATOM      7  C   UNL d   1      28.862  16.166 -24.073  0.00  0.00     0.090 A 
ATOM      8  N   UNL d   1      28.336  16.136 -23.438  0.00  0.00    -0.219 NA
ATOM      9  C   UNL d   1      27.679  15.699 -23.670  0.00  0.00     0.215 A 
ATOM     10  S   UNL d   1      27.788  15.453 -24.450  0.00  0.00    -0.045 SA
ATOM     11  N   UNL d   1      27.017  15.531 -23.204  0.00  0.00    -0.120 N 
ATOM     12  C   UNL d   1      28.521  15.740 -24.703  0.00  0.00     0.058 A 
ENDBRANCH   1   7
BRANCH   2  13
ATOM     13  C   UNL d   1      31.780  17.700 -24.112  0.00  0.00     0.000 A 
ATOM     14  C   UNL d   1      32.287  17.622 -23.466  0.00  0.00     0.000 A 
ATOM     15  C   UNL d   1      33.006  18.003 -23.479  0.00  0.00     0.000 A 
ATOM     16  C   UNL d   1      33.233  18.463 -24.126  0.00  0.00     0.000 A 
ATOM     17  C   UNL d   1      32.723  18.535 -24.764  0.00  0.00     0.000 A 
ATOM     18  C   UNL d   1      31.995  18.154 -24.758  0.00  0.00     0.000 A 
ENDBRANCH   2  13
TORSDOF 2
ENDMDL
