MODEL 1
REMARK VINA RESULT:      -8.3      0.000      0.000
REMARK  5 active torsions:
REMARK  status: ('A' for Active; 'I' for Inactive)
REMARK    1  A    between atoms: S_5  and  C_2 
REMARK    2  A    between atoms: C_12  and  S_5 
REMARK    3  A    between atoms: N_11  and  C_8 
REMARK    4  A    between atoms: C_19  and  N_11 
REMARK    5  A    between atoms: C_32  and  C_26 
ROOT
ATOM      1  C   UNL d   1      52.615  34.263  53.772  0.00  0.00     0.197 A 
ATOM      2  C   UNL d   1      51.925  34.697  53.656  0.00  0.00     0.227 A 
ATOM      3  N   UNL d   1      53.045  34.621  54.381  0.00  0.00    -0.192 N 
ATOM      4  N   UNL d   1      52.911  33.584  53.400  0.00  0.00    -0.206 NA
ATOM      5  N   UNL d   1      51.923  35.331  54.198  0.00  0.00    -0.115 NA
ATOM      6  N   UNL d   1      52.621  35.279  54.645  0.00  0.00    -0.058 NA
ATOM      7  C   UNL d   1      53.640  33.259  53.635  0.00  0.00     0.166 A 
ATOM      8  C   UNL d   1      54.062  33.624  54.245  0.00  0.00     0.054 A 
ATOM      9  C   UNL d   1      53.775  34.300  54.621  0.00  0.00     0.089 A 
ATOM     10  C   UNL d   1      54.199  34.661  55.229  0.00  0.00     0.020 A 
ATOM     11  C   UNL d   1      54.791  33.307  54.487  0.00  0.00     0.016 A 
ATOM     12  C   UNL d   1      55.216  33.667  55.096  0.00  0.00     0.058 A 
ATOM     13  C   UNL d   1      54.921  34.343  55.466  0.00  0.00     0.013 A 
ATOM     14 CL   UNL d   1      55.939  33.346  55.330  0.00  0.00    -0.082 Cl
ENDROOT
BRANCH   2  15
ATOM     15  S   UNL d   1      51.332  34.542  53.105  0.00  0.00     0.231 S 
ATOM     16  O   UNL d   1      50.962  34.005  53.608  0.00  0.00    -0.215 OA
ATOM     17  O   UNL d   1      51.704  35.079  52.604  0.00  0.00    -0.215 OA
BRANCH  15  18
ATOM     18  C   UNL d   1      50.769  34.429  52.515  0.00  0.00     0.090 A 
ATOM     19  C   UNL d   1      50.996  34.277  51.748  0.00  0.00     0.011 A 
ATOM     20  C   UNL d   1      50.436  34.165  51.160  0.00  0.00     0.001 A 
ATOM     21  C   UNL d   1      49.628  34.207  51.350  0.00  0.00     0.000 A 
ATOM     22  C   UNL d   1      49.399  34.361  52.131  0.00  0.00     0.001 A 
ATOM     23  C   UNL d   1      49.962  34.472  52.711  0.00  0.00     0.011 A 
BRANCH  21  24
ATOM     24  C   UNL d   1      49.067  34.095  50.767  0.00  0.00     0.000 C 
ATOM     25  C   UNL d   1      48.423  34.611  50.702  0.00  0.00     0.000 C 
ENDBRANCH  21  24
ENDBRANCH  15  18
ENDBRANCH   2  15
BRANCH   7  26
ATOM     26  N   UNL d   1      53.935  32.584  53.265  0.00  0.00    -0.227 NA
BRANCH  26  27
ATOM     27  C   UNL d   1      53.490  31.886  53.266  0.00  0.00     0.083 A 
ATOM     28  C   UNL d   1      53.510  31.386  53.918  0.00  0.00     0.021 A 
ATOM     29  C   UNL d   1      53.071  30.694  53.923  0.00  0.00     0.031 A 
ATOM     30  C   UNL d   1      52.604  30.499  53.262  0.00  0.00     0.140 A 
ATOM     31  C   UNL d   1      52.588  31.010  52.602  0.00  0.00     0.031 A 
ATOM     32  F   UNL d   1      52.166  29.807  53.266  0.00  0.00    -0.204 F 
ATOM     33  C   UNL d   1      53.033  31.699  52.615  0.00  0.00     0.021 A 
ENDBRANCH  26  27
ENDBRANCH   7  26
TORSDOF 5
ENDMDL
MODEL 2
REMARK VINA RESULT:      -5.3      1.928      3.959
REMARK  5 active torsions:
REMARK  status: ('A' for Active; 'I' for Inactive)
REMARK    1  A    between atoms: S_5  and  C_2 
REMARK    2  A    between atoms: C_12  and  S_5 
REMARK    3  A    between atoms: N_11  and  C_8 
REMARK    4  A    between atoms: C_19  and  N_11 
REMARK    5  A    between atoms: C_32  and  C_26 
ROOT
ATOM      1  C   UNL d   1      53.590  33.111  54.184  0.00  0.00     0.197 A 
ATOM      2  C   UNL d   1      54.025  32.420  54.077  0.00  0.00     0.227 A 
ATOM      3  N   UNL d   1      54.095  33.686  54.498  0.00  0.00    -0.192 N 
ATOM      4  N   UNL d   1      52.795  33.294  54.035  0.00  0.00    -0.206 NA
ATOM      5  N   UNL d   1      54.807  32.565  54.327  0.00  0.00    -0.115 NA
ATOM      6  N   UNL d   1      54.844  33.353  54.587  0.00  0.00    -0.058 NA
ATOM      7  C   UNL d   1      52.500  34.054  54.200  0.00  0.00     0.166 A 
ATOM      8  C   UNL d   1      53.012  34.623  54.514  0.00  0.00     0.054 A 
ATOM      9  C   UNL d   1      53.804  34.449  54.665  0.00  0.00     0.089 A 
ATOM     10  C   UNL d   1      54.312  35.019  54.979  0.00  0.00     0.020 A 
ATOM     11  C   UNL d   1      52.727  35.384  54.682  0.00  0.00     0.016 A 
ATOM     12  C   UNL d   1      53.233  35.955  54.996  0.00  0.00     0.058 A 
ATOM     13  C   UNL d   1      54.024  35.773  55.144  0.00  0.00     0.013 A 
ATOM     14 CL   UNL d   1      52.943  36.709  55.160  0.00  0.00    -0.082 Cl
ENDROOT
BRANCH   2  15
ATOM     15  S   UNL d   1      53.747  31.705  53.777  0.00  0.00     0.231 S 
ATOM     16  O   UNL d   1      53.915  31.928  53.003  0.00  0.00    -0.215 OA
ATOM     17  O   UNL d   1      53.579  31.484  54.553  0.00  0.00    -0.215 OA
BRANCH  15  18
ATOM     18  C   UNL d   1      53.456  30.972  53.539  0.00  0.00     0.090 A 
ATOM     19  C   UNL d   1      53.418  30.350  54.063  0.00  0.00     0.011 A 
ATOM     20  C   UNL d   1      53.129  29.620  53.827  0.00  0.00     0.001 A 
ATOM     21  C   UNL d   1      52.871  29.517  53.043  0.00  0.00     0.000 A 
ATOM     22  C   UNL d   1      52.910  30.150  52.512  0.00  0.00     0.001 A 
ATOM     23  C   UNL d   1      53.200  30.874  52.754  0.00  0.00     0.011 A 
BRANCH  21  24
ATOM     24  C   UNL d   1      52.582  28.791  52.804  0.00  0.00     0.000 C 
ATOM     25  C   UNL d   1      51.900  28.475  53.152  0.00  0.00     0.000 C 
ENDBRANCH  21  24
ENDBRANCH  15  18
ENDBRANCH   2  15
BRANCH   7  26
ATOM     26  N   UNL d   1      51.710  34.236  54.052  0.00  0.00    -0.227 NA
BRANCH  26  27
ATOM     27  C   UNL d   1      51.393  34.115  53.298  0.00  0.00     0.083 A 
ATOM     28  C   UNL d   1      51.694  34.527  52.653  0.00  0.00     0.021 A 
ATOM     29  C   UNL d   1      51.383  34.410  51.904  0.00  0.00     0.031 A 
ATOM     30  C   UNL d   1      50.758  33.869  51.799  0.00  0.00     0.140 A 
ATOM     31  C   UNL d   1      50.457  33.453  52.457  0.00  0.00     0.031 A 
ATOM     32  F   UNL d   1      50.447  33.751  51.051  0.00  0.00    -0.204 F 
ATOM     33  C   UNL d   1      50.780  33.583  53.199  0.00  0.00     0.021 A 
ENDBRANCH  26  27
ENDBRANCH   7  26
TORSDOF 5
ENDMDL
