MODEL 1
REMARK VINA RESULT:       1.4      0.000      0.000
REMARK  7 active torsions:
REMARK  status: ('A' for Active; 'I' for Inactive)
REMARK    1  A    between atoms: C_10  and  N_2 
REMARK    2  A    between atoms: S_11  and  C_5 
REMARK    3  A    between atoms: C_12  and  C_10 
REMARK    4  A    between atoms: C_22  and  S_11 
REMARK    5  A    between atoms: C_14  and  C_22 
REMARK       I    between atoms: N_16  and  C_14 
REMARK    6  A    between atoms: C_23  and  N_16 
REMARK    7  A    between atoms: C_24  and  C_23 
ROOT
ATOM      1  C   UNL d   1      32.401  22.416 -22.450  0.00  0.00     0.104 A 
ATOM      2  N   UNL d   1      32.356  21.340 -21.520  0.00  0.00    -0.250 N 
ATOM      3  C   UNL d   1      32.678  21.895 -23.038  0.00  0.00     0.095 A 
ATOM      4  C   UNL d   1      32.242  22.134 -21.692  0.00  0.00     0.274 A 
ATOM      5  C   UNL d   1      32.633  20.820 -22.108  0.00  0.00     0.182 A 
ATOM      6  N   UNL d   1      32.793  21.098 -22.862  0.00  0.00    -0.222 NA
ATOM      7  S   UNL d   1      32.343  23.176 -22.795  0.00  0.00    -0.081 SA
ATOM      8  C   UNL d   1      32.787  22.342 -23.737  0.00  0.00     0.024 A 
ATOM      9  C   UNL d   1      32.583  23.122 -23.588  0.00  0.00     0.031 A 
ATOM     10  O   UNL d   1      31.962  22.658 -21.100  0.00  0.00    -0.266 OA
ATOM     11  C   UNL d   1      33.049  22.123 -24.488  0.00  0.00     0.002 A 
ATOM     12  C   UNL d   1      32.633  23.700 -24.179  0.00  0.00     0.006 A 
ATOM     13  C   UNL d   1      33.106  22.686 -25.092  0.00  0.00     0.000 A 
ATOM     14  C   UNL d   1      32.897  23.477 -24.934  0.00  0.00     0.001 A 
ENDROOT
BRANCH   5  15
ATOM     15  S   UNL d   1      32.750  20.011 -21.932  0.00  0.00    -0.044 SA
BRANCH  15  16
ATOM     16  C   UNL d   1      32.616  19.434 -22.525  0.00  0.00     0.101 C 
BRANCH  16  17
ATOM     17  C   UNL d   1      32.823  18.651 -22.386  0.00  0.00     0.286 C 
ATOM     18  N   UNL d   1      32.625  18.074 -22.942  0.00  0.00    -0.204 NA
ATOM     19  O   UNL d   1      33.227  18.446 -21.697  0.00  0.00    -0.265 OA
BRANCH  18  20
ATOM     20  C   UNL d   1      32.832  17.288 -22.804  0.00  0.00     0.127 C 
BRANCH  20  21
ATOM     21  C   UNL d   1      32.594  16.703 -23.331  0.00  0.00     0.119 A 
ATOM     22  O   UNL d   1      32.558  16.601 -24.149  0.00  0.00    -0.304 OA
ATOM     23  C   UNL d   1      32.249  15.855 -24.302  0.00  0.00     0.123 A 
ATOM     24  C   UNL d   1      32.093  15.492 -23.576  0.00  0.00     0.029 A 
ATOM     25  C   UNL d   1      32.307  16.019 -22.984  0.00  0.00     0.028 A 
ENDBRANCH  20  21
ENDBRANCH  18  20
ENDBRANCH  16  17
ENDBRANCH  15  16
ENDBRANCH   5  15
BRANCH   2  26
ATOM     26  C   UNL d   1      32.196  21.052 -20.757  0.00  0.00     0.110 C 
BRANCH  26  27
ATOM     27  C   UNL d   1      32.607  21.352 -20.101  0.00  0.00     0.118 A 
ATOM     28  O   UNL d   1      32.815  22.130 -19.996  0.00  0.00    -0.304 OA
ATOM     29  C   UNL d   1      33.205  22.189 -19.294  0.00  0.00     0.123 A 
ATOM     30  C   UNL d   1      33.241  21.457 -18.963  0.00  0.00     0.029 A 
ATOM     31  C   UNL d   1      32.872  20.946 -19.463  0.00  0.00     0.028 A 
ENDBRANCH  26  27
ENDBRANCH   2  26
TORSDOF 7
ENDMDL
