MODEL 1
REMARK VINA RESULT:      33.0      0.000      0.000
REMARK  8 active torsions:
REMARK  status: ('A' for Active; 'I' for Inactive)
REMARK    1  A    between atoms: S_10  and  C_2 
REMARK    2  A    between atoms: C_7  and  C_4 
REMARK    3  A    between atoms: C_17  and  S_10 
REMARK    4  A    between atoms: C_14  and  C_17 
REMARK    5  A    between atoms: O_18  and  C_14 
REMARK    6  A    between atoms: O_19  and  C_15 
REMARK    7  A    between atoms: C_22  and  O_18 
REMARK    8  A    between atoms: C_23  and  O_19 
ROOT
ATOM      1  C   UNL d   1      45.039 -14.772  44.496  0.00  0.00     0.093 A 
ATOM      2  C   UNL d   1      44.523 -15.423  44.551  0.00  0.00     0.124 A 
ATOM      3  N   UNL d   1      43.708 -15.310  44.478  0.00  0.00    -0.200 NA
ATOM      4  C   UNL d   1      44.733 -14.015  44.368  0.00  0.00     0.028 A 
ATOM      5  C   UNL d   1      43.922 -13.904  44.296  0.00  0.00     0.127 A 
ATOM      6  C   UNL d   1      43.406 -14.556  44.352  0.00  0.00     0.289 A 
ATOM      7  C   UNL d   1      45.847 -14.880  44.567  0.00  0.00     0.103 C 
ATOM      8  C   UNL d   1      43.617 -13.149  44.169  0.00  0.00     0.106 C 
ATOM      9  N   UNL d   1      46.647 -14.993  44.639  0.00  0.00    -0.191 NA
ATOM     10  N   UNL d   1      43.316 -12.406  44.043  0.00  0.00    -0.191 NA
ATOM     11  O   UNL d   1      42.530 -14.381  44.266  0.00  0.00    -0.264 OA
ENDROOT
BRANCH   2  12
ATOM     12  S   UNL d   1      44.899 -16.193  44.686  0.00  0.00    -0.061 SA
BRANCH  12  13
ATOM     13  C   UNL d   1      45.433 -16.635  44.158  0.00  0.00     0.105 C 
BRANCH  13  14
ATOM     14  C   UNL d   1      45.630 -17.461  44.346  0.00  0.00     0.307 C 
ATOM     15  O   UNL d   1      45.746 -17.625  44.834  0.00  0.00    -0.258 OA
BRANCH  14  16
ATOM     16  O   UNL d   1      45.621 -18.007  43.648  0.00  0.00    -0.271 OA
BRANCH  16  17
ATOM     17  C   UNL d   1      46.253 -18.652  43.655  0.00  0.00     0.126 C 
ATOM     18  C   UNL d   1      46.184 -19.122  42.846  0.00  0.00     0.029 C 
ENDBRANCH  16  17
ENDBRANCH  14  16
ENDBRANCH  13  14
ENDBRANCH  12  13
ENDBRANCH   2  12
BRANCH   4  19
ATOM     19  C   UNL d   1      45.242 -13.373  44.313  0.00  0.00     0.024 A 
ATOM     20  C   UNL d   1      45.273 -12.931  43.621  0.00  0.00     0.100 A 
ATOM     21  C   UNL d   1      45.785 -12.285  43.566  0.00  0.00     0.025 A 
ATOM     22  C   UNL d   1      46.265 -12.082  44.203  0.00  0.00     0.002 A 
ATOM     23  C   UNL d   1      46.233 -12.527  44.900  0.00  0.00     0.000 A 
ATOM     24  C   UNL d   1      45.721 -13.173  44.955  0.00  0.00     0.002 A 
BRANCH  20  25
ATOM     25  O   UNL d   1      44.901 -13.038  43.040  0.00  0.00    -0.305 OA
BRANCH  25  26
ATOM     26  C   UNL d   1      45.045 -12.503  42.456  0.00  0.00     0.123 C 
ATOM     27  C   UNL d   1      45.275 -12.846  41.624  0.00  0.00     0.029 C 
ENDBRANCH  25  26
ENDBRANCH  20  25
ENDBRANCH   4  19
TORSDOF 8
ENDMDL
MODEL 2
REMARK VINA RESULT:      35.0      1.985      5.392
REMARK  8 active torsions:
REMARK  status: ('A' for Active; 'I' for Inactive)
REMARK    1  A    between atoms: S_10  and  C_2 
REMARK    2  A    between atoms: C_7  and  C_4 
REMARK    3  A    between atoms: C_17  and  S_10 
REMARK    4  A    between atoms: C_14  and  C_17 
REMARK    5  A    between atoms: O_18  and  C_14 
REMARK    6  A    between atoms: O_19  and  C_15 
REMARK    7  A    between atoms: C_22  and  O_18 
REMARK    8  A    between atoms: C_23  and  O_19 
ROOT
ATOM      1  C   UNL d   1      45.944 -17.421  43.175  0.00  0.00     0.093 A 
ATOM      2  C   UNL d   1      46.011 -17.185  43.971  0.00  0.00     0.124 A 
ATOM      3  N   UNL d   1      46.235 -17.735  44.545  0.00  0.00    -0.200 NA
ATOM      4  C   UNL d   1      46.103 -18.203  42.963  0.00  0.00     0.028 A 
ATOM      5  C   UNL d   1      46.327 -18.749  43.536  0.00  0.00     0.127 A 
ATOM      6  C   UNL d   1      46.393 -18.513  44.332  0.00  0.00     0.289 A 
ATOM      7  C   UNL d   1      45.722 -16.879  42.603  0.00  0.00     0.103 C 
ATOM      8  C   UNL d   1      46.485 -19.530  43.324  0.00  0.00     0.106 C 
ATOM      9  N   UNL d   1      45.501 -16.339  42.039  0.00  0.00    -0.191 NA
ATOM     10  N   UNL d   1      46.641 -20.298  43.117  0.00  0.00    -0.191 NA
ATOM     11  O   UNL d   1      46.640 -19.146  44.918  0.00  0.00    -0.264 OA
ENDROOT
BRANCH   2  12
ATOM     12  S   UNL d   1      45.832 -16.352  44.134  0.00  0.00    -0.061 SA
BRANCH  12  13
ATOM     13  C   UNL d   1      45.471 -16.005  44.848  0.00  0.00     0.105 C 
BRANCH  13  14
ATOM     14  C   UNL d   1      45.176 -15.188  44.820  0.00  0.00     0.307 C 
ATOM     15  O   UNL d   1      44.667 -15.067  44.745  0.00  0.00    -0.258 OA
BRANCH  14  16
ATOM     16  O   UNL d   1      45.802 -14.569  44.928  0.00  0.00    -0.271 OA
BRANCH  16  17
ATOM     17  C   UNL d   1      45.930 -14.021  44.222  0.00  0.00     0.126 C 
ATOM     18  C   UNL d   1      45.679 -13.158  44.487  0.00  0.00     0.029 C 
ENDBRANCH  16  17
ENDBRANCH  14  16
ENDBRANCH  13  14
ENDBRANCH  12  13
ENDBRANCH   2  12
BRANCH   4  19
ATOM     19  C   UNL d   1      46.038 -18.435  42.178  0.00  0.00     0.024 A 
ATOM     20  C   UNL d   1      45.388 -18.875  41.933  0.00  0.00     0.100 A 
ATOM     21  C   UNL d   1      45.322 -19.109  41.143  0.00  0.00     0.025 A 
ATOM     22  C   UNL d   1      45.906 -18.903  40.600  0.00  0.00     0.002 A 
ATOM     23  C   UNL d   1      46.560 -18.461  40.848  0.00  0.00     0.000 A 
ATOM     24  C   UNL d   1      46.626 -18.227  41.637  0.00  0.00     0.002 A 
BRANCH  20  25
ATOM     25  O   UNL d   1      44.854 -19.088  42.328  0.00  0.00    -0.305 OA
BRANCH  25  26
ATOM     26  C   UNL d   1      44.313 -19.536  41.934  0.00  0.00     0.123 C 
ATOM     27  C   UNL d   1      43.620 -19.893  42.440  0.00  0.00     0.029 C 
ENDBRANCH  25  26
ENDBRANCH  20  25
ENDBRANCH   4  19
TORSDOF 8
ENDMDL
