MODEL 1
REMARK VINA RESULT:      -1.2      0.000      0.000
REMARK  8 active torsions:
REMARK  status: ('A' for Active; 'I' for Inactive)
REMARK    1  A    between atoms: C_5  and  C_1 
REMARK    2  A    between atoms: C_9  and  N_2 
REMARK    3  A    between atoms: C_8  and  C_5 
REMARK    4  A    between atoms: C_7  and  C_9 
REMARK       I    between atoms: N_12  and  C_7 
REMARK       I    between atoms: N_10  and  C_8 
REMARK    5  A    between atoms: C_20  and  N_10 
REMARK    6  A    between atoms: C_11  and  C_20 
REMARK    7  A    between atoms: C_23  and  N_12 
REMARK    8  A    between atoms: C_24  and  N_12 
ROOT
ATOM      1  C   UNL d   1     -41.359-122.405 -51.916  0.00  0.00     0.063 A 
ATOM      2  N   UNL d   1     -41.348-122.818 -50.642  0.00  0.00    -0.300 N 
ATOM      3  C   UNL d   1     -41.404-123.079 -51.422  0.00  0.00     0.084 A 
ATOM      4  C   UNL d   1     -41.276-121.740 -51.435  0.00  0.00     0.021 A 
ATOM      5  C   UNL d   1     -41.270-122.000 -50.641  0.00  0.00     0.064 A 
ATOM      6  C   UNL d   1     -41.206-120.944 -51.605  0.00  0.00     0.002 A 
ATOM      7  C   UNL d   1     -41.193-121.446 -50.035  0.00  0.00     0.018 A 
ATOM      8  C   UNL d   1     -41.129-120.387 -50.995  0.00  0.00     0.000 A 
ATOM      9  C   UNL d   1     -41.123-120.645 -50.211  0.00  0.00     0.002 A 
ENDROOT
BRANCH   1  10
ATOM     10  C   UNL d   1     -41.392-122.412 -52.738  0.00  0.00     0.254 C 
ATOM     11  O   UNL d   1     -41.123-121.754 -53.162  0.00  0.00    -0.281 OA
BRANCH  10  12
ATOM     12  C   UNL d   1     -41.689-123.066 -53.141  0.00  0.00     0.318 C 
ATOM     13  N   UNL d   1     -42.069-122.964 -53.866  0.00  0.00    -0.202 NA
ATOM     14  O   UNL d   1     -41.604-123.816 -52.813  0.00  0.00    -0.262 OA
BRANCH  13  15
ATOM     15  C   UNL d   1     -42.148-122.216 -54.182  0.00  0.00     0.127 C 
BRANCH  15  16
ATOM     16  C   UNL d   1     -42.398-122.123 -54.955  0.00  0.00     0.119 A 
ATOM     17  O   UNL d   1     -43.152-121.890 -55.206  0.00  0.00    -0.304 OA
ATOM     18  C   UNL d   1     -43.165-121.867 -56.033  0.00  0.00     0.123 A 
ATOM     19  C   UNL d   1     -42.407-122.088 -56.305  0.00  0.00     0.029 A 
ATOM     20  C   UNL d   1     -41.943-122.243 -55.649  0.00  0.00     0.028 A 
ENDBRANCH  15  16
ENDBRANCH  13  15
ENDBRANCH  10  12
ENDBRANCH   1  10
BRANCH   2  21
ATOM     21  C   UNL d   1     -41.368-123.299 -49.972  0.00  0.00     0.142 C 
BRANCH  21  22
ATOM     22  C   UNL d   1     -42.079-123.451 -49.594  0.00  0.00     0.282 C 
ATOM     23  N   UNL d   1     -42.088-123.664 -48.797  0.00  0.00    -0.271 N 
ATOM     24  O   UNL d   1     -42.789-123.391 -50.013  0.00  0.00    -0.265 OA
BRANCH  23  25
ATOM     25  C   UNL d   1     -42.808-123.817 -48.419  0.00  0.00     0.083 C 
ATOM     26  C   UNL d   1     -42.885-123.676 -47.610  0.00  0.00     0.021 C 
ENDBRANCH  23  25
BRANCH  23  27
ATOM     27  C   UNL d   1     -41.381-123.725 -48.378  0.00  0.00     0.083 C 
ATOM     28  C   UNL d   1     -41.303-123.357 -47.648  0.00  0.00     0.021 C 
ENDBRANCH  23  27
ENDBRANCH  21  22
ENDBRANCH   2  21
TORSDOF 8
ENDMDL
