MODEL 1
REMARK VINA RESULT:      36.5      0.000      0.000
REMARK  6 active torsions:
REMARK  status: ('A' for Active; 'I' for Inactive)
REMARK       I    between atoms: N_2  and  C_1 
REMARK    1  A    between atoms: C_3  and  C_1 
REMARK    2  A    between atoms: C_5  and  N_2 
REMARK    3  A    between atoms: C_6  and  C_3 
REMARK    4  A    between atoms: C_8  and  C_5 
REMARK    5  A    between atoms: O_7  and  C_6 
REMARK    6  A    between atoms: C_9  and  O_7 
ROOT
ATOM      1  C   UNL d   1     -49.430  27.183  33.768  0.00  0.00     0.330 C 
ATOM      2  N   UNL d   1     -50.156  26.885  33.537  0.00  0.00    -0.362 NA
ATOM      3  O   UNL d   1     -48.742  26.834  33.501  0.00  0.00    -0.251 OA
ENDROOT
BRANCH   1   4
ATOM      4  C   UNL d   1     -49.397  27.828  34.263  0.00  0.00     0.103 C 
BRANCH   4   5
ATOM      5  C   UNL d   1     -48.692  27.991  34.671  0.00  0.00     0.129 C 
BRANCH   5   6
ATOM      6  O   UNL d   1     -48.708  28.483  35.344  0.00  0.00    -0.305 OA
BRANCH   6   7
ATOM      7  C   UNL d   1     -48.189  29.125  35.403  0.00  0.00     0.100 A 
ATOM      8  C   UNL d   1     -48.086  29.621  34.773  0.00  0.00     0.025 A 
ATOM      9  C   UNL d   1     -47.563  30.272  34.824  0.00  0.00     0.002 A 
ATOM     10  C   UNL d   1     -47.154  30.395  35.535  0.00  0.00     0.000 A 
ATOM     11  C   UNL d   1     -47.257  29.899  36.165  0.00  0.00     0.002 A 
ATOM     12  C   UNL d   1     -47.773  29.260  36.109  0.00  0.00     0.025 A 
ENDBRANCH   6   7
ENDBRANCH   5   6
ENDBRANCH   4   5
ENDBRANCH   1   4
BRANCH   2  13
ATOM     13  C   UNL d   1     -50.894  26.598  33.315  0.00  0.00     0.165 C 
BRANCH  13  14
ATOM     14  C   UNL d   1     -51.055  25.793  33.312  0.00  0.00     0.032 A 
ATOM     15  C   UNL d   1     -50.434  25.251  33.311  0.00  0.00     0.003 A 
ATOM     16  C   UNL d   1     -50.597  24.434  33.308  0.00  0.00     0.000 A 
ATOM     17  C   UNL d   1     -51.380  24.168  33.306  0.00  0.00     0.000 A 
ATOM     18  C   UNL d   1     -51.993  24.713  33.307  0.00  0.00     0.000 A 
ATOM     19  C   UNL d   1     -51.830  25.530  33.310  0.00  0.00     0.003 A 
ENDBRANCH  13  14
ENDBRANCH   2  13
TORSDOF 6
ENDMDL
MODEL 2
REMARK VINA RESULT:      38.1      0.731      1.012
REMARK  6 active torsions:
REMARK  status: ('A' for Active; 'I' for Inactive)
REMARK       I    between atoms: N_2  and  C_1 
REMARK    1  A    between atoms: C_3  and  C_1 
REMARK    2  A    between atoms: C_5  and  N_2 
REMARK    3  A    between atoms: C_6  and  C_3 
REMARK    4  A    between atoms: C_8  and  C_5 
REMARK    5  A    between atoms: O_7  and  C_6 
REMARK    6  A    between atoms: C_9  and  O_7 
ROOT
ATOM      1  C   UNL d   1     -49.524  27.367  34.682  0.00  0.00     0.330 C 
ATOM      2  N   UNL d   1     -49.885  27.092  34.002  0.00  0.00    -0.362 NA
ATOM      3  O   UNL d   1     -49.930  27.364  35.390  0.00  0.00    -0.251 OA
ENDROOT
BRANCH   1   4
ATOM      4  C   UNL d   1     -48.760  27.645  34.649  0.00  0.00     0.103 C 
BRANCH   4   5
ATOM      5  C   UNL d   1     -48.622  28.463  34.706  0.00  0.00     0.129 C 
BRANCH   5   6
ATOM      6  O   UNL d   1     -48.391  28.793  35.436  0.00  0.00    -0.305 OA
BRANCH   6   7
ATOM      7  C   UNL d   1     -47.979  29.510  35.456  0.00  0.00     0.100 A 
ATOM      8  C   UNL d   1     -48.200  30.118  34.973  0.00  0.00     0.025 A 
ATOM      9  C   UNL d   1     -47.789  30.846  34.987  0.00  0.00     0.002 A 
ATOM     10  C   UNL d   1     -47.149  30.927  35.509  0.00  0.00     0.000 A 
ATOM     11  C   UNL d   1     -46.927  30.319  35.992  0.00  0.00     0.002 A 
ATOM     12  C   UNL d   1     -47.336  29.605  35.974  0.00  0.00     0.025 A 
ENDBRANCH   6   7
ENDBRANCH   5   6
ENDBRANCH   4   5
ENDBRANCH   1   4
BRANCH   2  13
ATOM     13  C   UNL d   1     -50.234  26.818  33.309  0.00  0.00     0.165 C 
BRANCH  13  14
ATOM     14  C   UNL d   1     -50.717  26.154  33.308  0.00  0.00     0.032 A 
ATOM     15  C   UNL d   1     -51.537  26.244  33.309  0.00  0.00     0.003 A 
ATOM     16  C   UNL d   1     -52.027  25.570  33.308  0.00  0.00     0.000 A 
ATOM     17  C   UNL d   1     -51.692  24.814  33.307  0.00  0.00     0.000 A 
ATOM     18  C   UNL d   1     -50.876  24.732  33.306  0.00  0.00     0.000 A 
ATOM     19  C   UNL d   1     -50.386  25.406  33.307  0.00  0.00     0.003 A 
ENDBRANCH  13  14
ENDBRANCH   2  13
TORSDOF 6
ENDMDL
MODEL 3
REMARK VINA RESULT:      38.8      0.949      5.431
REMARK  6 active torsions:
REMARK  status: ('A' for Active; 'I' for Inactive)
REMARK       I    between atoms: N_2  and  C_1 
REMARK    1  A    between atoms: C_3  and  C_1 
REMARK    2  A    between atoms: C_5  and  N_2 
REMARK    3  A    between atoms: C_6  and  C_3 
REMARK    4  A    between atoms: C_8  and  C_5 
REMARK    5  A    between atoms: O_7  and  C_6 
REMARK    6  A    between atoms: C_9  and  O_7 
ROOT
ATOM      1  C   UNL d   1     -48.727  28.068  34.894  0.00  0.00     0.330 C 
ATOM      2  N   UNL d   1     -48.048  28.525  34.913  0.00  0.00    -0.362 NA
ATOM      3  O   UNL d   1     -49.138  27.918  35.583  0.00  0.00    -0.251 OA
ENDROOT
BRANCH   1   4
ATOM      4  C   UNL d   1     -48.988  27.764  34.186  0.00  0.00     0.103 C 
BRANCH   4   5
ATOM      5  C   UNL d   1     -49.619  27.223  34.184  0.00  0.00     0.129 C 
BRANCH   5   6
ATOM      6  O   UNL d   1     -50.024  27.061  33.474  0.00  0.00    -0.305 OA
BRANCH   6   7
ATOM      7  C   UNL d   1     -50.518  26.400  33.418  0.00  0.00     0.100 A 
ATOM      8  C   UNL d   1     -51.321  26.496  33.405  0.00  0.00     0.025 A 
ATOM      9  C   UNL d   1     -51.829  25.833  33.349  0.00  0.00     0.002 A 
ATOM     10  C   UNL d   1     -51.488  25.078  33.306  0.00  0.00     0.000 A 
ATOM     11  C   UNL d   1     -50.685  24.983  33.318  0.00  0.00     0.002 A 
ATOM     12  C   UNL d   1     -50.191  25.638  33.374  0.00  0.00     0.025 A 
ENDBRANCH   6   7
ENDBRANCH   5   6
ENDBRANCH   4   5
ENDBRANCH   1   4
BRANCH   2  13
ATOM     13  C   UNL d   1     -47.364  28.982  34.914  0.00  0.00     0.165 C 
BRANCH  13  14
ATOM     14  C   UNL d   1     -47.379  29.769  35.148  0.00  0.00     0.032 A 
ATOM     15  C   UNL d   1     -47.327  29.959  35.949  0.00  0.00     0.003 A 
ATOM     16  C   UNL d   1     -47.342  30.758  36.187  0.00  0.00     0.000 A 
ATOM     17  C   UNL d   1     -47.407  31.357  35.621  0.00  0.00     0.000 A 
ATOM     18  C   UNL d   1     -47.458  31.160  34.826  0.00  0.00     0.000 A 
ATOM     19  C   UNL d   1     -47.443  30.362  34.589  0.00  0.00     0.003 A 
ENDBRANCH  13  14
ENDBRANCH   2  13
TORSDOF 6
ENDMDL
