MODEL 1
REMARK VINA RESULT:     -10.3      0.000      0.000
REMARK  5 active torsions:
REMARK  status: ('A' for Active; 'I' for Inactive)
REMARK    1  A    between atoms: C_4  and  C_1 
REMARK       I    between atoms: N_2  and  C_3 
REMARK    2  A    between atoms: C_6  and  N_2 
REMARK    3  A    between atoms: C_3  and  C_5 
REMARK    4  A    between atoms: C_5  and  C_7 
REMARK    5  A    between atoms: C_7  and  C_14 
ROOT
ATOM      1  C   UNL d   1      53.320  32.004  53.295  0.00  0.00     0.062 C 
ENDROOT
BRANCH   1   2
ATOM      2  C   UNL d   1      53.434  32.756  53.577  0.00  0.00     0.279 C 
ATOM      3  N   UNL d   1      52.790  33.261  53.644  0.00  0.00    -0.208 NA
ATOM      4  O   UNL d   1      54.175  33.005  53.790  0.00  0.00    -0.265 OA
BRANCH   3   5
ATOM      5  C   UNL d   1      52.902  34.033  53.932  0.00  0.00     0.085 A 
ATOM      6  C   UNL d   1      52.504  34.661  53.561  0.00  0.00     0.018 A 
ATOM      7  C   UNL d   1      52.008  34.514  52.919  0.00  0.00     0.002 C 
ATOM      8  C   UNL d   1      52.608  35.434  53.839  0.00  0.00     0.002 A 
ATOM      9  C   UNL d   1      53.101  35.579  54.477  0.00  0.00     0.000 A 
ATOM     10  C   UNL d   1      53.491  34.955  54.839  0.00  0.00     0.002 A 
ATOM     11  C   UNL d   1      53.395  34.178  54.570  0.00  0.00     0.019 A 
ENDBRANCH   3   5
ENDBRANCH   1   2
BRANCH   1  12
ATOM     12  C   UNL d   1      53.718  31.365  53.649  0.00  0.00     0.005 C 
BRANCH  12  13
ATOM     13  C   UNL d   1      53.411  30.598  53.611  0.00  0.00     0.000 A 
ATOM     14  C   UNL d   1      53.547  30.082  54.226  0.00  0.00     0.004 A 
ATOM     15  C   UNL d   1      53.230  29.321  54.168  0.00  0.00     0.071 A 
ATOM     16  C   UNL d   1      52.799  29.074  53.538  0.00  0.00     0.004 A 
ATOM     17  C   UNL d   1      52.663  29.589  52.924  0.00  0.00    -0.000 A 
ATOM     18  C   UNL d   1      52.959  30.341  52.949  0.00  0.00    -0.000 A 
BRANCH  15  19
ATOM     19  C   UNL d   1      53.380  28.812  54.805  0.00  0.00     0.419 C 
ATOM     20  F   UNL d   1      53.556  28.280  55.439  0.00  0.00    -0.166 F 
ATOM     21  F   UNL d   1      52.808  29.156  55.247  0.00  0.00    -0.166 F 
ATOM     22  F   UNL d   1      53.991  28.437  54.349  0.00  0.00    -0.166 F 
ENDBRANCH  15  19
ENDBRANCH  12  13
ENDBRANCH   1  12
TORSDOF 5
ENDMDL
MODEL 2
REMARK VINA RESULT:      -9.2      2.668      4.146
REMARK  5 active torsions:
REMARK  status: ('A' for Active; 'I' for Inactive)
REMARK    1  A    between atoms: C_4  and  C_1 
REMARK       I    between atoms: N_2  and  C_3 
REMARK    2  A    between atoms: C_6  and  N_2 
REMARK    3  A    between atoms: C_3  and  C_5 
REMARK    4  A    between atoms: C_5  and  C_7 
REMARK    5  A    between atoms: C_7  and  C_14 
ROOT
ATOM      1  C   UNL d   1      51.351  34.219  53.135  0.00  0.00     0.062 C 
ENDROOT
BRANCH   1   2
ATOM      2  C   UNL d   1      50.783  34.357  52.573  0.00  0.00     0.279 C 
ATOM      3  N   UNL d   1      50.020  34.547  52.810  0.00  0.00    -0.208 NA
ATOM      4  O   UNL d   1      50.968  34.307  51.785  0.00  0.00    -0.265 OA
BRANCH   3   5
ATOM      5  C   UNL d   1      49.435  34.689  52.236  0.00  0.00     0.085 A 
ATOM      6  C   UNL d   1      48.793  35.179  52.431  0.00  0.00     0.018 A 
ATOM      7  C   UNL d   1      48.742  35.514  53.183  0.00  0.00     0.002 C 
ATOM      8  C   UNL d   1      48.204  35.327  51.868  0.00  0.00     0.002 A 
ATOM      9  C   UNL d   1      48.255  34.994  51.121  0.00  0.00     0.000 A 
ATOM     10  C   UNL d   1      48.892  34.512  50.935  0.00  0.00     0.002 A 
ATOM     11  C   UNL d   1      49.486  34.356  51.490  0.00  0.00     0.019 A 
ENDBRANCH   3   5
ENDBRANCH   1   2
BRANCH   1  12
ATOM     12  C   UNL d   1      52.146  34.131  52.909  0.00  0.00     0.005 C 
BRANCH  12  13
ATOM     13  C   UNL d   1      52.726  33.927  53.461  0.00  0.00     0.000 A 
ATOM     14  C   UNL d   1      53.135  33.229  53.372  0.00  0.00     0.004 A 
ATOM     15  C   UNL d   1      53.711  33.045  53.937  0.00  0.00     0.071 A 
ATOM     16  C   UNL d   1      53.880  33.521  54.559  0.00  0.00     0.004 A 
ATOM     17  C   UNL d   1      53.471  34.218  54.648  0.00  0.00    -0.000 A 
ATOM     18  C   UNL d   1      52.902  34.428  54.115  0.00  0.00    -0.000 A 
BRANCH  15  19
ATOM     19  C   UNL d   1      54.115  32.329  53.827  0.00  0.00     0.419 C 
ATOM     20  F   UNL d   1      54.548  31.614  53.698  0.00  0.00    -0.166 F 
ATOM     21  F   UNL d   1      53.574  31.929  54.260  0.00  0.00    -0.166 F 
ATOM     22  F   UNL d   1      54.698  32.740  53.365  0.00  0.00    -0.166 F 
ENDBRANCH  15  19
ENDBRANCH  12  13
ENDBRANCH   1  12
TORSDOF 5
ENDMDL
MODEL 3
REMARK VINA RESULT:      -9.2      2.671      3.798
REMARK  5 active torsions:
REMARK  status: ('A' for Active; 'I' for Inactive)
REMARK    1  A    between atoms: C_4  and  C_1 
REMARK       I    between atoms: N_2  and  C_3 
REMARK    2  A    between atoms: C_6  and  N_2 
REMARK    3  A    between atoms: C_3  and  C_5 
REMARK    4  A    between atoms: C_5  and  C_7 
REMARK    5  A    between atoms: C_7  and  C_14 
ROOT
ATOM      1  C   UNL d   1      51.782  33.778  53.211  0.00  0.00     0.062 C 
ENDROOT
BRANCH   1   2
ATOM      2  C   UNL d   1      51.219  34.039  52.689  0.00  0.00     0.279 C 
ATOM      3  N   UNL d   1      50.455  34.172  52.957  0.00  0.00    -0.208 NA
ATOM      4  O   UNL d   1      51.410  34.168  51.912  0.00  0.00    -0.265 OA
BRANCH   3   5
ATOM      5  C   UNL d   1      49.874  34.440  52.425  0.00  0.00     0.085 A 
ATOM      6  C   UNL d   1      49.295  34.971  52.697  0.00  0.00     0.018 A 
ATOM      7  C   UNL d   1      49.303  35.223  53.482  0.00  0.00     0.002 C 
ATOM      8  C   UNL d   1      48.712  35.244  52.176  0.00  0.00     0.002 A 
ATOM      9  C   UNL d   1      48.706  34.993  51.396  0.00  0.00     0.000 A 
ATOM     10  C   UNL d   1      49.279  34.469  51.134  0.00  0.00     0.002 A 
ATOM     11  C   UNL d   1      49.868  34.189  51.645  0.00  0.00     0.019 A 
ENDBRANCH   3   5
ENDBRANCH   1   2
BRANCH   1  12
ATOM     12  C   UNL d   1      52.552  33.613  52.941  0.00  0.00     0.005 C 
BRANCH  12  13
ATOM     13  C   UNL d   1      53.054  33.112  53.367  0.00  0.00     0.000 A 
ATOM     14  C   UNL d   1      53.556  33.429  53.924  0.00  0.00     0.004 A 
ATOM     15  C   UNL d   1      54.049  32.909  54.337  0.00  0.00     0.071 A 
ATOM     16  C   UNL d   1      54.051  32.117  54.213  0.00  0.00     0.004 A 
ATOM     17  C   UNL d   1      53.550  31.802  53.657  0.00  0.00    -0.000 A 
ATOM     18  C   UNL d   1      53.055  32.280  53.235  0.00  0.00    -0.000 A 
BRANCH  15  19
ATOM     19  C   UNL d   1      54.552  33.252  54.900  0.00  0.00     0.419 C 
ATOM     20  F   UNL d   1      55.086  33.606  55.452  0.00  0.00    -0.166 F 
ATOM     21  F   UNL d   1      54.001  33.176  55.476  0.00  0.00    -0.166 F 
ATOM     22  F   UNL d   1      55.147  33.341  54.300  0.00  0.00    -0.166 F 
ENDBRANCH  15  19
ENDBRANCH  12  13
ENDBRANCH   1  12
TORSDOF 5
ENDMDL
MODEL 4
REMARK VINA RESULT:      -8.8      3.964      5.397
REMARK  5 active torsions:
REMARK  status: ('A' for Active; 'I' for Inactive)
REMARK    1  A    between atoms: C_4  and  C_1 
REMARK       I    between atoms: N_2  and  C_3 
REMARK    2  A    between atoms: C_6  and  N_2 
REMARK    3  A    between atoms: C_3  and  C_5 
REMARK    4  A    between atoms: C_5  and  C_7 
REMARK    5  A    between atoms: C_7  and  C_14 
ROOT
ATOM      1  C   UNL d   1      50.020  34.455  52.908  0.00  0.00     0.062 C 
ENDROOT
BRANCH   1   2
ATOM      2  C   UNL d   1      49.368  34.771  52.543  0.00  0.00     0.279 C 
ATOM      3  N   UNL d   1      48.877  35.276  52.965  0.00  0.00    -0.208 NA
ATOM      4  O   UNL d   1      49.204  34.590  51.771  0.00  0.00    -0.265 OA
BRANCH   3   5
ATOM      5  C   UNL d   1      48.208  35.603  52.595  0.00  0.00     0.085 A 
ATOM      6  C   UNL d   1      47.769  36.182  52.998  0.00  0.00     0.018 A 
ATOM      7  C   UNL d   1      47.999  36.424  53.752  0.00  0.00     0.002 C 
ATOM      8  C   UNL d   1      47.101  36.514  52.638  0.00  0.00     0.002 A 
ATOM      9  C   UNL d   1      46.873  36.273  51.889  0.00  0.00     0.000 A 
ATOM     10  C   UNL d   1      47.310  35.701  51.497  0.00  0.00     0.002 A 
ATOM     11  C   UNL d   1      47.980  35.361  51.846  0.00  0.00     0.019 A 
ENDBRANCH   3   5
ENDBRANCH   1   2
BRANCH   1  12
ATOM     12  C   UNL d   1      50.718  34.330  52.474  0.00  0.00     0.005 C 
BRANCH  12  13
ATOM     13  C   UNL d   1      51.421  34.113  52.851  0.00  0.00     0.000 A 
ATOM     14  C   UNL d   1      51.889  34.689  53.187  0.00  0.00     0.004 A 
ATOM     15  C   UNL d   1      52.587  34.449  53.559  0.00  0.00     0.071 A 
ATOM     16  C   UNL d   1      52.819  33.683  53.601  0.00  0.00     0.004 A 
ATOM     17  C   UNL d   1      52.352  33.108  53.266  0.00  0.00    -0.000 A 
ATOM     18  C   UNL d   1      51.663  33.307  52.895  0.00  0.00    -0.000 A 
BRANCH  15  19
ATOM     19  C   UNL d   1      53.048  35.051  53.894  0.00  0.00     0.419 C 
ATOM     20  F   UNL d   1      53.511  35.656  54.263  0.00  0.00    -0.166 F 
ATOM     21  F   UNL d   1      53.248  35.334  53.172  0.00  0.00    -0.166 F 
ATOM     22  F   UNL d   1      52.846  34.764  54.667  0.00  0.00    -0.166 F 
ENDBRANCH  15  19
ENDBRANCH  12  13
ENDBRANCH   1  12
TORSDOF 5
ENDMDL
MODEL 5
REMARK VINA RESULT:      -8.6      2.526      4.903
REMARK  5 active torsions:
REMARK  status: ('A' for Active; 'I' for Inactive)
REMARK    1  A    between atoms: C_4  and  C_1 
REMARK       I    between atoms: N_2  and  C_3 
REMARK    2  A    between atoms: C_6  and  N_2 
REMARK    3  A    between atoms: C_3  and  C_5 
REMARK    4  A    between atoms: C_5  and  C_7 
REMARK    5  A    between atoms: C_7  and  C_14 
ROOT
ATOM      1  C   UNL d   1      53.757  32.591  54.125  0.00  0.00     0.062 C 
ENDROOT
BRANCH   1   2
ATOM      2  C   UNL d   1      53.648  31.804  54.286  0.00  0.00     0.279 C 
ATOM      3  N   UNL d   1      53.508  31.283  53.667  0.00  0.00    -0.208 NA
ATOM      4  O   UNL d   1      53.676  31.535  55.051  0.00  0.00    -0.265 OA
BRANCH   3   5
ATOM      5  C   UNL d   1      53.395  30.475  53.829  0.00  0.00     0.085 A 
ATOM      6  C   UNL d   1      53.005  30.004  53.265  0.00  0.00     0.018 A 
ATOM      7  C   UNL d   1      52.738  30.339  52.561  0.00  0.00     0.002 C 
ATOM      8  C   UNL d   1      52.887  29.198  53.415  0.00  0.00     0.002 A 
ATOM      9  C   UNL d   1      53.153  28.866  54.115  0.00  0.00     0.000 A 
ATOM     10  C   UNL d   1      53.536  29.335  54.667  0.00  0.00     0.002 A 
ATOM     11  C   UNL d   1      53.660  30.143  54.529  0.00  0.00     0.019 A 
ENDBRANCH   3   5
ENDBRANCH   1   2
BRANCH   1  12
ATOM     12  C   UNL d   1      53.359  33.166  54.575  0.00  0.00     0.005 C 
BRANCH  12  13
ATOM     13  C   UNL d   1      53.118  33.880  54.236  0.00  0.00     0.000 A 
ATOM     14  C   UNL d   1      52.525  33.878  53.678  0.00  0.00     0.004 A 
ATOM     15  C   UNL d   1      52.301  34.605  53.353  0.00  0.00     0.071 A 
ATOM     16  C   UNL d   1      52.639  35.300  53.562  0.00  0.00     0.004 A 
ATOM     17  C   UNL d   1      53.231  35.302  54.119  0.00  0.00    -0.000 A 
ATOM     18  C   UNL d   1      53.475  34.611  54.457  0.00  0.00    -0.000 A 
BRANCH  15  19
ATOM     19  C   UNL d   1      51.695  34.580  52.786  0.00  0.00     0.419 C 
ATOM     20  F   UNL d   1      51.098  34.560  52.187  0.00  0.00    -0.166 F 
ATOM     21  F   UNL d   1      51.143  34.431  53.347  0.00  0.00    -0.166 F 
ATOM     22  F   UNL d   1      52.269  34.737  52.180  0.00  0.00    -0.166 F 
ENDBRANCH  15  19
ENDBRANCH  12  13
ENDBRANCH   1  12
TORSDOF 5
ENDMDL
MODEL 6
REMARK VINA RESULT:      -8.4      3.554      5.225
REMARK  5 active torsions:
REMARK  status: ('A' for Active; 'I' for Inactive)
REMARK    1  A    between atoms: C_4  and  C_1 
REMARK       I    between atoms: N_2  and  C_3 
REMARK    2  A    between atoms: C_6  and  N_2 
REMARK    3  A    between atoms: C_3  and  C_5 
REMARK    4  A    between atoms: C_5  and  C_7 
REMARK    5  A    between atoms: C_7  and  C_14 
ROOT
ATOM      1  C   UNL d   1      51.786  34.049  52.909  0.00  0.00     0.062 C 
ENDROOT
BRANCH   1   2
ATOM      2  C   UNL d   1      52.455  34.077  53.367  0.00  0.00     0.279 C 
ATOM      3  N   UNL d   1      52.775  33.378  53.654  0.00  0.00    -0.208 NA
ATOM      4  O   UNL d   1      52.802  34.789  53.539  0.00  0.00    -0.265 OA
BRANCH   3   5
ATOM      5  C   UNL d   1      53.461  33.403  54.124  0.00  0.00     0.085 A 
ATOM      6  C   UNL d   1      54.001  32.773  54.080  0.00  0.00     0.018 A 
ATOM      7  C   UNL d   1      53.853  32.137  53.576  0.00  0.00     0.002 C 
ATOM      8  C   UNL d   1      54.687  32.787  54.543  0.00  0.00     0.002 A 
ATOM      9  C   UNL d   1      54.833  33.419  55.044  0.00  0.00     0.000 A 
ATOM     10  C   UNL d   1      54.296  34.037  55.084  0.00  0.00     0.002 A 
ATOM     11  C   UNL d   1      53.606  34.035  54.625  0.00  0.00     0.019 A 
ENDBRANCH   3   5
ENDBRANCH   1   2
BRANCH   1  12
ATOM     12  C   UNL d   1      51.119  34.498  53.122  0.00  0.00     0.005 C 
BRANCH  12  13
ATOM     13  C   UNL d   1      50.452  34.527  52.633  0.00  0.00     0.000 A 
ATOM     14  C   UNL d   1      49.791  34.930  52.883  0.00  0.00     0.004 A 
ATOM     15  C   UNL d   1      49.136  34.947  52.378  0.00  0.00     0.071 A 
ATOM     16  C   UNL d   1      49.127  34.587  51.663  0.00  0.00     0.004 A 
ATOM     17  C   UNL d   1      49.788  34.184  51.413  0.00  0.00    -0.000 A 
ATOM     18  C   UNL d   1      50.445  34.148  51.881  0.00  0.00    -0.000 A 
BRANCH  15  19
ATOM     19  C   UNL d   1      48.473  35.363  52.653  0.00  0.00     0.419 C 
ATOM     20  F   UNL d   1      47.786  35.787  52.906  0.00  0.00    -0.166 F 
ATOM     21  F   UNL d   1      48.760  35.374  53.401  0.00  0.00    -0.166 F 
ATOM     22  F   UNL d   1      48.156  35.359  51.865  0.00  0.00    -0.166 F 
ENDBRANCH  15  19
ENDBRANCH  12  13
ENDBRANCH   1  12
TORSDOF 5
ENDMDL
MODEL 7
REMARK VINA RESULT:      -7.8      4.577      6.498
REMARK  5 active torsions:
REMARK  status: ('A' for Active; 'I' for Inactive)
REMARK    1  A    between atoms: C_4  and  C_1 
REMARK       I    between atoms: N_2  and  C_3 
REMARK    2  A    between atoms: C_6  and  N_2 
REMARK    3  A    between atoms: C_3  and  C_5 
REMARK    4  A    between atoms: C_5  and  C_7 
REMARK    5  A    between atoms: C_7  and  C_14 
ROOT
ATOM      1  C   UNL d   1      50.106  34.909  52.842  0.00  0.00     0.062 C 
ENDROOT
BRANCH   1   2
ATOM      2  C   UNL d   1      50.671  34.334  52.932  0.00  0.00     0.279 C 
ATOM      3  N   UNL d   1      51.455  34.554  53.032  0.00  0.00    -0.208 NA
ATOM      4  O   UNL d   1      50.462  33.551  52.923  0.00  0.00    -0.265 OA
BRANCH   3   5
ATOM      5  C   UNL d   1      52.038  33.968  53.124  0.00  0.00     0.085 A 
ATOM      6  C   UNL d   1      52.761  34.173  53.479  0.00  0.00     0.018 A 
ATOM      7  C   UNL d   1      52.892  34.947  53.732  0.00  0.00     0.002 C 
ATOM      8  C   UNL d   1      53.349  33.598  53.576  0.00  0.00     0.002 A 
ATOM      9  C   UNL d   1      53.218  32.829  53.324  0.00  0.00     0.000 A 
ATOM     10  C   UNL d   1      52.502  32.633  52.975  0.00  0.00     0.002 A 
ATOM     11  C   UNL d   1      51.907  33.200  52.872  0.00  0.00     0.019 A 
ENDBRANCH   3   5
ENDBRANCH   1   2
BRANCH   1  12
ATOM     12  C   UNL d   1      49.301  34.699  52.821  0.00  0.00     0.005 C 
BRANCH  12  13
ATOM     13  C   UNL d   1      48.709  35.274  52.871  0.00  0.00     0.000 A 
ATOM     14  C   UNL d   1      48.167  35.342  52.268  0.00  0.00     0.004 A 
ATOM     15  C   UNL d   1      47.584  35.924  52.339  0.00  0.00     0.071 A 
ATOM     16  C   UNL d   1      47.533  36.418  52.968  0.00  0.00     0.004 A 
ATOM     17  C   UNL d   1      48.076  36.350  53.570  0.00  0.00    -0.000 A 
ATOM     18  C   UNL d   1      48.658  35.792  53.534  0.00  0.00    -0.000 A 
BRANCH  15  19
ATOM     19  C   UNL d   1      47.041  35.976  51.714  0.00  0.00     0.419 C 
ATOM     20  F   UNL d   1      46.504  36.050  51.065  0.00  0.00    -0.166 F 
ATOM     21  F   UNL d   1      46.590  35.393  52.025  0.00  0.00    -0.166 F 
ATOM     22  F   UNL d   1      47.509  36.596  51.371  0.00  0.00    -0.166 F 
ENDBRANCH  15  19
ENDBRANCH  12  13
ENDBRANCH   1  12
TORSDOF 5
ENDMDL
