MODEL 1
REMARK VINA RESULT:      18.9      0.000      0.000
REMARK  0 active torsions:
REMARK  status: ('A' for Active; 'I' for Inactive)
REMARK       I    between atoms: C_3  and  N_1 
REMARK       I    between atoms: N_6  and  C_3 
ROOT
ATOM      1  N   UNL d   1      13.826  12.806  -2.704  0.00  0.00    -0.160 N 
ATOM      2  N   UNL d   1      13.631  12.025  -2.590  0.00  0.00    -0.056 NA
ATOM      3  C   UNL d   1      14.271  13.268  -2.148  0.00  0.00     0.357 C 
ATOM      4  N   UNL d   1      13.203  11.779  -3.250  0.00  0.00    -0.128 NA
ATOM      5  C   UNL d   1      13.526  13.050  -3.421  0.00  0.00     0.108 A 
ATOM      6  N   UNL d   1      14.535  12.939  -1.444  0.00  0.00    -0.252 N 
ATOM      7  C   UNL d   1      13.139  12.413  -3.761  0.00  0.00     0.122 A 
ATOM      8  O   UNL d   1      14.428  14.065  -2.342  0.00  0.00    -0.244 OA
ATOM      9  O   UNL d   1      15.066  12.278  -0.033  0.00  0.00    -0.300 OA
ATOM     10  C   UNL d   1      13.555  13.765  -3.808  0.00  0.00     0.021 A 
ATOM     11  C   UNL d   1      14.364  12.136  -1.272  0.00  0.00     0.111 A 
ATOM     12  C   UNL d   1      14.960  13.386  -0.917  0.00  0.00     0.111 A 
ATOM     13  C   UNL d   1      12.772  12.489  -4.502  0.00  0.00     0.022 A 
ATOM     14  C   UNL d   1      14.632  11.804  -0.562  0.00  0.00     0.142 A 
ATOM     15  C   UNL d   1      15.226  13.055  -0.209  0.00  0.00     0.142 A 
ATOM     16  C   UNL d   1      13.193  13.851  -4.546  0.00  0.00     0.002 A 
ATOM     17  C   UNL d   1      12.803  13.223  -4.896  0.00  0.00     0.002 A 
ENDROOT
TORSDOF 0
ENDMDL
MODEL 2
REMARK VINA RESULT:      19.0      1.068      3.384
REMARK  0 active torsions:
REMARK  status: ('A' for Active; 'I' for Inactive)
REMARK       I    between atoms: C_3  and  N_1 
REMARK       I    between atoms: N_6  and  C_3 
ROOT
ATOM      1  N   UNL d   1      14.130  12.838  -2.173  0.00  0.00    -0.160 N 
ATOM      2  N   UNL d   1      14.073  12.029  -2.149  0.00  0.00    -0.056 NA
ATOM      3  C   UNL d   1      13.858  13.312  -2.823  0.00  0.00     0.357 C 
ATOM      4  N   UNL d   1      14.396  11.780  -1.433  0.00  0.00    -0.128 NA
ATOM      5  C   UNL d   1      14.482  13.098  -1.487  0.00  0.00     0.108 A 
ATOM      6  N   UNL d   1      13.512  12.964  -3.481  0.00  0.00    -0.252 N 
ATOM      7  C   UNL d   1      14.648  12.441  -1.026  0.00  0.00     0.122 A 
ATOM      8  O   UNL d   1      13.954  14.140  -2.769  0.00  0.00    -0.244 OA
ATOM      9  O   UNL d   1      12.819  12.266  -4.801  0.00  0.00    -0.300 OA
ATOM     10  C   UNL d   1      14.673  13.843  -1.221  0.00  0.00     0.021 A 
ATOM     11  C   UNL d   1      13.427  12.130  -3.512  0.00  0.00     0.111 A 
ATOM     12  C   UNL d   1      13.254  13.423  -4.100  0.00  0.00     0.111 A 
ATOM     13  C   UNL d   1      15.012  12.527  -0.284  0.00  0.00     0.022 A 
ATOM     14  C   UNL d   1      13.077  11.779  -4.177  0.00  0.00     0.142 A 
ATOM     15  C   UNL d   1      12.906  13.073  -4.761  0.00  0.00     0.142 A 
ATOM     16  C   UNL d   1      15.035  13.940  -0.485  0.00  0.00     0.002 A 
ATOM     17  C   UNL d   1      15.206  13.292  -0.015  0.00  0.00     0.002 A 
ENDROOT
TORSDOF 0
ENDMDL
