MODEL 1
REMARK VINA RESULT:      -4.7      0.000      0.000
REMARK  3 active torsions:
REMARK  status: ('A' for Active; 'I' for Inactive)
REMARK    1  A    between atoms: O_7  and  C_1 
REMARK    2  A    between atoms: C_12  and  O_7 
REMARK    3  A    between atoms: O_20  and  C_14 
ROOT
ATOM      1  C   UNL d   1      57.753  -0.267  30.832  0.00  0.00     0.163 A 
ATOM      2  C   UNL d   1      58.157  -0.615  30.219  0.00  0.00     0.222 A 
ATOM      3  C   UNL d   1      58.882  -0.310  29.991  0.00  0.00     0.064 A 
ATOM      4  C   UNL d   1      59.190   0.351  30.392  0.00  0.00     0.106 A 
ATOM      5  C   UNL d   1      58.044   0.356  31.211  0.00  0.00     0.150 A 
ATOM      6  O   UNL d   1      58.762   0.682  31.007  0.00  0.00    -0.303 OA
ATOM      7  C   UNL d   1      59.315  -0.641  29.373  0.00  0.00     0.009 A 
ATOM      8  C   UNL d   1      59.920   0.656  30.161  0.00  0.00     0.067 A 
ATOM      9  O   UNL d   1      57.849  -1.276  29.817  0.00  0.00    -0.284 OA
ATOM     10  C   UNL d   1      60.334   0.305  29.537  0.00  0.00     0.198 A 
ATOM     11  C   UNL d   1      60.043  -0.319  29.158  0.00  0.00     0.042 A 
ATOM     12  O   UNL d   1      61.078   0.605  29.291  0.00  0.00    -0.286 OA
ENDROOT
BRANCH   1  13
ATOM     13  O   UNL d   1      56.979  -0.589  31.080  0.00  0.00    -0.302 OA
BRANCH  13  14
ATOM     14  C   UNL d   1      56.646  -0.352  31.787  0.00  0.00     0.100 A 
ATOM     15  C   UNL d   1      56.327   0.422  31.881  0.00  0.00     0.027 A 
ATOM     16  C   UNL d   1      55.996   0.652  32.592  0.00  0.00     0.026 A 
ATOM     17  C   UNL d   1      55.970   0.110  33.245  0.00  0.00     0.094 A 
ATOM     18  C   UNL d   1      56.288  -0.664  33.151  0.00  0.00     0.026 A 
ATOM     19  C   UNL d   1      56.622  -0.881  32.421  0.00  0.00     0.027 A 
BRANCH  17  20
ATOM     20  O   UNL d   1      55.638   0.309  33.987  0.00  0.00    -0.328 OA
ATOM     21  C   UNL d   1      54.854   0.555  34.171  0.00  0.00     0.181 C 
ENDBRANCH  17  20
ENDBRANCH  13  14
ENDBRANCH   1  13
TORSDOF 3
ENDMDL
MODEL 2
REMARK VINA RESULT:      -4.4      0.891      1.417
REMARK  3 active torsions:
REMARK  status: ('A' for Active; 'I' for Inactive)
REMARK    1  A    between atoms: O_7  and  C_1 
REMARK    2  A    between atoms: C_12  and  O_7 
REMARK    3  A    between atoms: O_20  and  C_14 
ROOT
ATOM      1  C   UNL d   1      56.924  -0.432  31.749  0.00  0.00     0.163 A 
ATOM      2  C   UNL d   1      57.243  -0.808  31.103  0.00  0.00     0.222 A 
ATOM      3  C   UNL d   1      57.838  -0.439  30.677  0.00  0.00     0.064 A 
ATOM      4  C   UNL d   1      58.103   0.313  30.915  0.00  0.00     0.106 A 
ATOM      5  C   UNL d   1      57.174   0.278  31.973  0.00  0.00     0.150 A 
ATOM      6  O   UNL d   1      57.764   0.669  31.570  0.00  0.00    -0.303 OA
ATOM      7  C   UNL d   1      58.181  -0.795  30.018  0.00  0.00     0.009 A 
ATOM      8  C   UNL d   1      58.701   0.682  30.485  0.00  0.00     0.067 A 
ATOM      9  O   UNL d   1      56.978  -1.561  30.865  0.00  0.00    -0.284 OA
ATOM     10  C   UNL d   1      59.029   0.303  29.827  0.00  0.00     0.198 A 
ATOM     11  C   UNL d   1      58.779  -0.408  29.602  0.00  0.00     0.042 A 
ATOM     12  O   UNL d   1      59.639   0.666  29.380  0.00  0.00    -0.286 OA
ENDROOT
BRANCH   1  13
ATOM     13  O   UNL d   1      56.289  -0.820  32.208  0.00  0.00    -0.302 OA
BRANCH  13  14
ATOM     14  C   UNL d   1      55.991  -0.461  32.878  0.00  0.00     0.100 A 
ATOM     15  C   UNL d   1      56.265  -0.677  33.645  0.00  0.00     0.027 A 
ATOM     16  C   UNL d   1      55.962  -0.313  34.312  0.00  0.00     0.026 A 
ATOM     17  C   UNL d   1      55.368   0.288  34.236  0.00  0.00     0.094 A 
ATOM     18  C   UNL d   1      55.094   0.503  33.470  0.00  0.00     0.026 A 
ATOM     19  C   UNL d   1      55.413   0.123  32.802  0.00  0.00     0.027 A 
BRANCH  17  20
ATOM     20  O   UNL d   1      55.035   0.682  34.895  0.00  0.00    -0.328 OA
ATOM     21  C   UNL d   1      55.127   0.517  35.717  0.00  0.00     0.181 C 
ENDBRANCH  17  20
ENDBRANCH  13  14
ENDBRANCH   1  13
TORSDOF 3
ENDMDL
MODEL 3
REMARK VINA RESULT:      -4.3      1.381      4.634
REMARK  3 active torsions:
REMARK  status: ('A' for Active; 'I' for Inactive)
REMARK    1  A    between atoms: O_7  and  C_1 
REMARK    2  A    between atoms: C_12  and  O_7 
REMARK    3  A    between atoms: O_20  and  C_14 
ROOT
ATOM      1  C   UNL d   1      57.697  -0.748  30.406  0.00  0.00     0.163 A 
ATOM      2  C   UNL d   1      57.437  -0.074  30.778  0.00  0.00     0.222 A 
ATOM      3  C   UNL d   1      57.006  -0.139  31.471  0.00  0.00     0.064 A 
ATOM      4  C   UNL d   1      56.844  -0.895  31.781  0.00  0.00     0.106 A 
ATOM      5  C   UNL d   1      57.544  -1.461  30.698  0.00  0.00     0.150 A 
ATOM      6  O   UNL d   1      57.118  -1.557  31.385  0.00  0.00    -0.303 OA
ATOM      7  C   UNL d   1      56.729   0.526  31.871  0.00  0.00     0.009 A 
ATOM      8  C   UNL d   1      56.410  -0.957  32.479  0.00  0.00     0.067 A 
ATOM      9  O   UNL d   1      57.599   0.682  30.468  0.00  0.00    -0.284 OA
ATOM     10  C   UNL d   1      56.143  -0.274  32.861  0.00  0.00     0.198 A 
ATOM     11  C   UNL d   1      56.296   0.439  32.568  0.00  0.00     0.042 A 
ATOM     12  O   UNL d   1      55.701  -0.323  33.572  0.00  0.00    -0.286 OA
ENDROOT
BRANCH   1  13
ATOM     13  O   UNL d   1      58.157  -0.685  29.665  0.00  0.00    -0.302 OA
BRANCH  13  14
ATOM     14  C   UNL d   1      58.728  -1.242  29.490  0.00  0.00     0.100 A 
ATOM     15  C   UNL d   1      59.545  -1.083  29.619  0.00  0.00     0.027 A 
ATOM     16  C   UNL d   1      60.111  -1.646  29.442  0.00  0.00     0.026 A 
ATOM     17  C   UNL d   1      59.879  -2.398  29.125  0.00  0.00     0.094 A 
ATOM     18  C   UNL d   1      59.062  -2.557  28.996  0.00  0.00     0.026 A 
ATOM     19  C   UNL d   1      58.500  -1.974  29.182  0.00  0.00     0.027 A 
BRANCH  17  20
ATOM     20  O   UNL d   1      60.430  -2.998  28.932  0.00  0.00    -0.328 OA
ATOM     21  C   UNL d   1      60.949  -3.428  29.438  0.00  0.00     0.181 C 
ENDBRANCH  17  20
ENDBRANCH  13  14
ENDBRANCH   1  13
TORSDOF 3
ENDMDL
MODEL 4
REMARK VINA RESULT:      -4.0      1.220      1.948
REMARK  3 active torsions:
REMARK  status: ('A' for Active; 'I' for Inactive)
REMARK    1  A    between atoms: O_7  and  C_1 
REMARK    2  A    between atoms: C_12  and  O_7 
REMARK    3  A    between atoms: O_20  and  C_14 
ROOT
ATOM      1  C   UNL d   1      58.075  -0.244  30.265  0.00  0.00     0.163 A 
ATOM      2  C   UNL d   1      58.648  -0.273  29.690  0.00  0.00     0.222 A 
ATOM      3  C   UNL d   1      58.875  -0.999  29.386  0.00  0.00     0.064 A 
ATOM      4  C   UNL d   1      58.513  -1.692  29.671  0.00  0.00     0.106 A 
ATOM      5  C   UNL d   1      57.733  -0.898  30.535  0.00  0.00     0.150 A 
ATOM      6  O   UNL d   1      57.937  -1.634  30.251  0.00  0.00    -0.303 OA
ATOM      7  C   UNL d   1      59.454  -1.060  28.802  0.00  0.00     0.009 A 
ATOM      8  C   UNL d   1      58.743  -2.421  29.363  0.00  0.00     0.067 A 
ATOM      9  O   UNL d   1      59.011   0.420  29.405  0.00  0.00    -0.284 OA
ATOM     10  C   UNL d   1      59.326  -2.455  28.778  0.00  0.00     0.198 A 
ATOM     11  C   UNL d   1      59.668  -1.801  28.508  0.00  0.00     0.042 A 
ATOM     12  O   UNL d   1      59.570  -3.190  28.455  0.00  0.00    -0.286 OA
ENDROOT
BRANCH   1  13
ATOM     13  O   UNL d   1      57.828   0.528  30.595  0.00  0.00    -0.302 OA
BRANCH  13  14
ATOM     14  C   UNL d   1      57.500   0.567  31.341  0.00  0.00     0.100 A 
ATOM     15  C   UNL d   1      57.983   0.642  32.026  0.00  0.00     0.027 A 
ATOM     16  C   UNL d   1      57.647   0.681  32.770  0.00  0.00     0.026 A 
ATOM     17  C   UNL d   1      56.804   0.645  32.859  0.00  0.00     0.094 A 
ATOM     18  C   UNL d   1      56.320   0.570  32.174  0.00  0.00     0.026 A 
ATOM     19  C   UNL d   1      56.678   0.532  31.425  0.00  0.00     0.027 A 
BRANCH  17  20
ATOM     20  O   UNL d   1      56.424   0.682  33.604  0.00  0.00    -0.328 OA
ATOM     21  C   UNL d   1      55.787   0.216  33.900  0.00  0.00     0.181 C 
ENDBRANCH  17  20
ENDBRANCH  13  14
ENDBRANCH   1  13
TORSDOF 3
ENDMDL
MODEL 5
REMARK VINA RESULT:      -3.9      1.283      4.711
REMARK  3 active torsions:
REMARK  status: ('A' for Active; 'I' for Inactive)
REMARK    1  A    between atoms: O_7  and  C_1 
REMARK    2  A    between atoms: C_12  and  O_7 
REMARK    3  A    between atoms: O_20  and  C_14 
ROOT
ATOM      1  C   UNL d   1      57.359   0.678  32.092  0.00  0.00     0.163 A 
ATOM      2  C   UNL d   1      57.338   0.674  32.904  0.00  0.00     0.222 A 
ATOM      3  C   UNL d   1      56.615   0.674  33.288  0.00  0.00     0.064 A 
ATOM      4  C   UNL d   1      55.915   0.678  32.837  0.00  0.00     0.106 A 
ATOM      5  C   UNL d   1      56.698   0.682  31.667  0.00  0.00     0.150 A 
ATOM      6  O   UNL d   1      55.964   0.682  32.020  0.00  0.00    -0.303 OA
ATOM      7  C   UNL d   1      56.562   0.670  34.110  0.00  0.00     0.009 A 
ATOM      8  C   UNL d   1      55.188   0.677  33.226  0.00  0.00     0.067 A 
ATOM      9  O   UNL d   1      58.039   0.670  33.355  0.00  0.00    -0.284 OA
ATOM     10  C   UNL d   1      55.163   0.673  34.053  0.00  0.00     0.198 A 
ATOM     11  C   UNL d   1      55.824   0.669  34.478  0.00  0.00     0.042 A 
ATOM     12  O   UNL d   1      54.430   0.672  34.462  0.00  0.00    -0.286 OA
ENDROOT
BRANCH   1  13
ATOM     13  O   UNL d   1      58.128   0.679  31.676  0.00  0.00    -0.302 OA
BRANCH  13  14
ATOM     14  C   UNL d   1      58.215   0.267  30.977  0.00  0.00     0.100 A 
ATOM     15  C   UNL d   1      58.097  -0.566  30.945  0.00  0.00     0.027 A 
ATOM     16  C   UNL d   1      58.186  -0.973  30.241  0.00  0.00     0.026 A 
ATOM     17  C   UNL d   1      58.398  -0.555  29.533  0.00  0.00     0.094 A 
ATOM     18  C   UNL d   1      58.515   0.278  29.564  0.00  0.00     0.026 A 
ATOM     19  C   UNL d   1      58.421   0.675  30.289  0.00  0.00     0.027 A 
BRANCH  17  20
ATOM     20  O   UNL d   1      58.497  -0.937  28.794  0.00  0.00    -0.328 OA
ATOM     21  C   UNL d   1      59.081  -1.498  28.559  0.00  0.00     0.181 C 
ENDBRANCH  17  20
ENDBRANCH  13  14
ENDBRANCH   1  13
TORSDOF 3
ENDMDL
MODEL 6
REMARK VINA RESULT:      -3.3      9.084      9.904
REMARK  3 active torsions:
REMARK  status: ('A' for Active; 'I' for Inactive)
REMARK    1  A    between atoms: O_7  and  C_1 
REMARK    2  A    between atoms: C_12  and  O_7 
REMARK    3  A    between atoms: O_20  and  C_14 
ROOT
ATOM      1  C   UNL d   1      59.549  -9.808  33.252  0.00  0.00     0.163 A 
ATOM      2  C   UNL d   1      59.850  -9.811  32.497  0.00  0.00     0.222 A 
ATOM      3  C   UNL d   1      59.336  -9.813  31.860  0.00  0.00     0.064 A 
ATOM      4  C   UNL d   1      58.516  -9.810  31.998  0.00  0.00     0.106 A 
ATOM      5  C   UNL d   1      58.774  -9.806  33.382  0.00  0.00     0.150 A 
ATOM      6  O   UNL d   1      58.239  -9.807  32.769  0.00  0.00    -0.303 OA
ATOM      7  C   UNL d   1      59.612  -9.816  31.083  0.00  0.00     0.009 A 
ATOM      8  C   UNL d   1      58.001  -9.812  31.354  0.00  0.00     0.067 A 
ATOM      9  O   UNL d   1      60.672  -9.814  32.359  0.00  0.00    -0.284 OA
ATOM     10  C   UNL d   1      58.303  -9.815  30.585  0.00  0.00     0.198 A 
ATOM     11  C   UNL d   1      59.079  -9.817  30.454  0.00  0.00     0.042 A 
ATOM     12  O   UNL d   1      57.791  -9.816  29.920  0.00  0.00    -0.286 OA
ENDROOT
BRANCH   1  13
ATOM     13  O   UNL d   1      60.093  -9.806  33.937  0.00  0.00    -0.302 OA
BRANCH  13  14
ATOM     14  C   UNL d   1      59.996  -9.257  34.534  0.00  0.00     0.100 A 
ATOM     15  C   UNL d   1      59.521  -9.426  35.208  0.00  0.00     0.027 A 
ATOM     16  C   UNL d   1      59.429  -8.871  35.802  0.00  0.00     0.026 A 
ATOM     17  C   UNL d   1      59.815  -8.117  35.742  0.00  0.00     0.094 A 
ATOM     18  C   UNL d   1      60.290  -7.948  35.068  0.00  0.00     0.026 A 
ATOM     19  C   UNL d   1      60.372  -8.524  34.474  0.00  0.00     0.027 A 
BRANCH  17  20
ATOM     20  O   UNL d   1      59.744  -7.524  36.329  0.00  0.00    -0.328 OA
ATOM     21  C   UNL d   1      59.825  -6.689  36.254  0.00  0.00     0.181 C 
ENDBRANCH  17  20
ENDBRANCH  13  14
ENDBRANCH   1  13
TORSDOF 3
ENDMDL
