MODEL 1
REMARK VINA RESULT:      -6.8      0.000      0.000
REMARK  6 active torsions:
REMARK  status: ('A' for Active; 'I' for Inactive)
REMARK    1  A    between atoms: C_6  and  N_1 
REMARK    2  A    between atoms: C_13  and  C_6 
REMARK    3  A    between atoms: N_12  and  C_22 
REMARK    4  A    between atoms: C_23  and  N_12 
REMARK    5  A    between atoms: C_22  and  C_13 
REMARK    6  A    between atoms: C_20  and  C_23 
ROOT
ATOM      1  N   UNL d   1     -47.961  13.005  23.406  0.00  0.00    -0.303 N 
ATOM      2  C   UNL d   1     -49.263  13.129  23.150  0.00  0.00     0.018 A 
ATOM      3  C   UNL d   1     -48.893  13.839  22.933  0.00  0.00     0.018 A 
ATOM      4  C   UNL d   1     -48.688  12.614  23.441  0.00  0.00     0.064 A 
ATOM      5  C   UNL d   1     -48.084  13.754  23.096  0.00  0.00     0.064 A 
ATOM      6  C   UNL d   1     -47.567  14.371  22.940  0.00  0.00     0.018 A 
ATOM      7  C   UNL d   1     -48.904  11.864  23.698  0.00  0.00     0.018 A 
ATOM      8  C   UNL d   1     -49.179  14.542  22.615  0.00  0.00     0.008 A 
ATOM      9  C   UNL d   1     -50.053  12.894  23.115  0.00  0.00     0.008 A 
ATOM     10  C   UNL d   1     -50.263  12.139  23.374  0.00  0.00     0.035 A 
ATOM     11  C   UNL d   1     -48.660  15.169  22.455  0.00  0.00     0.035 A 
ATOM     12  C   UNL d   1     -47.849  15.087  22.617  0.00  0.00     0.008 A 
ATOM     13  C   UNL d   1     -49.688  11.624  23.665  0.00  0.00     0.008 A 
ATOM     14 BR   UNL d   1     -51.050  11.902  23.340  0.00  0.00    -0.049 Br
ATOM     15 BR   UNL d   1     -48.946  15.871  22.137  0.00  0.00    -0.049 Br
ENDROOT
BRANCH   1  16
ATOM     16  C   UNL d   1     -47.238  12.687  23.645  0.00  0.00     0.124 C 
BRANCH  16  17
ATOM     17  C   UNL d   1     -46.791  12.231  23.128  0.00  0.00     0.232 C 
ATOM     18  O   UNL d   1     -46.639  12.508  22.360  0.00  0.00    -0.283 OA
BRANCH  17  19
ATOM     19  C   UNL d   1     -46.491  11.499  23.367  0.00  0.00     0.142 C 
BRANCH  19  20
ATOM     20  N   UNL d   1     -45.679  11.357  23.323  0.00  0.00    -0.237 NA
BRANCH  20  21
ATOM     21  C   UNL d   1     -45.385  10.592  23.419  0.00  0.00     0.124 C 
BRANCH  21  22
ATOM     22  C   UNL d   1     -44.583  10.464  23.494  0.00  0.00     0.119 A 
ATOM     23  O   UNL d   1     -43.989  11.036  23.395  0.00  0.00    -0.304 OA
ATOM     24  C   UNL d   1     -43.257  10.665  23.522  0.00  0.00     0.123 A 
ATOM     25  C   UNL d   1     -43.403   9.872  23.697  0.00  0.00     0.029 A 
ATOM     26  C   UNL d   1     -44.215   9.748  23.680  0.00  0.00     0.028 A 
ENDBRANCH  21  22
ENDBRANCH  20  21
ENDBRANCH  19  20
ENDBRANCH  17  19
ENDBRANCH  16  17
ENDBRANCH   1  16
TORSDOF 6
ENDMDL
MODEL 2
REMARK VINA RESULT:      -6.7      1.473      1.701
REMARK  6 active torsions:
REMARK  status: ('A' for Active; 'I' for Inactive)
REMARK    1  A    between atoms: C_6  and  N_1 
REMARK    2  A    between atoms: C_13  and  C_6 
REMARK    3  A    between atoms: N_12  and  C_22 
REMARK    4  A    between atoms: C_23  and  N_12 
REMARK    5  A    between atoms: C_22  and  C_13 
REMARK    6  A    between atoms: C_20  and  C_23 
ROOT
ATOM      1  N   UNL d   1     -48.090  13.374  23.212  0.00  0.00    -0.303 N 
ATOM      2  C   UNL d   1     -49.390  13.101  23.313  0.00  0.00     0.018 A 
ATOM      3  C   UNL d   1     -49.313  13.911  23.152  0.00  0.00     0.018 A 
ATOM      4  C   UNL d   1     -48.635  12.770  23.350  0.00  0.00     0.064 A 
ATOM      5  C   UNL d   1     -48.502  14.073  23.091  0.00  0.00     0.064 A 
ATOM      6  C   UNL d   1     -48.247  14.836  22.933  0.00  0.00     0.018 A 
ATOM      7  C   UNL d   1     -48.549  11.967  23.503  0.00  0.00     0.018 A 
ATOM      8  C   UNL d   1     -49.864  14.514  23.054  0.00  0.00     0.008 A 
ATOM      9  C   UNL d   1     -50.057  12.629  23.429  0.00  0.00     0.008 A 
ATOM     10  C   UNL d   1     -49.963  11.824  23.582  0.00  0.00     0.035 A 
ATOM     11  C   UNL d   1     -49.612  15.288  22.895  0.00  0.00     0.035 A 
ATOM     12  C   UNL d   1     -48.799  15.453  22.833  0.00  0.00     0.008 A 
ATOM     13  C   UNL d   1     -49.208  11.493  23.619  0.00  0.00     0.008 A 
ATOM     14 BR   UNL d   1     -50.627  11.352  23.698  0.00  0.00    -0.049 Br
ATOM     15 BR   UNL d   1     -50.162  15.890  22.797  0.00  0.00    -0.049 Br
ENDROOT
BRANCH   1  16
ATOM     16  C   UNL d   1     -47.270  13.282  23.200  0.00  0.00     0.124 C 
BRANCH  16  17
ATOM     17  C   UNL d   1     -46.865  13.233  22.487  0.00  0.00     0.232 C 
ATOM     18  O   UNL d   1     -47.217  12.852  21.838  0.00  0.00    -0.283 OA
BRANCH  17  19
ATOM     19  C   UNL d   1     -46.111  13.562  22.410  0.00  0.00     0.142 C 
BRANCH  19  20
ATOM     20  N   UNL d   1     -45.467  13.070  22.252  0.00  0.00    -0.237 NA
BRANCH  20  21
ATOM     21  C   UNL d   1     -44.804  13.367  21.859  0.00  0.00     0.124 C 
BRANCH  21  22
ATOM     22  C   UNL d   1     -44.121  12.924  21.808  0.00  0.00     0.119 A 
ATOM     23  O   UNL d   1     -43.911  12.297  22.312  0.00  0.00    -0.304 OA
ATOM     24  C   UNL d   1     -43.175  12.006  22.059  0.00  0.00     0.123 A 
ATOM     25  C   UNL d   1     -42.938  12.452  21.406  0.00  0.00     0.029 A 
ATOM     26  C   UNL d   1     -43.517  13.014  21.252  0.00  0.00     0.028 A 
ENDBRANCH  21  22
ENDBRANCH  20  21
ENDBRANCH  19  20
ENDBRANCH  17  19
ENDBRANCH  16  17
ENDBRANCH   1  16
TORSDOF 6
ENDMDL
MODEL 3
REMARK VINA RESULT:      -6.6      1.459      2.758
REMARK  6 active torsions:
REMARK  status: ('A' for Active; 'I' for Inactive)
REMARK    1  A    between atoms: C_6  and  N_1 
REMARK    2  A    between atoms: C_13  and  C_6 
REMARK    3  A    between atoms: N_12  and  C_22 
REMARK    4  A    between atoms: C_23  and  N_12 
REMARK    5  A    between atoms: C_22  and  C_13 
REMARK    6  A    between atoms: C_20  and  C_23 
ROOT
ATOM      1  N   UNL d   1     -48.119  13.286  23.218  0.00  0.00    -0.303 N 
ATOM      2  C   UNL d   1     -49.315  13.864  23.116  0.00  0.00     0.018 A 
ATOM      3  C   UNL d   1     -49.435  13.063  23.295  0.00  0.00     0.018 A 
ATOM      4  C   UNL d   1     -48.503  14.001  23.069  0.00  0.00     0.064 A 
ATOM      5  C   UNL d   1     -48.686  12.710  23.357  0.00  0.00     0.064 A 
ATOM      6  C   UNL d   1     -48.622  11.912  23.531  0.00  0.00     0.018 A 
ATOM      7  C   UNL d   1     -48.226  14.755  22.897  0.00  0.00     0.018 A 
ATOM      8  C   UNL d   1     -50.115  12.613  23.408  0.00  0.00     0.008 A 
ATOM      9  C   UNL d   1     -49.849  14.481  22.992  0.00  0.00     0.008 A 
ATOM     10  C   UNL d   1     -49.565  15.235  22.819  0.00  0.00     0.035 A 
ATOM     11  C   UNL d   1     -50.056  11.805  23.585  0.00  0.00     0.035 A 
ATOM     12  C   UNL d   1     -49.307  11.449  23.647  0.00  0.00     0.008 A 
ATOM     13  C   UNL d   1     -48.752  15.373  22.772  0.00  0.00     0.008 A 
ATOM     14 BR   UNL d   1     -50.095  15.852  22.695  0.00  0.00    -0.049 Br
ATOM     15 BR   UNL d   1     -50.735  11.356  23.698  0.00  0.00    -0.049 Br
ENDROOT
BRANCH   1  16
ATOM     16  C   UNL d   1     -47.301  13.177  23.225  0.00  0.00     0.124 C 
BRANCH  16  17
ATOM     17  C   UNL d   1     -46.883  13.109  22.520  0.00  0.00     0.232 C 
ATOM     18  O   UNL d   1     -47.219  12.702  21.879  0.00  0.00    -0.283 OA
BRANCH  17  19
ATOM     19  C   UNL d   1     -46.131  13.442  22.446  0.00  0.00     0.142 C 
BRANCH  19  20
ATOM     20  N   UNL d   1     -45.500  12.972  22.194  0.00  0.00    -0.237 NA
BRANCH  20  21
ATOM     21  C   UNL d   1     -44.853  13.314  21.814  0.00  0.00     0.124 C 
BRANCH  21  22
ATOM     22  C   UNL d   1     -44.140  12.918  21.773  0.00  0.00     0.119 A 
ATOM     23  O   UNL d   1     -43.950  12.219  22.179  0.00  0.00    -0.304 OA
ATOM     24  C   UNL d   1     -43.172  12.012  21.976  0.00  0.00     0.123 A 
ATOM     25  C   UNL d   1     -42.889  12.582  21.450  0.00  0.00     0.029 A 
ATOM     26  C   UNL d   1     -43.482  13.137  21.325  0.00  0.00     0.028 A 
ENDBRANCH  21  22
ENDBRANCH  20  21
ENDBRANCH  19  20
ENDBRANCH  17  19
ENDBRANCH  16  17
ENDBRANCH   1  16
TORSDOF 6
ENDMDL
MODEL 4
REMARK VINA RESULT:      -5.4      8.603      9.620
REMARK  6 active torsions:
REMARK  status: ('A' for Active; 'I' for Inactive)
REMARK    1  A    between atoms: C_6  and  N_1 
REMARK    2  A    between atoms: C_13  and  C_6 
REMARK    3  A    between atoms: N_12  and  C_22 
REMARK    4  A    between atoms: C_23  and  N_12 
REMARK    5  A    between atoms: C_22  and  C_13 
REMARK    6  A    between atoms: C_20  and  C_23 
ROOT
ATOM      1  N   UNL d   1     -39.638  14.909  18.722  0.00  0.00    -0.303 N 
ATOM      2  C   UNL d   1     -40.065  14.815  17.464  0.00  0.00     0.018 A 
ATOM      3  C   UNL d   1     -39.427  14.293  17.554  0.00  0.00     0.018 A 
ATOM      4  C   UNL d   1     -40.195  15.195  18.184  0.00  0.00     0.064 A 
ATOM      5  C   UNL d   1     -39.167  14.357  18.340  0.00  0.00     0.064 A 
ATOM      6  C   UNL d   1     -38.536  13.904  18.601  0.00  0.00     0.018 A 
ATOM      7  C   UNL d   1     -40.800  15.747  18.251  0.00  0.00     0.018 A 
ATOM      8  C   UNL d   1     -39.053  13.776  17.036  0.00  0.00     0.008 A 
ATOM      9  C   UNL d   1     -40.540  14.987  16.811  0.00  0.00     0.008 A 
ATOM     10  C   UNL d   1     -41.146  15.542  16.885  0.00  0.00     0.035 A 
ATOM     11  C   UNL d   1     -38.414  13.315  17.294  0.00  0.00     0.035 A 
ATOM     12  C   UNL d   1     -38.151  13.377  18.081  0.00  0.00     0.008 A 
ATOM     13  C   UNL d   1     -41.276  15.922  17.606  0.00  0.00     0.008 A 
ATOM     14 BR   UNL d   1     -41.621  15.716  16.237  0.00  0.00    -0.049 Br
ATOM     15 BR   UNL d   1     -38.040  12.797  16.776  0.00  0.00    -0.049 Br
ENDROOT
BRANCH   1  16
ATOM     16  C   UNL d   1     -39.573  15.144  19.511  0.00  0.00     0.124 C 
BRANCH  16  17
ATOM     17  C   UNL d   1     -39.990  14.750  20.100  0.00  0.00     0.232 C 
ATOM     18  O   UNL d   1     -40.505  14.131  19.897  0.00  0.00    -0.283 OA
BRANCH  17  19
ATOM     19  C   UNL d   1     -39.899  14.965  20.892  0.00  0.00     0.142 C 
BRANCH  19  20
ATOM     20  N   UNL d   1     -39.552  14.434  21.421  0.00  0.00    -0.237 NA
BRANCH  20  21
ATOM     21  C   UNL d   1     -39.401  14.663  22.200  0.00  0.00     0.124 C 
BRANCH  21  22
ATOM     22  C   UNL d   1     -38.987  14.171  22.702  0.00  0.00     0.119 A 
ATOM     23  O   UNL d   1     -39.097  13.351  22.777  0.00  0.00    -0.304 OA
ATOM     24  C   UNL d   1     -38.562  13.075  23.349  0.00  0.00     0.123 A 
ATOM     25  C   UNL d   1     -38.129  13.723  23.621  0.00  0.00     0.029 A 
ATOM     26  C   UNL d   1     -38.389  14.394  23.226  0.00  0.00     0.028 A 
ENDBRANCH  21  22
ENDBRANCH  20  21
ENDBRANCH  19  20
ENDBRANCH  17  19
ENDBRANCH  16  17
ENDBRANCH   1  16
TORSDOF 6
ENDMDL
MODEL 5
REMARK VINA RESULT:      -5.1      2.111      5.072
REMARK  6 active torsions:
REMARK  status: ('A' for Active; 'I' for Inactive)
REMARK    1  A    between atoms: C_6  and  N_1 
REMARK    2  A    between atoms: C_13  and  C_6 
REMARK    3  A    between atoms: N_12  and  C_22 
REMARK    4  A    between atoms: C_23  and  N_12 
REMARK    5  A    between atoms: C_22  and  C_13 
REMARK    6  A    between atoms: C_20  and  C_23 
ROOT
ATOM      1  N   UNL d   1     -47.084  12.080  23.465  0.00  0.00    -0.303 N 
ATOM      2  C   UNL d   1     -46.036  12.769  23.014  0.00  0.00     0.018 A 
ATOM      3  C   UNL d   1     -45.777  12.002  23.193  0.00  0.00     0.018 A 
ATOM      4  C   UNL d   1     -46.842  12.818  23.182  0.00  0.00     0.064 A 
ATOM      5  C   UNL d   1     -46.435  11.580  23.472  0.00  0.00     0.064 A 
ATOM      6  C   UNL d   1     -46.354  10.795  23.696  0.00  0.00     0.018 A 
ATOM      7  C   UNL d   1     -47.244  13.523  23.055  0.00  0.00     0.018 A 
ATOM      8  C   UNL d   1     -45.043  11.635  23.139  0.00  0.00     0.008 A 
ATOM      9  C   UNL d   1     -45.632  13.426  22.720  0.00  0.00     0.008 A 
ATOM     10  C   UNL d   1     -46.042  14.131  22.595  0.00  0.00     0.035 A 
ATOM     11  C   UNL d   1     -44.955  10.842  23.364  0.00  0.00     0.035 A 
ATOM     12  C   UNL d   1     -45.611  10.416  23.645  0.00  0.00     0.008 A 
ATOM     13  C   UNL d   1     -46.848  14.179  22.762  0.00  0.00     0.008 A 
ATOM     14 BR   UNL d   1     -45.642  14.787  22.301  0.00  0.00    -0.049 Br
ATOM     15 BR   UNL d   1     -44.220  10.476  23.311  0.00  0.00    -0.049 Br
ENDROOT
BRANCH   1  16
ATOM     16  C   UNL d   1     -47.852  11.888  23.698  0.00  0.00     0.124 C 
BRANCH  16  17
ATOM     17  C   UNL d   1     -48.408  11.644  23.144  0.00  0.00     0.232 C 
ATOM     18  O   UNL d   1     -48.170  11.177  22.500  0.00  0.00    -0.283 OA
BRANCH  17  19
ATOM     19  C   UNL d   1     -49.201  11.859  23.224  0.00  0.00     0.142 C 
BRANCH  19  20
ATOM     20  N   UNL d   1     -49.645  12.037  22.550  0.00  0.00    -0.237 NA
BRANCH  20  21
ATOM     21  C   UNL d   1     -50.433  12.274  22.623  0.00  0.00     0.124 C 
BRANCH  21  22
ATOM     22  C   UNL d   1     -50.672  13.004  22.345  0.00  0.00     0.119 A 
ATOM     23  O   UNL d   1     -50.780  13.686  22.807  0.00  0.00    -0.304 OA
ATOM     24  C   UNL d   1     -51.024  14.297  22.300  0.00  0.00     0.123 A 
ATOM     25  C   UNL d   1     -51.064  13.990  21.535  0.00  0.00     0.029 A 
ATOM     26  C   UNL d   1     -50.848  13.198  21.562  0.00  0.00     0.028 A 
ENDBRANCH  21  22
ENDBRANCH  20  21
ENDBRANCH  19  20
ENDBRANCH  17  19
ENDBRANCH  16  17
ENDBRANCH   1  16
TORSDOF 6
ENDMDL
MODEL 6
REMARK VINA RESULT:      -4.4      5.964      8.261
REMARK  6 active torsions:
REMARK  status: ('A' for Active; 'I' for Inactive)
REMARK    1  A    between atoms: C_6  and  N_1 
REMARK    2  A    between atoms: C_13  and  C_6 
REMARK    3  A    between atoms: N_12  and  C_22 
REMARK    4  A    between atoms: C_23  and  N_12 
REMARK    5  A    between atoms: C_22  and  C_13 
REMARK    6  A    between atoms: C_20  and  C_23 
ROOT
ATOM      1  N   UNL d   1     -40.783  14.690  20.535  0.00  0.00    -0.303 N 
ATOM      2  C   UNL d   1     -39.514  15.084  20.432  0.00  0.00     0.018 A 
ATOM      3  C   UNL d   1     -39.757  14.814  19.686  0.00  0.00     0.018 A 
ATOM      4  C   UNL d   1     -40.147  15.007  20.956  0.00  0.00     0.064 A 
ATOM      5  C   UNL d   1     -40.547  14.571  19.759  0.00  0.00     0.064 A 
ATOM      6  C   UNL d   1     -40.946  14.273  19.107  0.00  0.00     0.018 A 
ATOM      7  C   UNL d   1     -40.058  15.236  21.740  0.00  0.00     0.018 A 
ATOM      8  C   UNL d   1     -39.372  14.758  18.962  0.00  0.00     0.008 A 
ATOM      9  C   UNL d   1     -38.793  15.390  20.693  0.00  0.00     0.008 A 
ATOM     10  C   UNL d   1     -38.711  15.617  21.482  0.00  0.00     0.035 A 
ATOM     11  C   UNL d   1     -39.770  14.458  18.300  0.00  0.00     0.035 A 
ATOM     12  C   UNL d   1     -40.562  14.213  18.369  0.00  0.00     0.008 A 
ATOM     13  C   UNL d   1     -39.344  15.540  22.005  0.00  0.00     0.008 A 
ATOM     14 BR   UNL d   1     -37.994  15.922  21.745  0.00  0.00    -0.049 Br
ATOM     15 BR   UNL d   1     -39.385  14.402  17.575  0.00  0.00    -0.049 Br
ENDROOT
BRANCH   1  16
ATOM     16  C   UNL d   1     -41.527  14.523  20.851  0.00  0.00     0.124 C 
BRANCH  16  17
ATOM     17  C   UNL d   1     -41.720  13.759  21.086  0.00  0.00     0.232 C 
ATOM     18  O   UNL d   1     -41.190  13.327  21.557  0.00  0.00    -0.283 OA
BRANCH  17  19
ATOM     19  C   UNL d   1     -42.436  13.419  20.857  0.00  0.00     0.142 C 
BRANCH  19  20
ATOM     20  N   UNL d   1     -42.993  13.216  21.431  0.00  0.00    -0.237 NA
BRANCH  20  21
ATOM     21  C   UNL d   1     -43.729  12.913  21.209  0.00  0.00     0.124 C 
BRANCH  21  22
ATOM     22  C   UNL d   1     -44.320  12.815  21.763  0.00  0.00     0.119 A 
ATOM     23  O   UNL d   1     -44.359  12.207  22.328  0.00  0.00    -0.304 OA
ATOM     24  C   UNL d   1     -45.050  12.322  22.774  0.00  0.00     0.123 A 
ATOM     25  C   UNL d   1     -45.430  12.995  22.483  0.00  0.00     0.029 A 
ATOM     26  C   UNL d   1     -44.983  13.297  21.864  0.00  0.00     0.028 A 
ENDBRANCH  21  22
ENDBRANCH  20  21
ENDBRANCH  19  20
ENDBRANCH  17  19
ENDBRANCH  16  17
ENDBRANCH   1  16
TORSDOF 6
ENDMDL
MODEL 7
REMARK VINA RESULT:      -4.1      5.893      8.176
REMARK  6 active torsions:
REMARK  status: ('A' for Active; 'I' for Inactive)
REMARK    1  A    between atoms: C_6  and  N_1 
REMARK    2  A    between atoms: C_13  and  C_6 
REMARK    3  A    between atoms: N_12  and  C_22 
REMARK    4  A    between atoms: C_23  and  N_12 
REMARK    5  A    between atoms: C_22  and  C_13 
REMARK    6  A    between atoms: C_20  and  C_23 
ROOT
ATOM      1  N   UNL d   1     -40.565  14.213  20.534  0.00  0.00    -0.303 N 
ATOM      2  C   UNL d   1     -39.893  15.046  19.740  0.00  0.00     0.018 A 
ATOM      3  C   UNL d   1     -39.564  15.099  20.500  0.00  0.00     0.018 A 
ATOM      4  C   UNL d   1     -40.511  14.500  19.761  0.00  0.00     0.064 A 
ATOM      5  C   UNL d   1     -39.988  14.578  20.987  0.00  0.00     0.064 A 
ATOM      6  C   UNL d   1     -39.791  14.506  21.780  0.00  0.00     0.018 A 
ATOM      7  C   UNL d   1     -40.936  14.339  19.077  0.00  0.00     0.018 A 
ATOM      8  C   UNL d   1     -38.946  15.544  20.809  0.00  0.00     0.008 A 
ATOM      9  C   UNL d   1     -39.702  15.431  19.035  0.00  0.00     0.008 A 
ATOM     10  C   UNL d   1     -40.133  15.265  18.353  0.00  0.00     0.035 A 
ATOM     11  C   UNL d   1     -38.742  15.475  21.610  0.00  0.00     0.035 A 
ATOM     12  C   UNL d   1     -39.164  14.954  22.101  0.00  0.00     0.008 A 
ATOM     13  C   UNL d   1     -40.751  14.719  18.373  0.00  0.00     0.008 A 
ATOM     14 BR   UNL d   1     -39.945  15.647  17.649  0.00  0.00    -0.049 Br
ATOM     15 BR   UNL d   1     -38.123  15.921  21.919  0.00  0.00    -0.049 Br
ENDROOT
BRANCH   1  16
ATOM     16  C   UNL d   1     -41.112  13.654  20.796  0.00  0.00     0.124 C 
BRANCH  16  17
ATOM     17  C   UNL d   1     -41.875  13.880  21.003  0.00  0.00     0.232 C 
ATOM     18  O   UNL d   1     -42.014  14.649  21.287  0.00  0.00    -0.283 OA
BRANCH  17  19
ATOM     19  C   UNL d   1     -42.504  13.350  20.931  0.00  0.00     0.142 C 
BRANCH  19  20
ATOM     20  N   UNL d   1     -43.125  13.378  21.475  0.00  0.00    -0.237 NA
BRANCH  20  21
ATOM     21  C   UNL d   1     -43.715  12.801  21.462  0.00  0.00     0.124 C 
BRANCH  21  22
ATOM     22  C   UNL d   1     -44.425  12.927  21.845  0.00  0.00     0.119 A 
ATOM     23  O   UNL d   1     -44.864  13.632  21.832  0.00  0.00    -0.304 OA
ATOM     24  C   UNL d   1     -45.544  13.514  22.294  0.00  0.00     0.123 A 
ATOM     25  C   UNL d   1     -45.519  12.742  22.586  0.00  0.00     0.029 A 
ATOM     26  C   UNL d   1     -44.834  12.382  22.311  0.00  0.00     0.028 A 
ENDBRANCH  21  22
ENDBRANCH  20  21
ENDBRANCH  19  20
ENDBRANCH  17  19
ENDBRANCH  16  17
ENDBRANCH   1  16
TORSDOF 6
ENDMDL
MODEL 8
REMARK VINA RESULT:      -3.9      7.667      9.773
REMARK  6 active torsions:
REMARK  status: ('A' for Active; 'I' for Inactive)
REMARK    1  A    between atoms: C_6  and  N_1 
REMARK    2  A    between atoms: C_13  and  C_6 
REMARK    3  A    between atoms: N_12  and  C_22 
REMARK    4  A    between atoms: C_23  and  N_12 
REMARK    5  A    between atoms: C_22  and  C_13 
REMARK    6  A    between atoms: C_20  and  C_23 
ROOT
ATOM      1  N   UNL d   1     -39.351  14.892  20.545  0.00  0.00    -0.303 N 
ATOM      2  C   UNL d   1     -40.240  14.176  21.232  0.00  0.00     0.018 A 
ATOM      3  C   UNL d   1     -39.512  14.122  21.626  0.00  0.00     0.018 A 
ATOM      4  C   UNL d   1     -40.140  14.652  20.565  0.00  0.00     0.064 A 
ATOM      5  C   UNL d   1     -38.964  14.570  21.192  0.00  0.00     0.064 A 
ATOM      6  C   UNL d   1     -38.186  14.624  21.445  0.00  0.00     0.018 A 
ATOM      7  C   UNL d   1     -40.780  14.799  20.071  0.00  0.00     0.018 A 
ATOM      8  C   UNL d   1     -39.276  13.731  22.310  0.00  0.00     0.008 A 
ATOM      9  C   UNL d   1     -40.978  13.849  21.404  0.00  0.00     0.008 A 
ATOM     10  C   UNL d   1     -41.615  14.001  20.903  0.00  0.00     0.035 A 
ATOM     11  C   UNL d   1     -38.491  13.783  22.571  0.00  0.00     0.035 A 
ATOM     12  C   UNL d   1     -37.940  14.231  22.139  0.00  0.00     0.008 A 
ATOM     13  C   UNL d   1     -41.516  14.477  20.236  0.00  0.00     0.008 A 
ATOM     14 BR   UNL d   1     -42.352  13.677  21.072  0.00  0.00    -0.049 Br
ATOM     15 BR   UNL d   1     -38.255  13.392  23.255  0.00  0.00    -0.049 Br
ENDROOT
BRANCH   1  16
ATOM     16  C   UNL d   1     -39.016  15.376  19.966  0.00  0.00     0.124 C 
BRANCH  16  17
ATOM     17  C   UNL d   1     -38.731  15.054  19.265  0.00  0.00     0.232 C 
ATOM     18  O   UNL d   1     -38.169  14.443  19.291  0.00  0.00    -0.283 OA
BRANCH  17  19
ATOM     19  C   UNL d   1     -39.000  15.333  18.536  0.00  0.00     0.142 C 
BRANCH  19  20
ATOM     20  N   UNL d   1     -38.580  15.150  17.849  0.00  0.00    -0.237 NA
BRANCH  20  21
ATOM     21  C   UNL d   1     -38.937  15.232  17.110  0.00  0.00     0.124 C 
BRANCH  21  22
ATOM     22  C   UNL d   1     -38.584  14.919  16.444  0.00  0.00     0.119 A 
ATOM     23  O   UNL d   1     -38.528  14.111  16.258  0.00  0.00    -0.304 OA
ATOM     24  C   UNL d   1     -38.128  14.046  15.534  0.00  0.00     0.123 A 
ATOM     25  C   UNL d   1     -37.940  14.808  15.279  0.00  0.00     0.029 A 
ATOM     26  C   UNL d   1     -38.219  15.343  15.836  0.00  0.00     0.028 A 
ENDBRANCH  21  22
ENDBRANCH  20  21
ENDBRANCH  19  20
ENDBRANCH  17  19
ENDBRANCH  16  17
ENDBRANCH   1  16
TORSDOF 6
ENDMDL
