MODEL 1
REMARK VINA RESULT:      -5.4      0.000      0.000
REMARK  7 active torsions:
REMARK  status: ('A' for Active; 'I' for Inactive)
REMARK    1  A    between atoms: N_3  and  S_1 
REMARK    2  A    between atoms: C_6  and  S_1 
REMARK    3  A    between atoms: N_2  and  C_5 
REMARK    4  A    between atoms: C_4  and  N_3 
REMARK    5  A    between atoms: C_5  and  C_4 
REMARK    6  A    between atoms: C_10  and  C_5 
REMARK    7  A    between atoms: C_22  and  N_7 
ROOT
ATOM      1  C   UNL d   1     -38.955  14.585  17.621  0.00  0.00     0.086 C 
ENDROOT
BRANCH   1   2
ATOM      2  N   UNL d   1     -39.655  14.918  17.334  0.00  0.00    -0.300 N 
ATOM      3  C   UNL d   1     -39.625  15.585  16.856  0.00  0.00     0.100 A 
ATOM      4  C   UNL d   1     -40.324  15.922  16.567  0.00  0.00     0.100 A 
ATOM      5  N   UNL d   1     -41.051  15.586  16.760  0.00  0.00    -0.300 N 
ATOM      6  C   UNL d   1     -41.077  14.913  17.243  0.00  0.00     0.100 A 
ATOM      7  C   UNL d   1     -40.382  14.581  17.528  0.00  0.00     0.100 A 
BRANCH   5   8
ATOM      8  C   UNL d   1     -41.755  15.917  16.475  0.00  0.00     0.080 C 
ATOM      9  C   UNL d   1     -42.239  15.480  15.965  0.00  0.00     0.021 C 
ENDBRANCH   5   8
ENDBRANCH   1   2
BRANCH   1  10
ATOM     10  C   UNL d   1     -38.503  14.988  18.186  0.00  0.00     0.130 C 
BRANCH  10  11
ATOM     11  N   UNL d   1     -38.750  15.000  18.976  0.00  0.00    -0.155 NA
BRANCH  11  12
ATOM     12  S   UNL d   1     -38.346  15.458  19.526  0.00  0.00     0.285 S 
ATOM     13  O   UNL d   1     -37.940  15.918  20.077  0.00  0.00    -0.198 OA
ATOM     14  O   UNL d   1     -37.983  15.879  18.904  0.00  0.00    -0.198 OA
BRANCH  12  15
ATOM     15  C   UNL d   1     -38.712  15.034  20.142  0.00  0.00     0.105 A 
ATOM     16  C   UNL d   1     -38.391  14.322  20.404  0.00  0.00     0.013 A 
ATOM     17  C   UNL d   1     -38.754  13.906  21.012  0.00  0.00     0.001 A 
ATOM     18  C   UNL d   1     -39.441  14.201  21.361  0.00  0.00     0.000 A 
ATOM     19  C   UNL d   1     -39.761  14.913  21.099  0.00  0.00     0.001 A 
ATOM     20  C   UNL d   1     -39.811  13.780  21.979  0.00  0.00     0.000 C 
ATOM     21  C   UNL d   1     -39.398  15.328  20.491  0.00  0.00     0.013 A 
ENDBRANCH  12  15
ENDBRANCH  11  12
ENDBRANCH  10  11
ENDBRANCH   1  10
BRANCH   1  22
ATOM     22  C   UNL d   1     -38.700  13.843  17.342  0.00  0.00     0.037 A 
ATOM     23  C   UNL d   1     -38.955  13.152  17.721  0.00  0.00     0.100 A 
ATOM     24  N   UNL d   1     -38.704  12.419  17.446  0.00  0.00    -0.242 NA
ATOM     25  C   UNL d   1     -38.197  12.376  16.791  0.00  0.00     0.099 A 
ATOM     26  C   UNL d   1     -37.947  13.064  16.418  0.00  0.00     0.021 A 
ATOM     27  C   UNL d   1     -38.198  13.797  16.694  0.00  0.00     0.005 A 
ENDBRANCH   1  22
TORSDOF 7
ENDMDL
MODEL 2
REMARK VINA RESULT:      -5.2      0.702      2.764
REMARK  7 active torsions:
REMARK  status: ('A' for Active; 'I' for Inactive)
REMARK    1  A    between atoms: N_3  and  S_1 
REMARK    2  A    between atoms: C_6  and  S_1 
REMARK    3  A    between atoms: N_2  and  C_5 
REMARK    4  A    between atoms: C_4  and  N_3 
REMARK    5  A    between atoms: C_5  and  C_4 
REMARK    6  A    between atoms: C_10  and  C_5 
REMARK    7  A    between atoms: C_22  and  N_7 
ROOT
ATOM      1  C   UNL d   1     -39.099  14.630  18.093  0.00  0.00     0.086 C 
ENDROOT
BRANCH   1   2
ATOM      2  N   UNL d   1     -38.810  13.889  17.868  0.00  0.00    -0.300 N 
ATOM      3  C   UNL d   1     -39.080  13.212  18.248  0.00  0.00     0.100 A 
ATOM      4  C   UNL d   1     -38.793  12.468  18.027  0.00  0.00     0.100 A 
ATOM      5  N   UNL d   1     -38.234  12.407  17.424  0.00  0.00    -0.300 N 
ATOM      6  C   UNL d   1     -37.964  13.091  17.044  0.00  0.00     0.100 A 
ATOM      7  C   UNL d   1     -38.251  13.828  17.266  0.00  0.00     0.100 A 
BRANCH   5   8
ATOM      8  C   UNL d   1     -37.942  11.666  17.197  0.00  0.00     0.080 C 
ATOM      9  C   UNL d   1     -38.093  11.001  17.667  0.00  0.00     0.021 C 
ENDBRANCH   5   8
ENDBRANCH   1   2
BRANCH   1  10
ATOM     10  C   UNL d   1     -38.675  15.097  18.628  0.00  0.00     0.130 C 
BRANCH  10  11
ATOM     11  N   UNL d   1     -38.774  14.982  19.442  0.00  0.00    -0.155 NA
BRANCH  11  12
ATOM     12  S   UNL d   1     -38.361  15.449  19.977  0.00  0.00     0.285 S 
ATOM     13  O   UNL d   1     -37.945  15.919  20.513  0.00  0.00    -0.198 OA
ATOM     14  O   UNL d   1     -38.059  15.901  19.345  0.00  0.00    -0.198 OA
BRANCH  12  15
ATOM     15  C   UNL d   1     -38.666  14.994  20.604  0.00  0.00     0.105 A 
ATOM     16  C   UNL d   1     -39.379  15.201  20.958  0.00  0.00     0.013 A 
ATOM     17  C   UNL d   1     -39.678  14.750  21.577  0.00  0.00     0.001 A 
ATOM     18  C   UNL d   1     -39.261  14.089  21.844  0.00  0.00     0.000 A 
ATOM     19  C   UNL d   1     -38.548  13.883  21.490  0.00  0.00     0.001 A 
ATOM     20  C   UNL d   1     -39.562  13.630  22.472  0.00  0.00     0.000 C 
ATOM     21  C   UNL d   1     -38.250  14.334  20.871  0.00  0.00     0.013 A 
ENDBRANCH  12  15
ENDBRANCH  11  12
ENDBRANCH  10  11
ENDBRANCH   1  10
BRANCH   1  22
ATOM     22  C   UNL d   1     -39.818  14.909  17.781  0.00  0.00     0.037 A 
ATOM     23  C   UNL d   1     -40.535  14.612  18.070  0.00  0.00     0.100 A 
ATOM     24  N   UNL d   1     -41.246  14.888  17.762  0.00  0.00    -0.242 NA
ATOM     25  C   UNL d   1     -41.241  15.461  17.164  0.00  0.00     0.099 A 
ATOM     26  C   UNL d   1     -40.528  15.753  16.880  0.00  0.00     0.021 A 
ATOM     27  C   UNL d   1     -39.816  15.477  17.188  0.00  0.00     0.005 A 
ENDBRANCH   1  22
TORSDOF 7
ENDMDL
MODEL 3
REMARK VINA RESULT:      -3.0      8.786     10.064
REMARK  7 active torsions:
REMARK  status: ('A' for Active; 'I' for Inactive)
REMARK    1  A    between atoms: N_3  and  S_1 
REMARK    2  A    between atoms: C_6  and  S_1 
REMARK    3  A    between atoms: N_2  and  C_5 
REMARK    4  A    between atoms: C_4  and  N_3 
REMARK    5  A    between atoms: C_5  and  C_4 
REMARK    6  A    between atoms: C_10  and  C_5 
REMARK    7  A    between atoms: C_22  and  N_7 
ROOT
ATOM      1  C   UNL d   1     -46.901  13.103  22.853  0.00  0.00     0.086 C 
ENDROOT
BRANCH   1   2
ATOM      2  N   UNL d   1     -47.536  12.576  22.908  0.00  0.00    -0.300 N 
ATOM      3  C   UNL d   1     -47.868  12.265  22.224  0.00  0.00     0.100 A 
ATOM      4  C   UNL d   1     -48.504  11.737  22.273  0.00  0.00     0.100 A 
ATOM      5  N   UNL d   1     -48.802  11.523  23.011  0.00  0.00    -0.300 N 
ATOM      6  C   UNL d   1     -48.464  11.839  23.698  0.00  0.00     0.100 A 
ATOM      7  C   UNL d   1     -47.834  12.362  23.645  0.00  0.00     0.100 A 
BRANCH   5   8
ATOM      8  C   UNL d   1     -49.438  10.995  23.069  0.00  0.00     0.080 C 
ATOM      9  C   UNL d   1     -50.111  11.205  23.504  0.00  0.00     0.021 C 
ENDBRANCH   5   8
ENDBRANCH   1   2
BRANCH   1  10
ATOM     10  C   UNL d   1     -47.022  13.913  22.978  0.00  0.00     0.130 C 
BRANCH  10  11
ATOM     11  N   UNL d   1     -47.681  14.286  22.644  0.00  0.00    -0.155 NA
BRANCH  11  12
ATOM     12  S   UNL d   1     -47.684  15.101  22.542  0.00  0.00     0.285 S 
ATOM     13  O   UNL d   1     -47.687  15.920  22.440  0.00  0.00    -0.198 OA
ATOM     14  O   UNL d   1     -46.851  15.103  22.550  0.00  0.00    -0.198 OA
BRANCH  12  15
ATOM     15  C   UNL d   1     -48.517  15.093  22.536  0.00  0.00     0.105 A 
ATOM     16  C   UNL d   1     -48.939  15.183  23.237  0.00  0.00     0.013 A 
ATOM     17  C   UNL d   1     -49.760  15.174  23.228  0.00  0.00     0.001 A 
ATOM     18  C   UNL d   1     -50.163  15.077  22.514  0.00  0.00     0.000 A 
ATOM     19  C   UNL d   1     -49.742  14.987  21.813  0.00  0.00     0.001 A 
ATOM     20  C   UNL d   1     -50.997  15.068  22.502  0.00  0.00     0.000 C 
ATOM     21  C   UNL d   1     -48.921  14.996  21.823  0.00  0.00     0.013 A 
ENDBRANCH  12  15
ENDBRANCH  11  12
ENDBRANCH  10  11
ENDBRANCH   1  10
BRANCH   1  22
ATOM     22  C   UNL d   1     -46.139  12.823  22.673  0.00  0.00     0.037 A 
ATOM     23  C   UNL d   1     -45.766  12.290  23.186  0.00  0.00     0.100 A 
ATOM     24  N   UNL d   1     -45.012  12.012  23.007  0.00  0.00    -0.242 NA
ATOM     25  C   UNL d   1     -44.631  12.267  22.317  0.00  0.00     0.099 A 
ATOM     26  C   UNL d   1     -45.006  12.796  21.811  0.00  0.00     0.021 A 
ATOM     27  C   UNL d   1     -45.760  13.073  21.989  0.00  0.00     0.005 A 
ENDBRANCH   1  22
TORSDOF 7
ENDMDL
MODEL 4
REMARK VINA RESULT:      -2.7      8.412      9.857
REMARK  7 active torsions:
REMARK  status: ('A' for Active; 'I' for Inactive)
REMARK    1  A    between atoms: N_3  and  S_1 
REMARK    2  A    between atoms: C_6  and  S_1 
REMARK    3  A    between atoms: N_2  and  C_5 
REMARK    4  A    between atoms: C_4  and  N_3 
REMARK    5  A    between atoms: C_5  and  C_4 
REMARK    6  A    between atoms: C_10  and  C_5 
REMARK    7  A    between atoms: C_22  and  N_7 
ROOT
ATOM      1  C   UNL d   1     -46.581  13.116  22.717  0.00  0.00     0.086 C 
ENDROOT
BRANCH   1   2
ATOM      2  N   UNL d   1     -45.851  12.959  22.362  0.00  0.00    -0.300 N 
ATOM      3  C   UNL d   1     -45.787  12.957  21.544  0.00  0.00     0.100 A 
ATOM      4  C   UNL d   1     -45.058  12.801  21.183  0.00  0.00     0.100 A 
ATOM      5  N   UNL d   1     -44.395  12.648  21.649  0.00  0.00    -0.300 N 
ATOM      6  C   UNL d   1     -44.464  12.652  22.474  0.00  0.00     0.100 A 
ATOM      7  C   UNL d   1     -45.188  12.807  22.828  0.00  0.00     0.100 A 
BRANCH   5   8
ATOM      8  C   UNL d   1     -43.662  12.491  21.296  0.00  0.00     0.080 C 
ATOM      9  C   UNL d   1     -43.040  13.031  21.380  0.00  0.00     0.021 C 
ENDBRANCH   5   8
ENDBRANCH   1   2
BRANCH   1  10
ATOM     10  C   UNL d   1     -46.941  12.543  23.195  0.00  0.00     0.130 C 
BRANCH  10  11
ATOM     11  N   UNL d   1     -47.692  12.256  22.996  0.00  0.00    -0.155 NA
BRANCH  11  12
ATOM     12  S   UNL d   1     -47.975  11.568  23.345  0.00  0.00     0.285 S 
ATOM     13  O   UNL d   1     -48.258  10.877  23.696  0.00  0.00    -0.198 OA
ATOM     14  O   UNL d   1     -47.198  11.366  23.569  0.00  0.00    -0.198 OA
BRANCH  12  15
ATOM     15  C   UNL d   1     -48.749  11.776  23.118  0.00  0.00     0.105 A 
ATOM     16  C   UNL d   1     -48.990  11.690  22.336  0.00  0.00     0.013 A 
ATOM     17  C   UNL d   1     -49.754  11.896  22.115  0.00  0.00     0.001 A 
ATOM     18  C   UNL d   1     -50.281  12.189  22.679  0.00  0.00     0.000 A 
ATOM     19  C   UNL d   1     -50.040  12.275  23.461  0.00  0.00     0.001 A 
ATOM     20  C   UNL d   1     -51.057  12.399  22.457  0.00  0.00     0.000 C 
ATOM     21  C   UNL d   1     -49.276  12.070  23.681  0.00  0.00     0.013 A 
ENDBRANCH  12  15
ENDBRANCH  11  12
ENDBRANCH  10  11
ENDBRANCH   1  10
BRANCH   1  22
ATOM     22  C   UNL d   1     -46.956  13.849  22.597  0.00  0.00     0.037 A 
ATOM     23  C   UNL d   1     -47.340  14.000  21.879  0.00  0.00     0.100 A 
ATOM     24  N   UNL d   1     -47.711  14.725  21.759  0.00  0.00    -0.242 NA
ATOM     25  C   UNL d   1     -47.697  15.298  22.357  0.00  0.00     0.099 A 
ATOM     26  C   UNL d   1     -47.315  15.144  23.068  0.00  0.00     0.021 A 
ATOM     27  C   UNL d   1     -46.944  14.419  23.187  0.00  0.00     0.005 A 
ENDBRANCH   1  22
TORSDOF 7
ENDMDL
MODEL 5
REMARK VINA RESULT:      -2.7      8.714      9.886
REMARK  7 active torsions:
REMARK  status: ('A' for Active; 'I' for Inactive)
REMARK    1  A    between atoms: N_3  and  S_1 
REMARK    2  A    between atoms: C_6  and  S_1 
REMARK    3  A    between atoms: N_2  and  C_5 
REMARK    4  A    between atoms: C_4  and  N_3 
REMARK    5  A    between atoms: C_5  and  C_4 
REMARK    6  A    between atoms: C_10  and  C_5 
REMARK    7  A    between atoms: C_22  and  N_7 
ROOT
ATOM      1  C   UNL d   1     -48.331  13.509  22.314  0.00  0.00     0.086 C 
ENDROOT
BRANCH   1   2
ATOM      2  N   UNL d   1     -48.847  14.112  22.542  0.00  0.00    -0.300 N 
ATOM      3  C   UNL d   1     -49.141  14.131  23.309  0.00  0.00     0.100 A 
ATOM      4  C   UNL d   1     -49.659  14.734  23.542  0.00  0.00     0.100 A 
ATOM      5  N   UNL d   1     -49.879  15.315  23.002  0.00  0.00    -0.300 N 
ATOM      6  C   UNL d   1     -49.581  15.293  22.230  0.00  0.00     0.100 A 
ATOM      7  C   UNL d   1     -49.068  14.694  22.002  0.00  0.00     0.100 A 
BRANCH   5   8
ATOM      8  C   UNL d   1     -50.397  15.922  23.228  0.00  0.00     0.080 C 
ATOM      9  C   UNL d   1     -51.057  15.748  23.697  0.00  0.00     0.021 C 
ENDBRANCH   5   8
ENDBRANCH   1   2
BRANCH   1  10
ATOM     10  C   UNL d   1     -47.544  13.685  22.124  0.00  0.00     0.130 C 
BRANCH  10  11
ATOM     11  N   UNL d   1     -46.933  13.419  22.617  0.00  0.00    -0.155 NA
BRANCH  11  12
ATOM     12  S   UNL d   1     -46.204  13.797  22.608  0.00  0.00     0.285 S 
ATOM     13  O   UNL d   1     -45.473  14.179  22.600  0.00  0.00    -0.198 OA
ATOM     14  O   UNL d   1     -46.585  14.521  22.447  0.00  0.00    -0.198 OA
BRANCH  12  15
ATOM     15  C   UNL d   1     -45.830  13.071  22.770  0.00  0.00     0.105 A 
ATOM     16  C   UNL d   1     -45.922  12.712  23.504  0.00  0.00     0.013 A 
ATOM     17  C   UNL d   1     -45.551  11.995  23.661  0.00  0.00     0.001 A 
ATOM     18  C   UNL d   1     -45.086  11.636  23.082  0.00  0.00     0.000 A 
ATOM     19  C   UNL d   1     -44.994  11.996  22.347  0.00  0.00     0.001 A 
ATOM     20  C   UNL d   1     -44.709  10.909  23.239  0.00  0.00     0.000 C 
ATOM     21  C   UNL d   1     -45.365  12.712  22.191  0.00  0.00     0.013 A 
ENDBRANCH  12  15
ENDBRANCH  11  12
ENDBRANCH  10  11
ENDBRANCH   1  10
BRANCH   1  22
ATOM     22  C   UNL d   1     -48.599  12.722  22.274  0.00  0.00     0.037 A 
ATOM     23  C   UNL d   1     -48.807  12.323  22.969  0.00  0.00     0.100 A 
ATOM     24  N   UNL d   1     -49.073  11.545  22.929  0.00  0.00    -0.242 NA
ATOM     25  C   UNL d   1     -49.130  11.166  22.195  0.00  0.00     0.099 A 
ATOM     26  C   UNL d   1     -48.922  11.566  21.508  0.00  0.00     0.021 A 
ATOM     27  C   UNL d   1     -48.656  12.344  21.547  0.00  0.00     0.005 A 
ENDBRANCH   1  22
TORSDOF 7
ENDMDL
