MODEL 1
REMARK VINA RESULT:      34.2      0.000      0.000
REMARK  5 active torsions:
REMARK  status: ('A' for Active; 'I' for Inactive)
REMARK    1  A    between atoms: C_17  and  N_5 
REMARK    2  A    between atoms: S_14  and  C_6 
REMARK    3  A    between atoms: C_11  and  C_18 
REMARK    4  A    between atoms: C_18  and  S_14 
REMARK    5  A    between atoms: C_19  and  C_17 
ROOT
ATOM      1  C   UNL d   1      46.123 -17.824  43.209  0.00  0.00     0.081 A 
ATOM      2  C   UNL d   1      46.394 -17.261  42.663  0.00  0.00     0.117 A 
ATOM      3  N   UNL d   1      46.400 -16.460  42.865  0.00  0.00    -0.215 NA
ATOM      4  C   UNL d   1      45.859 -17.590  43.953  0.00  0.00     0.268 A 
ATOM      5  N   UNL d   1      45.864 -16.783  44.161  0.00  0.00    -0.253 N 
ATOM      6  C   UNL d   1      46.135 -16.222  43.613  0.00  0.00     0.182 A 
ATOM      7  S   UNL d   1      46.616 -17.659  41.981  0.00  0.00    -0.068 SA
ATOM      8  C   UNL d   1      46.180 -18.570  42.857  0.00  0.00     0.013 A 
ATOM      9  C   UNL d   1      46.484 -18.468  42.101  0.00  0.00     0.031 A 
ATOM     10  O   UNL d   1      45.592 -18.143  44.491  0.00  0.00    -0.267 OA
ATOM     11  C   UNL d   1      45.959 -19.265  43.236  0.00  0.00     0.001 A 
ATOM     12  C   UNL d   1      46.645 -19.040  41.528  0.00  0.00     0.006 A 
ATOM     13  C   UNL d   1      45.988 -20.039  42.952  0.00  0.00     0.000 A 
ATOM     14  C   UNL d   1      46.540 -19.854  41.577  0.00  0.00     0.001 A 
ATOM     15  C   UNL d   1      46.248 -20.305  42.207  0.00  0.00     0.000 A 
ENDROOT
BRANCH   6  16
ATOM     16  S   UNL d   1      46.140 -15.417  43.819  0.00  0.00    -0.048 SA
BRANCH  16  17
ATOM     17  C   UNL d   1      45.904 -14.852  43.272  0.00  0.00     0.058 C 
BRANCH  17  18
ATOM     18  C   UNL d   1      45.804 -14.065  43.507  0.00  0.00     0.095 A 
ATOM     19  N   UNL d   1      46.062 -13.736  44.201  0.00  0.00    -0.238 NA
ATOM     20  C   UNL d   1      45.842 -12.946  44.199  0.00  0.00     0.111 A 
ATOM     21  C   UNL d   1      45.981 -12.394  44.780  0.00  0.00     0.028 C 
ATOM     22  S   UNL d   1      45.451 -12.798  43.506  0.00  0.00    -0.066 SA
ATOM     23  C   UNL d   1      45.426 -13.484  43.079  0.00  0.00     0.057 A 
ENDBRANCH  17  18
ENDBRANCH  16  17
ENDBRANCH   6  16
BRANCH   5  24
ATOM     24  C   UNL d   1      45.603 -16.538  44.899  0.00  0.00     0.085 C 
BRANCH  24  25
ATOM     25  C   UNL d   1      44.949 -16.016  44.953  0.00  0.00     0.019 C 
ATOM     26  C   UNL d   1      44.193 -16.278  44.754  0.00  0.00     0.002 C 
ENDBRANCH  24  25
ENDBRANCH   5  24
TORSDOF 5
ENDMDL
MODEL 2
REMARK VINA RESULT:      35.2      1.573      5.041
REMARK  5 active torsions:
REMARK  status: ('A' for Active; 'I' for Inactive)
REMARK    1  A    between atoms: C_17  and  N_5 
REMARK    2  A    between atoms: S_14  and  C_6 
REMARK    3  A    between atoms: C_11  and  C_18 
REMARK    4  A    between atoms: C_18  and  S_14 
REMARK    5  A    between atoms: C_19  and  C_17 
ROOT
ATOM      1  C   UNL d   1      45.480 -14.755  44.092  0.00  0.00     0.081 A 
ATOM      2  C   UNL d   1      46.045 -14.973  44.659  0.00  0.00     0.117 A 
ATOM      3  N   UNL d   1      46.173 -15.772  44.827  0.00  0.00    -0.215 NA
ATOM      4  C   UNL d   1      45.044 -15.330  43.694  0.00  0.00     0.268 A 
ATOM      5  N   UNL d   1      45.170 -16.137  43.862  0.00  0.00    -0.253 N 
ATOM      6  C   UNL d   1      45.736 -16.353  44.429  0.00  0.00     0.182 A 
ATOM      7  S   UNL d   1      46.383 -14.287  44.954  0.00  0.00    -0.068 SA
ATOM      8  C   UNL d   1      45.473 -13.930  44.041  0.00  0.00     0.013 A 
ATOM      9  C   UNL d   1      46.030 -13.642  44.572  0.00  0.00     0.031 A 
ATOM     10  O   UNL d   1      44.488 -15.116  43.137  0.00  0.00    -0.267 OA
ATOM     11  C   UNL d   1      44.979 -13.514  43.534  0.00  0.00     0.001 A 
ATOM     12  C   UNL d   1      46.234 -12.858  44.731  0.00  0.00     0.006 A 
ATOM     13  C   UNL d   1      44.916 -12.698  43.428  0.00  0.00     0.000 A 
ATOM     14  C   UNL d   1      45.928 -12.173  44.394  0.00  0.00     0.001 A 
ATOM     15  C   UNL d   1      45.342 -12.094  43.814  0.00  0.00     0.000 A 
ENDROOT
BRANCH   6  16
ATOM     16  S   UNL d   1      45.863 -17.156  44.597  0.00  0.00    -0.048 SA
BRANCH  16  17
ATOM     17  C   UNL d   1      46.533 -17.534  44.310  0.00  0.00     0.058 C 
BRANCH  17  18
ATOM     18  C   UNL d   1      46.565 -18.361  44.290  0.00  0.00     0.095 A 
ATOM     19  N   UNL d   1      46.586 -18.824  43.626  0.00  0.00    -0.238 NA
ATOM     20  C   UNL d   1      46.615 -19.606  43.867  0.00  0.00     0.111 A 
ATOM     21  C   UNL d   1      46.643 -20.268  43.395  0.00  0.00     0.028 C 
ATOM     22  S   UNL d   1      46.613 -19.617  44.676  0.00  0.00    -0.066 SA
ATOM     23  C   UNL d   1      46.583 -18.853  44.938  0.00  0.00     0.057 A 
ENDBRANCH  17  18
ENDBRANCH  16  17
ENDBRANCH   6  16
BRANCH   5  24
ATOM     24  C   UNL d   1      44.743 -16.718  43.473  0.00  0.00     0.085 C 
BRANCH  24  25
ATOM     25  C   UNL d   1      45.096 -17.132  42.835  0.00  0.00     0.019 C 
ATOM     26  C   UNL d   1      44.625 -17.537  42.292  0.00  0.00     0.002 C 
ENDBRANCH  24  25
ENDBRANCH   5  24
TORSDOF 5
ENDMDL
