MODEL 1
REMARK VINA RESULT:      21.9      0.000      0.000
REMARK  5 active torsions:
REMARK  status: ('A' for Active; 'I' for Inactive)
REMARK    1  A    between atoms: N_3  and  C_1 
REMARK    2  A    between atoms: C_12  and  N_2 
REMARK       I    between atoms: C_6  and  N_3 
REMARK    3  A    between atoms: C_8  and  C_6 
REMARK    4  A    between atoms: C_16  and  C_12 
REMARK    5  A    between atoms: O_22  and  C_16 
ROOT
ATOM      1  C   UNL d   1      46.044 -17.074  43.744  0.00  0.00     0.183 A 
ATOM      2  N   UNL d   1      46.267 -17.598  43.152  0.00  0.00    -0.280 N 
ATOM      3  S   UNL d   1      46.006 -17.492  44.454  0.00  0.00    -0.048 SA
ATOM      4  C   UNL d   1      46.208 -18.281  44.299  0.00  0.00     0.051 A 
ATOM      5  C   UNL d   1      46.370 -18.347  43.490  0.00  0.00     0.072 A 
ATOM      6  C   UNL d   1      46.265 -18.944  44.786  0.00  0.00     0.038 A 
ATOM      7  C   UNL d   1      46.589 -19.075  43.171  0.00  0.00     0.020 A 
ATOM      8  C   UNL d   1      46.483 -19.672  44.467  0.00  0.00     0.141 A 
ATOM      9  C   UNL d   1      46.646 -19.738  43.659  0.00  0.00     0.031 A 
ATOM     10  F   UNL d   1      46.539 -20.327  44.954  0.00  0.00    -0.204 F 
ENDROOT
BRANCH   1  11
ATOM     11  N   UNL d   1      45.886 -16.269  43.638  0.00  0.00    -0.183 NA
ATOM     12  C   UNL d   1      45.530 -15.842  44.248  0.00  0.00     0.287 C 
ATOM     13  O   UNL d   1      45.335 -16.219  44.955  0.00  0.00    -0.265 OA
BRANCH  12  14
ATOM     14  C   UNL d   1      45.372 -15.049  44.151  0.00  0.00     0.088 A 
ATOM     15  S   UNL d   1      45.929 -14.434  44.131  0.00  0.00    -0.071 SA
ATOM     16  C   UNL d   1      45.530 -13.733  44.025  0.00  0.00     0.087 A 
ATOM     17 CL   UNL d   1      45.851 -12.981  43.971  0.00  0.00    -0.075 Cl
ATOM     18  C   UNL d   1      44.735 -13.906  43.979  0.00  0.00     0.019 A 
ATOM     19  C   UNL d   1      44.642 -14.713  44.057  0.00  0.00     0.013 A 
ENDBRANCH  12  14
ENDBRANCH   1  11
BRANCH   2  20
ATOM     20  C   UNL d   1      46.450 -17.777  42.370  0.00  0.00     0.151 C 
BRANCH  20  21
ATOM     21  C   UNL d   1      45.851 -17.965  41.847  0.00  0.00     0.314 C 
ATOM     22  O   UNL d   1      45.084 -17.734  42.014  0.00  0.00    -0.257 OA
BRANCH  21  23
ATOM     23  O   UNL d   1      46.014 -18.377  41.167  0.00  0.00    -0.295 OA
ATOM     24  C   UNL d   1      45.500 -18.345  40.536  0.00  0.00     0.185 C 
ENDBRANCH  21  23
ENDBRANCH  20  21
ENDBRANCH   2  20
TORSDOF 5
ENDMDL
