MODEL 1
REMARK VINA RESULT:      13.6      0.000      0.000
REMARK  2 active torsions:
REMARK  status: ('A' for Active; 'I' for Inactive)
REMARK       I    between atoms: N_2  and  C_1 
REMARK    1  A    between atoms: C_5  and  C_1 
REMARK    2  A    between atoms: C_7  and  N_2 
ROOT
ATOM      1  C   UNL d   1      45.944 -15.098  44.393  0.00  0.00     0.125 A 
ATOM      2  C   UNL d   1      46.239 -15.861  44.289  0.00  0.00     0.059 A 
ATOM      3  C   UNL d   1      45.195 -14.976  44.717  0.00  0.00     0.123 A 
ATOM      4  C   UNL d   1      45.781 -16.507  44.512  0.00  0.00     0.137 A 
ATOM      5  O   UNL d   1      46.407 -14.447  44.169  0.00  0.00    -0.301 OA
ATOM      6  O   UNL d   1      44.896 -14.212  44.823  0.00  0.00    -0.301 OA
ATOM      7  C   UNL d   1      44.737 -15.628  44.940  0.00  0.00     0.029 A 
ATOM      8  C   UNL d   1      45.028 -16.390  44.838  0.00  0.00     0.034 A 
ATOM      9  C   UNL d   1      46.115 -13.683  44.271  0.00  0.00     0.149 A 
ATOM     10  C   UNL d   1      45.362 -13.566  44.597  0.00  0.00     0.149 A 
ENDROOT
BRANCH   4  11
ATOM     11  N   UNL d   1      46.071 -17.279  44.410  0.00  0.00    -0.365 NA
ATOM     12  C   UNL d   1      46.356 -18.035  44.306  0.00  0.00     0.328 C 
ATOM     13  O   UNL d   1      46.576 -18.481  44.955  0.00  0.00    -0.251 OA
BRANCH  12  14
ATOM     14  C   UNL d   1      46.419 -18.345  43.553  0.00  0.00     0.070 A 
ATOM     15  C   UNL d   1      46.557 -17.850  42.910  0.00  0.00     0.006 A 
ATOM     16  C   UNL d   1      46.620 -18.167  42.151  0.00  0.00     0.000 A 
ATOM     17  C   UNL d   1      46.546 -18.982  42.028  0.00  0.00     0.000 A 
ATOM     18  C   UNL d   1      46.409 -19.479  42.667  0.00  0.00     0.000 A 
ATOM     19  C   UNL d   1      46.609 -19.299  41.268  0.00  0.00     0.000 C 
ATOM     20  C   UNL d   1      46.345 -19.160  43.431  0.00  0.00     0.006 A 
ENDBRANCH  12  14
ENDBRANCH   4  11
TORSDOF 2
ENDMDL
