MODEL 1
REMARK VINA RESULT:      -6.5      0.000      0.000
REMARK  5 active torsions:
REMARK  status: ('A' for Active; 'I' for Inactive)
REMARK    1  A    between atoms: N_19  and  C_6 
REMARK    2  A    between atoms: N_15  and  C_21 
REMARK    3  A    between atoms: C_25  and  N_19 
REMARK    4  A    between atoms: C_21  and  C_22 
REMARK    5  A    between atoms: C_22  and  C_25 
ROOT
ATOM      1  N   UNL d   1     -48.111  13.698  23.009  0.00  0.00    -0.183 N 
ATOM      2  C   UNL d   1     -48.900  13.521  23.173  0.00  0.00     0.169 A 
ATOM      3  C   UNL d   1     -49.446  14.114  23.279  0.00  0.00     0.073 A 
ATOM      4  C   UNL d   1     -49.197  14.887  23.221  0.00  0.00     0.185 A 
ATOM      5  N   UNL d   1     -48.408  15.065  23.058  0.00  0.00    -0.142 NA
ATOM      6  C   UNL d   1     -47.581  13.091  22.906  0.00  0.00     0.218 A 
ATOM      7  N   UNL d   1     -49.138  12.741  23.228  0.00  0.00    -0.226 NA
ATOM      8  C   UNL d   1     -50.226  13.939  23.440  0.00  0.00     0.007 A 
ATOM      9  N   UNL d   1     -49.738  15.500  23.326  0.00  0.00    -0.225 NA
ATOM     10  C   UNL d   1     -47.811  12.319  22.961  0.00  0.00     0.071 A 
ATOM     11  C   UNL d   1     -50.772  14.533  23.546  0.00  0.00     0.019 A 
ATOM     12  C   UNL d   1     -48.600  12.141  23.124  0.00  0.00     0.087 A 
ATOM     13  C   UNL d   1     -50.527  15.323  23.489  0.00  0.00     0.083 A 
ATOM     14  C   UNL d   1     -50.463  13.156  23.496  0.00  0.00     0.000 C 
ATOM     15  C   UNL d   1     -48.844  11.330  23.181  0.00  0.00     0.021 C 
ATOM     16  C   UNL d   1     -51.064  15.919  23.593  0.00  0.00     0.021 C 
ENDROOT
BRANCH   6  17
ATOM     17  N   UNL d   1     -46.768  13.283  22.738  0.00  0.00    -0.380 NA
BRANCH  17  18
ATOM     18  C   UNL d   1     -45.964  13.518  22.624  0.00  0.00     0.164 C 
BRANCH  18  19
ATOM     19  C   UNL d   1     -45.421  12.991  22.259  0.00  0.00     0.054 C 
BRANCH  19  20
ATOM     20  C   UNL d   1     -44.791  13.293  21.798  0.00  0.00     0.084 C 
BRANCH  20  21
ATOM     21  N   UNL d   1     -44.062  12.869  21.743  0.00  0.00    -0.285 N 
ATOM     22  C   UNL d   1     -43.882  12.134  22.104  0.00  0.00     0.183 A 
ATOM     23  N   UNL d   1     -43.083  11.925  21.891  0.00  0.00    -0.222 NA
ATOM     24  C   UNL d   1     -42.773  12.536  21.396  0.00  0.00     0.120 A 
ATOM     25  C   UNL d   1     -43.381  13.128  21.300  0.00  0.00     0.102 A 
ENDBRANCH  20  21
ENDBRANCH  19  20
ENDBRANCH  18  19
ENDBRANCH  17  18
ENDBRANCH   6  17
TORSDOF 5
ENDMDL
MODEL 2
REMARK VINA RESULT:      -6.2      1.381      2.464
REMARK  5 active torsions:
REMARK  status: ('A' for Active; 'I' for Inactive)
REMARK    1  A    between atoms: N_19  and  C_6 
REMARK    2  A    between atoms: N_15  and  C_21 
REMARK    3  A    between atoms: C_25  and  N_19 
REMARK    4  A    between atoms: C_21  and  C_22 
REMARK    5  A    between atoms: C_22  and  C_25 
ROOT
ATOM      1  N   UNL d   1     -47.598  13.120  22.908  0.00  0.00    -0.183 N 
ATOM      2  C   UNL d   1     -48.366  13.417  22.952  0.00  0.00     0.169 A 
ATOM      3  C   UNL d   1     -48.990  12.930  23.138  0.00  0.00     0.073 A 
ATOM      4  C   UNL d   1     -48.841  12.143  23.279  0.00  0.00     0.185 A 
ATOM      5  N   UNL d   1     -48.073  11.845  23.234  0.00  0.00    -0.142 NA
ATOM      6  C   UNL d   1     -46.988  13.622  22.721  0.00  0.00     0.218 A 
ATOM      7  N   UNL d   1     -48.504  14.210  22.808  0.00  0.00    -0.226 NA
ATOM      8  C   UNL d   1     -49.750  13.225  23.182  0.00  0.00     0.007 A 
ATOM      9  N   UNL d   1     -49.463  11.636  23.468  0.00  0.00    -0.225 NA
ATOM     10  C   UNL d   1     -47.118  14.407  22.577  0.00  0.00     0.071 A 
ATOM     11  C   UNL d   1     -50.374  12.737  23.368  0.00  0.00     0.019 A 
ATOM     12  C   UNL d   1     -47.887  14.705  22.622  0.00  0.00     0.087 A 
ATOM     13  C   UNL d   1     -50.231  11.934  23.513  0.00  0.00     0.083 A 
ATOM     14  C   UNL d   1     -49.886  14.020  23.037  0.00  0.00     0.000 C 
ATOM     15  C   UNL d   1     -48.026  15.528  22.472  0.00  0.00     0.021 C 
ATOM     16  C   UNL d   1     -50.847  11.442  23.698  0.00  0.00     0.021 C 
ENDROOT
BRANCH   6  17
ATOM     17  N   UNL d   1     -46.198  13.307  22.677  0.00  0.00    -0.380 NA
BRANCH  17  18
ATOM     18  C   UNL d   1     -45.429  12.971  22.570  0.00  0.00     0.164 C 
BRANCH  18  19
ATOM     19  C   UNL d   1     -45.262  12.204  22.870  0.00  0.00     0.054 C 
BRANCH  19  20
ATOM     20  C   UNL d   1     -44.527  11.840  22.703  0.00  0.00     0.084 C 
BRANCH  20  21
ATOM     21  N   UNL d   1     -44.320  11.107  23.069  0.00  0.00    -0.285 N 
ATOM     22  C   UNL d   1     -44.850  10.543  23.390  0.00  0.00     0.183 A 
ATOM     23  N   UNL d   1     -44.389   9.894  23.698  0.00  0.00    -0.222 NA
ATOM     24  C   UNL d   1     -43.571  10.064  23.562  0.00  0.00     0.120 A 
ATOM     25  C   UNL d   1     -43.524  10.821  23.169  0.00  0.00     0.102 A 
ENDBRANCH  20  21
ENDBRANCH  19  20
ENDBRANCH  18  19
ENDBRANCH  17  18
ENDBRANCH   6  17
TORSDOF 5
ENDMDL
MODEL 3
REMARK VINA RESULT:      -5.5      1.954      4.027
REMARK  5 active torsions:
REMARK  status: ('A' for Active; 'I' for Inactive)
REMARK    1  A    between atoms: N_19  and  C_6 
REMARK    2  A    between atoms: N_15  and  C_21 
REMARK    3  A    between atoms: C_25  and  N_19 
REMARK    4  A    between atoms: C_21  and  C_22 
REMARK    5  A    between atoms: C_22  and  C_25 
ROOT
ATOM      1  N   UNL d   1     -44.475  12.560  22.229  0.00  0.00    -0.183 N 
ATOM      2  C   UNL d   1     -45.040  12.213  22.720  0.00  0.00     0.169 A 
ATOM      3  C   UNL d   1     -45.770  12.557  22.820  0.00  0.00     0.073 A 
ATOM      4  C   UNL d   1     -45.932  13.251  22.426  0.00  0.00     0.185 A 
ATOM      5  N   UNL d   1     -45.367  13.597  21.935  0.00  0.00    -0.142 NA
ATOM      6  C   UNL d   1     -43.751  12.202  22.141  0.00  0.00     0.218 A 
ATOM      7  N   UNL d   1     -44.866  11.517  23.110  0.00  0.00    -0.226 NA
ATOM      8  C   UNL d   1     -46.329  12.214  23.306  0.00  0.00     0.007 A 
ATOM      9  N   UNL d   1     -46.667  13.611  22.517  0.00  0.00    -0.225 NA
ATOM     10  C   UNL d   1     -43.574  11.513  22.526  0.00  0.00     0.071 A 
ATOM     11  C   UNL d   1     -47.059  12.558  23.406  0.00  0.00     0.019 A 
ATOM     12  C   UNL d   1     -44.139  11.166  23.016  0.00  0.00     0.087 A 
ATOM     13  C   UNL d   1     -47.232  13.264  23.008  0.00  0.00     0.083 A 
ATOM     14  C   UNL d   1     -46.153  11.516  23.697  0.00  0.00     0.000 C 
ATOM     15  C   UNL d   1     -43.956  10.443  23.421  0.00  0.00     0.021 C 
ATOM     16  C   UNL d   1     -47.956  13.613  23.103  0.00  0.00     0.021 C 
ENDROOT
BRANCH   6  17
ATOM     17  N   UNL d   1     -43.173  12.567  21.633  0.00  0.00    -0.380 NA
BRANCH  17  18
ATOM     18  C   UNL d   1     -42.580  12.865  21.109  0.00  0.00     0.164 C 
BRANCH  18  19
ATOM     19  C   UNL d   1     -42.181  13.582  21.293  0.00  0.00     0.054 C 
BRANCH  19  20
ATOM     20  C   UNL d   1     -41.693  13.947  20.720  0.00  0.00     0.084 C 
BRANCH  20  21
ATOM     21  N   UNL d   1     -41.136  14.541  20.949  0.00  0.00    -0.285 N 
ATOM     22  C   UNL d   1     -41.291  15.358  21.049  0.00  0.00     0.183 A 
ATOM     23  N   UNL d   1     -40.562  15.736  21.283  0.00  0.00    -0.222 NA
ATOM     24  C   UNL d   1     -39.959  15.144  21.327  0.00  0.00     0.120 A 
ATOM     25  C   UNL d   1     -40.314  14.396  21.119  0.00  0.00     0.102 A 
ENDBRANCH  20  21
ENDBRANCH  19  20
ENDBRANCH  18  19
ENDBRANCH  17  18
ENDBRANCH   6  17
TORSDOF 5
ENDMDL
MODEL 4
REMARK VINA RESULT:      -5.4      3.752      8.488
REMARK  5 active torsions:
REMARK  status: ('A' for Active; 'I' for Inactive)
REMARK    1  A    between atoms: N_19  and  C_6 
REMARK    2  A    between atoms: N_15  and  C_21 
REMARK    3  A    between atoms: C_25  and  N_19 
REMARK    4  A    between atoms: C_21  and  C_22 
REMARK    5  A    between atoms: C_22  and  C_25 
ROOT
ATOM      1  N   UNL d   1     -41.026  14.267  19.871  0.00  0.00    -0.183 N 
ATOM      2  C   UNL d   1     -40.455  14.820  19.647  0.00  0.00     0.169 A 
ATOM      3  C   UNL d   1     -40.163  14.831  18.888  0.00  0.00     0.073 A 
ATOM      4  C   UNL d   1     -40.445  14.286  18.354  0.00  0.00     0.185 A 
ATOM      5  N   UNL d   1     -41.016  13.734  18.577  0.00  0.00    -0.142 NA
ATOM      6  C   UNL d   1     -41.305  14.272  20.633  0.00  0.00     0.218 A 
ATOM      7  N   UNL d   1     -40.180  15.362  20.192  0.00  0.00    -0.226 NA
ATOM      8  C   UNL d   1     -39.599  15.378  18.667  0.00  0.00     0.007 A 
ATOM      9  N   UNL d   1     -40.159  14.285  17.581  0.00  0.00    -0.225 NA
ATOM     10  C   UNL d   1     -41.036  14.806  21.177  0.00  0.00     0.071 A 
ATOM     11  C   UNL d   1     -39.307  15.389  17.908  0.00  0.00     0.019 A 
ATOM     12  C   UNL d   1     -40.466  15.359  20.953  0.00  0.00     0.087 A 
ATOM     13  C   UNL d   1     -39.589  14.837  17.358  0.00  0.00     0.083 A 
ATOM     14  C   UNL d   1     -39.323  15.921  19.216  0.00  0.00     0.000 C 
ATOM     15  C   UNL d   1     -40.181  15.921  21.522  0.00  0.00     0.021 C 
ATOM     16  C   UNL d   1     -39.303  14.842  16.600  0.00  0.00     0.021 C 
ENDROOT
BRANCH   6  17
ATOM     17  N   UNL d   1     -41.894  13.698  20.856  0.00  0.00    -0.380 NA
BRANCH  17  18
ATOM     18  C   UNL d   1     -42.429  13.081  21.076  0.00  0.00     0.164 C 
BRANCH  18  19
ATOM     19  C   UNL d   1     -43.158  13.271  21.448  0.00  0.00     0.054 C 
BRANCH  19  20
ATOM     20  C   UNL d   1     -43.807  12.745  21.389  0.00  0.00     0.084 C 
BRANCH  20  21
ATOM     21  N   UNL d   1     -44.467  12.823  21.911  0.00  0.00    -0.285 N 
ATOM     22  C   UNL d   1     -44.659  12.318  22.552  0.00  0.00     0.183 A 
ATOM     23  N   UNL d   1     -45.371  12.615  22.917  0.00  0.00    -0.222 NA
ATOM     24  C   UNL d   1     -45.616  13.306  22.494  0.00  0.00     0.120 A 
ATOM     25  C   UNL d   1     -45.054  13.439  21.865  0.00  0.00     0.102 A 
ENDBRANCH  20  21
ENDBRANCH  19  20
ENDBRANCH  18  19
ENDBRANCH  17  18
ENDBRANCH   6  17
TORSDOF 5
ENDMDL
MODEL 5
REMARK VINA RESULT:      -4.9      1.661      2.432
REMARK  5 active torsions:
REMARK  status: ('A' for Active; 'I' for Inactive)
REMARK    1  A    between atoms: N_19  and  C_6 
REMARK    2  A    between atoms: N_15  and  C_21 
REMARK    3  A    between atoms: C_25  and  N_19 
REMARK    4  A    between atoms: C_21  and  C_22 
REMARK    5  A    between atoms: C_22  and  C_25 
ROOT
ATOM      1  N   UNL d   1     -47.564  12.903  22.976  0.00  0.00    -0.183 N 
ATOM      2  C   UNL d   1     -47.857  13.657  22.815  0.00  0.00     0.169 A 
ATOM      3  C   UNL d   1     -48.656  13.785  22.737  0.00  0.00     0.073 A 
ATOM      4  C   UNL d   1     -49.162  13.152  22.821  0.00  0.00     0.185 A 
ATOM      5  N   UNL d   1     -48.869  12.398  22.982  0.00  0.00    -0.142 NA
ATOM      6  C   UNL d   1     -46.762  12.796  23.050  0.00  0.00     0.218 A 
ATOM      7  N   UNL d   1     -47.340  14.284  22.732  0.00  0.00    -0.226 NA
ATOM      8  C   UNL d   1     -48.946  14.531  22.578  0.00  0.00     0.007 A 
ATOM      9  N   UNL d   1     -49.975  13.265  22.745  0.00  0.00    -0.225 NA
ATOM     10  C   UNL d   1     -46.247  13.413  22.969  0.00  0.00     0.071 A 
ATOM     11  C   UNL d   1     -49.746  14.657  22.500  0.00  0.00     0.019 A 
ATOM     12  C   UNL d   1     -46.539  14.167  22.808  0.00  0.00     0.087 A 
ATOM     13  C   UNL d   1     -50.267  14.019  22.584  0.00  0.00     0.083 A 
ATOM     14  C   UNL d   1     -48.426  15.159  22.495  0.00  0.00     0.000 C 
ATOM     15  C   UNL d   1     -46.000  14.817  22.723  0.00  0.00     0.021 C 
ATOM     16  C   UNL d   1     -51.064  14.138  22.508  0.00  0.00     0.021 C 
ENDROOT
BRANCH   6  17
ATOM     17  N   UNL d   1     -46.468  12.014  23.216  0.00  0.00    -0.380 NA
BRANCH  17  18
ATOM     18  C   UNL d   1     -46.223  11.234  23.433  0.00  0.00     0.164 C 
BRANCH  18  19
ATOM     19  C   UNL d   1     -45.472  10.948  23.187  0.00  0.00     0.054 C 
BRANCH  19  20
ATOM     20  C   UNL d   1     -45.023  10.460  23.698  0.00  0.00     0.084 C 
BRANCH  20  21
ATOM     21  N   UNL d   1     -44.234  10.238  23.491  0.00  0.00    -0.285 N 
ATOM     22  C   UNL d   1     -43.941   9.458  23.403  0.00  0.00     0.183 A 
ATOM     23  N   UNL d   1     -43.116   9.508  23.192  0.00  0.00    -0.222 NA
ATOM     24  C   UNL d   1     -42.904  10.326  23.151  0.00  0.00     0.120 A 
ATOM     25  C   UNL d   1     -43.599  10.786  23.338  0.00  0.00     0.102 A 
ENDBRANCH  20  21
ENDBRANCH  19  20
ENDBRANCH  18  19
ENDBRANCH  17  18
ENDBRANCH   6  17
TORSDOF 5
ENDMDL
MODEL 6
REMARK VINA RESULT:      -4.9      1.075      2.319
REMARK  5 active torsions:
REMARK  status: ('A' for Active; 'I' for Inactive)
REMARK    1  A    between atoms: N_19  and  C_6 
REMARK    2  A    between atoms: N_15  and  C_21 
REMARK    3  A    between atoms: C_25  and  N_19 
REMARK    4  A    between atoms: C_21  and  C_22 
REMARK    5  A    between atoms: C_22  and  C_25 
ROOT
ATOM      1  N   UNL d   1     -47.281  12.862  22.783  0.00  0.00    -0.183 N 
ATOM      2  C   UNL d   1     -48.013  13.219  22.913  0.00  0.00     0.169 A 
ATOM      3  C   UNL d   1     -48.663  12.771  23.109  0.00  0.00     0.073 A 
ATOM      4  C   UNL d   1     -48.576  11.965  23.175  0.00  0.00     0.185 A 
ATOM      5  N   UNL d   1     -47.844  11.609  23.045  0.00  0.00    -0.142 NA
ATOM      6  C   UNL d   1     -46.643  13.326  22.588  0.00  0.00     0.218 A 
ATOM      7  N   UNL d   1     -48.089  14.029  22.845  0.00  0.00    -0.226 NA
ATOM      8  C   UNL d   1     -49.388  13.124  23.238  0.00  0.00     0.007 A 
ATOM      9  N   UNL d   1     -49.226  11.498  23.373  0.00  0.00    -0.225 NA
ATOM     10  C   UNL d   1     -46.712  14.129  22.519  0.00  0.00     0.071 A 
ATOM     11  C   UNL d   1     -50.038  12.676  23.434  0.00  0.00     0.019 A 
ATOM     12  C   UNL d   1     -47.445  14.485  22.649  0.00  0.00     0.087 A 
ATOM     13  C   UNL d   1     -49.958  11.854  23.503  0.00  0.00     0.083 A 
ATOM     14  C   UNL d   1     -49.462  13.937  23.169  0.00  0.00     0.000 C 
ATOM     15  C   UNL d   1     -47.520  15.327  22.577  0.00  0.00     0.021 C 
ATOM     16  C   UNL d   1     -50.601  11.402  23.698  0.00  0.00     0.021 C 
ENDROOT
BRANCH   6  17
ATOM     17  N   UNL d   1     -45.890  12.951  22.456  0.00  0.00    -0.380 NA
BRANCH  17  18
ATOM     18  C   UNL d   1     -45.125  12.596  22.389  0.00  0.00     0.164 C 
BRANCH  18  19
ATOM     19  C   UNL d   1     -44.553  12.927  21.870  0.00  0.00     0.054 C 
BRANCH  19  20
ATOM     20  C   UNL d   1     -43.795  12.580  21.807  0.00  0.00     0.084 C 
BRANCH  20  21
ATOM     21  N   UNL d   1     -43.152  13.016  21.472  0.00  0.00    -0.285 N 
ATOM     22  C   UNL d   1     -43.068  13.850  21.459  0.00  0.00     0.183 A 
ATOM     23  N   UNL d   1     -42.334  14.033  21.064  0.00  0.00    -0.222 NA
ATOM     24  C   UNL d   1     -41.969  13.306  20.833  0.00  0.00     0.120 A 
ATOM     25  C   UNL d   1     -42.477  12.668  21.086  0.00  0.00     0.102 A 
ENDBRANCH  20  21
ENDBRANCH  19  20
ENDBRANCH  18  19
ENDBRANCH  17  18
ENDBRANCH   6  17
TORSDOF 5
ENDMDL
MODEL 7
REMARK VINA RESULT:      -4.7      9.157     10.938
REMARK  5 active torsions:
REMARK  status: ('A' for Active; 'I' for Inactive)
REMARK    1  A    between atoms: N_19  and  C_6 
REMARK    2  A    between atoms: N_15  and  C_21 
REMARK    3  A    between atoms: C_25  and  N_19 
REMARK    4  A    between atoms: C_21  and  C_22 
REMARK    5  A    between atoms: C_22  and  C_25 
ROOT
ATOM      1  N   UNL d   1     -38.568  14.218  18.081  0.00  0.00    -0.183 N 
ATOM      2  C   UNL d   1     -38.358  13.915  17.343  0.00  0.00     0.169 A 
ATOM      3  C   UNL d   1     -38.258  14.408  16.705  0.00  0.00     0.073 A 
ATOM      4  C   UNL d   1     -38.371  15.208  16.809  0.00  0.00     0.185 A 
ATOM      5  N   UNL d   1     -38.581  15.511  17.546  0.00  0.00    -0.142 NA
ATOM      6  C   UNL d   1     -38.663  13.709  18.707  0.00  0.00     0.218 A 
ATOM      7  N   UNL d   1     -38.247  13.111  17.251  0.00  0.00    -0.226 NA
ATOM      8  C   UNL d   1     -38.050  14.108  15.975  0.00  0.00     0.007 A 
ATOM      9  N   UNL d   1     -38.273  15.721  16.172  0.00  0.00    -0.225 NA
ATOM     10  C   UNL d   1     -38.555  12.912  18.621  0.00  0.00     0.071 A 
ATOM     11  C   UNL d   1     -37.950  14.603  15.337  0.00  0.00     0.019 A 
ATOM     12  C   UNL d   1     -38.345  12.609  17.883  0.00  0.00     0.087 A 
ATOM     13  C   UNL d   1     -38.063  15.418  15.434  0.00  0.00     0.083 A 
ATOM     14  C   UNL d   1     -37.940  13.301  15.884  0.00  0.00     0.000 C 
ATOM     15  C   UNL d   1     -38.231  11.773  17.791  0.00  0.00     0.021 C 
ATOM     16  C   UNL d   1     -37.966  15.916  14.803  0.00  0.00     0.021 C 
ENDROOT
BRANCH   6  17
ATOM     17  N   UNL d   1     -38.881  14.030  19.466  0.00  0.00    -0.380 NA
BRANCH  17  18
ATOM     18  C   UNL d   1     -39.090  14.412  20.191  0.00  0.00     0.164 C 
BRANCH  18  19
ATOM     19  C   UNL d   1     -38.952  14.024  20.923  0.00  0.00     0.054 C 
BRANCH  19  20
ATOM     20  C   UNL d   1     -39.007  14.453  21.640  0.00  0.00     0.084 C 
BRANCH  20  21
ATOM     21  N   UNL d   1     -38.808  14.084  22.374  0.00  0.00    -0.285 N 
ATOM     22  C   UNL d   1     -38.839  13.264  22.546  0.00  0.00     0.183 A 
ATOM     23  N   UNL d   1     -38.589  13.155  23.354  0.00  0.00    -0.222 NA
ATOM     24  C   UNL d   1     -38.403  13.914  23.678  0.00  0.00     0.120 A 
ATOM     25  C   UNL d   1     -38.539  14.497  23.069  0.00  0.00     0.102 A 
ENDBRANCH  20  21
ENDBRANCH  19  20
ENDBRANCH  18  19
ENDBRANCH  17  18
ENDBRANCH   6  17
TORSDOF 5
ENDMDL
MODEL 8
REMARK VINA RESULT:      -4.4      7.360      9.608
REMARK  5 active torsions:
REMARK  status: ('A' for Active; 'I' for Inactive)
REMARK    1  A    between atoms: N_19  and  C_6 
REMARK    2  A    between atoms: N_15  and  C_21 
REMARK    3  A    between atoms: C_25  and  N_19 
REMARK    4  A    between atoms: C_21  and  C_22 
REMARK    5  A    between atoms: C_22  and  C_25 
ROOT
ATOM      1  N   UNL d   1     -39.621  15.055  19.821  0.00  0.00    -0.183 N 
ATOM      2  C   UNL d   1     -39.892  14.870  20.578  0.00  0.00     0.169 A 
ATOM      3  C   UNL d   1     -39.430  14.439  21.090  0.00  0.00     0.073 A 
ATOM      4  C   UNL d   1     -38.695  14.194  20.841  0.00  0.00     0.185 A 
ATOM      5  N   UNL d   1     -38.424  14.380  20.084  0.00  0.00    -0.142 NA
ATOM      6  C   UNL d   1     -40.097  15.487  19.323  0.00  0.00     0.218 A 
ATOM      7  N   UNL d   1     -40.632  15.121  20.817  0.00  0.00    -0.226 NA
ATOM      8  C   UNL d   1     -39.699  14.256  21.838  0.00  0.00     0.007 A 
ATOM      9  N   UNL d   1     -38.216  13.757  21.348  0.00  0.00    -0.225 NA
ATOM     10  C   UNL d   1     -40.829  15.738  19.555  0.00  0.00     0.071 A 
ATOM     11  C   UNL d   1     -39.236  13.825  22.351  0.00  0.00     0.019 A 
ATOM     12  C   UNL d   1     -41.100  15.553  20.312  0.00  0.00     0.087 A 
ATOM     13  C   UNL d   1     -38.487  13.572  22.105  0.00  0.00     0.083 A 
ATOM     14  C   UNL d   1     -40.441  14.509  22.077  0.00  0.00     0.000 C 
ATOM     15  C   UNL d   1     -41.869  15.815  20.558  0.00  0.00     0.021 C 
ATOM     16  C   UNL d   1     -38.022  13.142  22.609  0.00  0.00     0.021 C 
ENDROOT
BRANCH   6  17
ATOM     17  N   UNL d   1     -39.809  15.674  18.543  0.00  0.00    -0.380 NA
BRANCH  17  18
ATOM     18  C   UNL d   1     -39.503  15.921  17.795  0.00  0.00     0.164 C 
BRANCH  18  19
ATOM     19  C   UNL d   1     -39.445  15.369  17.164  0.00  0.00     0.054 C 
BRANCH  19  20
ATOM     20  C   UNL d   1     -38.870  15.478  16.565  0.00  0.00     0.084 C 
BRANCH  20  21
ATOM     21  N   UNL d   1     -38.596  14.819  16.112  0.00  0.00    -0.285 N 
ATOM     22  C   UNL d   1     -38.786  14.012  16.238  0.00  0.00     0.183 A 
ATOM     23  N   UNL d   1     -38.381  13.551  15.645  0.00  0.00    -0.222 NA
ATOM     24  C   UNL d   1     -37.941  14.080  15.154  0.00  0.00     0.120 A 
ATOM     25  C   UNL d   1     -38.072  14.874  15.442  0.00  0.00     0.102 A 
ENDBRANCH  20  21
ENDBRANCH  19  20
ENDBRANCH  18  19
ENDBRANCH  17  18
ENDBRANCH   6  17
TORSDOF 5
ENDMDL
MODEL 9
REMARK VINA RESULT:      -3.9      1.082      1.394
REMARK  5 active torsions:
REMARK  status: ('A' for Active; 'I' for Inactive)
REMARK    1  A    between atoms: N_19  and  C_6 
REMARK    2  A    between atoms: N_15  and  C_21 
REMARK    3  A    between atoms: C_25  and  N_19 
REMARK    4  A    between atoms: C_21  and  C_22 
REMARK    5  A    between atoms: C_22  and  C_25 
ROOT
ATOM      1  N   UNL d   1     -47.652  12.651  23.306  0.00  0.00    -0.183 N 
ATOM      2  C   UNL d   1     -48.446  12.848  23.202  0.00  0.00     0.169 A 
ATOM      3  C   UNL d   1     -48.661  13.597  22.973  0.00  0.00     0.073 A 
ATOM      4  C   UNL d   1     -48.077  14.149  22.847  0.00  0.00     0.185 A 
ATOM      5  N   UNL d   1     -47.283  13.952  22.950  0.00  0.00    -0.142 NA
ATOM      6  C   UNL d   1     -47.457  11.896  23.536  0.00  0.00     0.218 A 
ATOM      7  N   UNL d   1     -49.025  12.285  23.331  0.00  0.00    -0.226 NA
ATOM      8  C   UNL d   1     -49.447  13.792  22.870  0.00  0.00     0.007 A 
ATOM      9  N   UNL d   1     -48.279  14.914  22.614  0.00  0.00    -0.225 NA
ATOM     10  C   UNL d   1     -48.025  11.336  23.665  0.00  0.00     0.071 A 
ATOM     11  C   UNL d   1     -49.662  14.543  22.640  0.00  0.00     0.019 A 
ATOM     12  C   UNL d   1     -48.820  11.533  23.561  0.00  0.00     0.087 A 
ATOM     13  C   UNL d   1     -49.073  15.111  22.510  0.00  0.00     0.083 A 
ATOM     14  C   UNL d   1     -50.026  13.227  23.000  0.00  0.00     0.000 C 
ATOM     15  C   UNL d   1     -49.418  10.946  23.696  0.00  0.00     0.021 C 
ATOM     16  C   UNL d   1     -49.279  15.859  22.281  0.00  0.00     0.021 C 
ENDROOT
BRANCH   6  17
ATOM     17  N   UNL d   1     -46.634  11.701  23.640  0.00  0.00    -0.380 NA
BRANCH  17  18
ATOM     18  C   UNL d   1     -45.825  11.462  23.692  0.00  0.00     0.164 C 
BRANCH  18  19
ATOM     19  C   UNL d   1     -45.263  11.768  23.147  0.00  0.00     0.054 C 
BRANCH  19  20
ATOM     20  C   UNL d   1     -44.571  11.332  22.972  0.00  0.00     0.084 C 
BRANCH  20  21
ATOM     21  N   UNL d   1     -43.928  11.698  22.561  0.00  0.00    -0.285 N 
ATOM     22  C   UNL d   1     -43.167  11.370  22.432  0.00  0.00     0.183 A 
ATOM     23  N   UNL d   1     -42.707  11.940  21.994  0.00  0.00    -0.222 NA
ATOM     24  C   UNL d   1     -43.191  12.620  21.855  0.00  0.00     0.120 A 
ATOM     25  C   UNL d   1     -43.955  12.473  22.208  0.00  0.00     0.102 A 
ENDBRANCH  20  21
ENDBRANCH  19  20
ENDBRANCH  18  19
ENDBRANCH  17  18
ENDBRANCH   6  17
TORSDOF 5
ENDMDL
