MODEL 1
REMARK VINA RESULT:       2.5      0.000      0.000
REMARK  6 active torsions:
REMARK  status: ('A' for Active; 'I' for Inactive)
REMARK    1  A    between atoms: C_3  and  N_1 
REMARK    2  A    between atoms: N_9  and  C_3 
REMARK    3  A    between atoms: C_7  and  C_4 
REMARK    4  A    between atoms: C_8  and  C_5 
REMARK    5  A    between atoms: C_16  and  N_9 
REMARK    6  A    between atoms: O_17  and  C_13 
ROOT
ATOM      1  N   UNL d   1      56.439   0.038  32.583  0.00  0.00    -0.201 N 
ATOM      2  N   UNL d   1      56.884   0.501  32.062  0.00  0.00    -0.163 NA
ATOM      3  C   UNL d   1      57.287  -0.014  31.554  0.00  0.00     0.105 A 
ATOM      4  C   UNL d   1      56.554  -0.757  32.411  0.00  0.00     0.110 A 
ATOM      5  C   UNL d   1      57.083  -0.758  31.771  0.00  0.00     0.042 A 
ENDROOT
BRANCH   1   6
ATOM      6  C   UNL d   1      55.952   0.327  33.183  0.00  0.00     0.222 C 
ATOM      7  S   UNL d   1      55.471   0.676  32.615  0.00  0.00    -0.037 SA
BRANCH   6   8
ATOM      8  N   UNL d   1      55.468   0.614  33.796  0.00  0.00    -0.217 NA
BRANCH   8   9
ATOM      9  C   UNL d   1      55.752   0.630  34.547  0.00  0.00     0.084 A 
ATOM     10  C   UNL d   1      56.573   0.661  34.702  0.00  0.00     0.019 A 
ATOM     11  C   UNL d   1      56.832   0.676  35.479  0.00  0.00     0.002 A 
ATOM     12  C   UNL d   1      56.320   0.662  36.100  0.00  0.00     0.000 A 
ATOM     13  C   UNL d   1      55.499   0.631  35.970  0.00  0.00     0.002 A 
ATOM     14  C   UNL d   1      55.215   0.615  35.194  0.00  0.00     0.019 A 
ENDBRANCH   8   9
ENDBRANCH   6   8
ENDBRANCH   1   6
BRANCH   4  15
ATOM     15  C   UNL d   1      56.140  -1.537  32.880  0.00  0.00     0.118 A 
ATOM     16  O   UNL d   1      56.554  -2.125  33.341  0.00  0.00    -0.304 OA
ATOM     17  C   UNL d   1      56.006  -2.667  33.627  0.00  0.00     0.123 A 
ATOM     18  C   UNL d   1      55.258  -2.441  33.363  0.00  0.00     0.029 A 
ATOM     19  C   UNL d   1      55.329  -1.775  32.921  0.00  0.00     0.028 A 
ENDBRANCH   4  15
BRANCH   3  20
ATOM     20  C   UNL d   1      57.832   0.229  30.904  0.00  0.00     0.042 A 
ATOM     21  C   UNL d   1      58.134   0.408  30.186  0.00  0.00     0.096 A 
ATOM     22  C   UNL d   1      58.878   0.631  30.164  0.00  0.00     0.024 A 
ATOM     23  C   UNL d   1      59.340   0.682  30.845  0.00  0.00     0.002 A 
ATOM     24  C   UNL d   1      59.059   0.510  31.548  0.00  0.00     0.000 A 
ATOM     25  C   UNL d   1      58.294   0.280  31.585  0.00  0.00     0.004 A 
BRANCH  21  26
ATOM     26  O   UNL d   1      57.671   0.357  29.504  0.00  0.00    -0.328 OA
ATOM     27  C   UNL d   1      57.923   0.675  28.873  0.00  0.00     0.181 C 
ENDBRANCH  21  26
ENDBRANCH   3  20
TORSDOF 6
ENDMDL
MODEL 2
REMARK VINA RESULT:       3.6      1.151      1.427
REMARK  6 active torsions:
REMARK  status: ('A' for Active; 'I' for Inactive)
REMARK    1  A    between atoms: C_3  and  N_1 
REMARK    2  A    between atoms: N_9  and  C_3 
REMARK    3  A    between atoms: C_7  and  C_4 
REMARK    4  A    between atoms: C_8  and  C_5 
REMARK    5  A    between atoms: C_16  and  N_9 
REMARK    6  A    between atoms: O_17  and  C_13 
ROOT
ATOM      1  N   UNL d   1      57.077  -0.270  32.001  0.00  0.00    -0.201 N 
ATOM      2  N   UNL d   1      57.589  -0.044  31.392  0.00  0.00    -0.163 NA
ATOM      3  C   UNL d   1      57.664  -0.689  30.878  0.00  0.00     0.105 A 
ATOM      4  C   UNL d   1      56.831  -1.043  31.880  0.00  0.00     0.110 A 
ATOM      5  C   UNL d   1      57.209  -1.276  31.179  0.00  0.00     0.042 A 
ENDROOT
BRANCH   1   6
ATOM      6  C   UNL d   1      56.848   0.207  32.635  0.00  0.00     0.222 C 
ATOM      7  S   UNL d   1      56.382   0.650  32.122  0.00  0.00    -0.037 SA
BRANCH   6   8
ATOM      8  N   UNL d   1      56.623   0.682  33.280  0.00  0.00    -0.217 NA
BRANCH   8   9
ATOM      9  C   UNL d   1      57.063   0.666  33.952  0.00  0.00     0.084 A 
ATOM     10  C   UNL d   1      57.898   0.639  33.925  0.00  0.00     0.019 A 
ATOM     11  C   UNL d   1      58.319   0.624  34.628  0.00  0.00     0.002 A 
ATOM     12  C   UNL d   1      57.953   0.634  35.346  0.00  0.00     0.000 A 
ATOM     13  C   UNL d   1      57.123   0.660  35.396  0.00  0.00     0.002 A 
ATOM     14  C   UNL d   1      56.678   0.676  34.700  0.00  0.00     0.019 A 
ENDBRANCH   8   9
ENDBRANCH   6   8
ENDBRANCH   1   6
BRANCH   4  15
ATOM     15  C   UNL d   1      56.210  -1.572  32.460  0.00  0.00     0.118 A 
ATOM     16  O   UNL d   1      56.435  -2.182  33.013  0.00  0.00    -0.304 OA
ATOM     17  C   UNL d   1      55.756  -2.473  33.374  0.00  0.00     0.123 A 
ATOM     18  C   UNL d   1      55.107  -2.067  33.066  0.00  0.00     0.029 A 
ATOM     19  C   UNL d   1      55.367  -1.533  32.526  0.00  0.00     0.028 A 
ENDBRANCH   4  15
BRANCH   3  20
ATOM     20  C   UNL d   1      58.155  -0.707  30.146  0.00  0.00     0.042 A 
ATOM     21  C   UNL d   1      58.609  -0.953  29.535  0.00  0.00     0.096 A 
ATOM     22  C   UNL d   1      58.842  -0.409  29.032  0.00  0.00     0.024 A 
ATOM     23  C   UNL d   1      58.637   0.385  29.117  0.00  0.00     0.002 A 
ATOM     24  C   UNL d   1      58.197   0.636  29.706  0.00  0.00     0.000 A 
ATOM     25  C   UNL d   1      57.950   0.087  30.232  0.00  0.00     0.004 A 
BRANCH  21  26
ATOM     26  O   UNL d   1      58.815  -1.747  29.449  0.00  0.00    -0.328 OA
ATOM     27  C   UNL d   1      58.781  -2.057  28.767  0.00  0.00     0.181 C 
ENDBRANCH  21  26
ENDBRANCH   3  20
TORSDOF 6
ENDMDL
MODEL 3
REMARK VINA RESULT:       4.2      2.024      5.115
REMARK  6 active torsions:
REMARK  status: ('A' for Active; 'I' for Inactive)
REMARK    1  A    between atoms: C_3  and  N_1 
REMARK    2  A    between atoms: N_9  and  C_3 
REMARK    3  A    between atoms: C_7  and  C_4 
REMARK    4  A    between atoms: C_8  and  C_5 
REMARK    5  A    between atoms: C_16  and  N_9 
REMARK    6  A    between atoms: O_17  and  C_13 
ROOT
ATOM      1  N   UNL d   1      58.819   0.178  31.209  0.00  0.00    -0.201 N 
ATOM      2  N   UNL d   1      58.644   0.232  32.015  0.00  0.00    -0.163 NA
ATOM      3  C   UNL d   1      57.823   0.315  32.087  0.00  0.00     0.105 A 
ATOM      4  C   UNL d   1      58.124   0.224  30.774  0.00  0.00     0.110 A 
ATOM      5  C   UNL d   1      57.526   0.308  31.343  0.00  0.00     0.042 A 
ENDROOT
BRANCH   1   6
ATOM      6  C   UNL d   1      59.574   0.090  30.888  0.00  0.00     0.222 C 
ATOM      7  S   UNL d   1      59.847   0.681  31.390  0.00  0.00    -0.037 SA
BRANCH   6   8
ATOM      8  N   UNL d   1      60.332  -0.006  30.558  0.00  0.00    -0.217 NA
BRANCH   8   9
ATOM      9  C   UNL d   1      60.537  -0.717  30.246  0.00  0.00     0.084 A 
ATOM     10  C   UNL d   1      60.646  -1.390  30.729  0.00  0.00     0.019 A 
ATOM     11  C   UNL d   1      60.855  -2.102  30.380  0.00  0.00     0.002 A 
ATOM     12  C   UNL d   1      60.959  -2.173  29.585  0.00  0.00     0.000 A 
ATOM     13  C   UNL d   1      60.856  -1.516  29.084  0.00  0.00     0.002 A 
ATOM     14  C   UNL d   1      60.645  -0.788  29.414  0.00  0.00     0.019 A 
ENDBRANCH   8   9
ENDBRANCH   6   8
ENDBRANCH   1   6
BRANCH   4  15
ATOM     15  C   UNL d   1      58.037   0.186  29.778  0.00  0.00     0.118 A 
ATOM     16  O   UNL d   1      57.577  -0.380  29.334  0.00  0.00    -0.304 OA
ATOM     17  C   UNL d   1      57.658  -0.214  28.534  0.00  0.00     0.123 A 
ATOM     18  C   UNL d   1      58.155   0.440  28.455  0.00  0.00     0.029 A 
ATOM     19  C   UNL d   1      58.383   0.681  29.186  0.00  0.00     0.028 A 
ENDBRANCH   4  15
BRANCH   3  20
ATOM     20  C   UNL d   1      57.380   0.393  32.846  0.00  0.00     0.042 A 
ATOM     21  C   UNL d   1      57.194   0.506  33.615  0.00  0.00     0.096 A 
ATOM     22  C   UNL d   1      56.444   0.444  33.808  0.00  0.00     0.024 A 
ATOM     23  C   UNL d   1      55.861   0.270  33.250  0.00  0.00     0.002 A 
ATOM     24  C   UNL d   1      56.029   0.158  32.500  0.00  0.00     0.000 A 
ATOM     25  C   UNL d   1      56.797   0.219  32.288  0.00  0.00     0.004 A 
BRANCH  21  26
ATOM     26  O   UNL d   1      57.777   0.680  34.173  0.00  0.00    -0.328 OA
ATOM     27  C   UNL d   1      57.609   0.619  34.902  0.00  0.00     0.181 C 
ENDBRANCH  21  26
ENDBRANCH   3  20
TORSDOF 6
ENDMDL
