MODEL 1
REMARK VINA RESULT:      89.6      0.000      0.000
REMARK  7 active torsions:
REMARK  status: ('A' for Active; 'I' for Inactive)
REMARK    1  A    between atoms: P_4  and  C_1 
REMARK    2  A    between atoms: N_7  and  C_3 
REMARK    3  A    between atoms: C_9  and  P_4 
REMARK    4  A    between atoms: C_10  and  P_4 
REMARK    5  A    between atoms: C_11  and  C_5 
REMARK    6  A    between atoms: C_12  and  N_7 
REMARK    7  A    between atoms: C_13  and  C_12 
ROOT
ATOM      1  C   UNL d   1     -51.348  25.609  33.838  0.00  0.00     0.161 A 
ATOM      2  N   UNL d   1     -51.922  25.150  33.451  0.00  0.00    -0.215 NA
ATOM      3  C   UNL d   1     -51.584  25.708  34.668  0.00  0.00     0.205 A 
ATOM      4  C   UNL d   1     -52.504  24.951  33.977  0.00  0.00     0.184 A 
ATOM      5  O   UNL d   1     -52.332  25.280  34.752  0.00  0.00    -0.270 OA
ENDROOT
BRANCH   1   6
ATOM      6  P   UNL d   1     -50.721  25.948  33.698  0.00  0.00     0.195 P 
ATOM      7  O   UNL d   1     -51.437  26.284  33.803  0.00  0.00    -0.305 OA
BRANCH   6   8
ATOM      8  C   UNL d   1     -50.565  26.762  33.608  0.00  0.00     0.038 A 
ATOM      9  C   UNL d   1     -49.806  27.043  33.715  0.00  0.00     0.004 A 
ATOM     10  C   UNL d   1     -49.651  27.848  33.626  0.00  0.00     0.000 A 
ATOM     11  C   UNL d   1     -50.259  28.358  33.432  0.00  0.00     0.000 A 
ATOM     12  C   UNL d   1     -51.019  28.077  33.325  0.00  0.00     0.000 A 
ATOM     13  C   UNL d   1     -51.173  27.272  33.413  0.00  0.00     0.004 A 
ENDBRANCH   6   8
BRANCH   6  14
ATOM     14  C   UNL d   1     -49.808  25.756  33.545  0.00  0.00     0.038 A 
ATOM     15  C   UNL d   1     -49.039  26.008  33.436  0.00  0.00     0.004 A 
ATOM     16  C   UNL d   1     -48.452  25.471  33.319  0.00  0.00     0.000 A 
ATOM     17  C   UNL d   1     -48.625  24.655  33.308  0.00  0.00     0.000 A 
ATOM     18  C   UNL d   1     -49.381  24.400  33.415  0.00  0.00     0.000 A 
ATOM     19  C   UNL d   1     -49.981  24.940  33.535  0.00  0.00     0.004 A 
ENDBRANCH   6  14
ENDBRANCH   1   6
BRANCH   3  20
ATOM     20  N   UNL d   1     -51.069  26.132  35.058  0.00  0.00    -0.219 NA
BRANCH  20  21
ATOM     21  C   UNL d   1     -50.934  26.645  35.697  0.00  0.00     0.101 C 
BRANCH  21  22
ATOM     22  C   UNL d   1     -51.219  26.478  36.436  0.00  0.00     0.019 A 
ATOM     23  C   UNL d   1     -51.982  26.169  36.534  0.00  0.00     0.002 A 
ATOM     24  C   UNL d   1     -52.268  26.000  37.311  0.00  0.00     0.000 A 
ATOM     25  C   UNL d   1     -51.797  26.137  37.973  0.00  0.00     0.000 A 
ATOM     26  C   UNL d   1     -51.015  26.454  37.871  0.00  0.00     0.000 A 
ATOM     27  C   UNL d   1     -50.733  26.622  37.098  0.00  0.00     0.002 A 
ENDBRANCH  21  22
ENDBRANCH  20  21
ENDBRANCH   3  20
BRANCH   4  28
ATOM     28  C   UNL d   1     -53.157  24.492  33.756  0.00  0.00     0.041 A 
ATOM     29  C   UNL d   1     -53.883  24.857  33.526  0.00  0.00     0.004 A 
ATOM     30  C   UNL d   1     -54.530  24.369  33.306  0.00  0.00     0.000 A 
ATOM     31  C   UNL d   1     -54.471  23.552  33.310  0.00  0.00     0.000 A 
ATOM     32  C   UNL d   1     -53.741  23.190  33.541  0.00  0.00     0.000 A 
ATOM     33  C   UNL d   1     -53.084  23.676  33.765  0.00  0.00     0.004 A 
ENDBRANCH   4  28
TORSDOF 7
ENDMDL
