MODEL 1
REMARK VINA RESULT:      39.3      0.000      0.000
REMARK  6 active torsions:
REMARK  status: ('A' for Active; 'I' for Inactive)
REMARK    1  A    between atoms: C_12  and  N_1 
REMARK    2  A    between atoms: N_8  and  C_2 
REMARK    3  A    between atoms: C_6  and  C_5 
REMARK    4  A    between atoms: C_7  and  C_6 
REMARK       I    between atoms: N_9  and  C_7 
REMARK    5  A    between atoms: C_19  and  N_8 
REMARK    6  A    between atoms: C_13  and  N_9 
ROOT
ATOM      1  N   UNL d   1      13.243  12.468  -4.176  0.00  0.00    -0.252 N 
ATOM      2  C   UNL d   1      13.439  12.464  -3.369  0.00  0.00     0.182 A 
ATOM      3  C   UNL d   1      13.184  13.260  -4.419  0.00  0.00     0.272 A 
ATOM      4  S   UNL d   1      13.502  13.249  -3.113  0.00  0.00    -0.045 SA
ATOM      5  C   UNL d   1      13.344  13.739  -3.764  0.00  0.00     0.093 A 
ATOM      6  O   UNL d   1      12.997  13.524  -5.189  0.00  0.00    -0.266 OA
ENDROOT
BRANCH   5   7
ATOM      7  C   UNL d   1      13.406  14.515  -3.509  0.00  0.00     0.074 C 
BRANCH   7   8
ATOM      8  C   UNL d   1      13.975  14.950  -3.103  0.00  0.00     0.280 C 
ATOM      9  N   UNL d   1      13.815  15.229  -2.345  0.00  0.00    -0.208 NA
ATOM     10  O   UNL d   1      14.704  15.107  -3.455  0.00  0.00    -0.265 OA
BRANCH   9  11
ATOM     11  C   UNL d   1      14.395  15.667  -1.945  0.00  0.00     0.085 A 
ATOM     12  C   UNL d   1      14.679  15.389  -1.224  0.00  0.00     0.019 A 
ATOM     13  C   UNL d   1      15.253  15.810  -0.816  0.00  0.00     0.002 A 
ATOM     14  C   UNL d   1      15.542  16.510  -1.130  0.00  0.00     0.000 A 
ATOM     15  C   UNL d   1      15.255  16.787  -1.855  0.00  0.00     0.002 A 
ATOM     16  C   UNL d   1      16.119  16.941  -0.728  0.00  0.00     0.000 C 
ATOM     17  C   UNL d   1      14.682  16.360  -2.256  0.00  0.00     0.019 A 
ENDBRANCH   9  11
ENDBRANCH   7   8
ENDBRANCH   5   7
BRANCH   1  18
ATOM     18  C   UNL d   1      13.133  11.779  -4.629  0.00  0.00     0.085 C 
ATOM     19  C   UNL d   1      12.872  11.822  -5.411  0.00  0.00     0.021 C 
ENDBRANCH   1  18
BRANCH   2  20
ATOM     20  N   UNL d   1      13.569  11.840  -2.836  0.00  0.00    -0.221 NA
BRANCH  20  21
ATOM     21  C   UNL d   1      13.677  11.787  -2.019  0.00  0.00     0.101 C 
ATOM     22  C   UNL d   1      14.438  11.829  -1.702  0.00  0.00     0.022 C 
ENDBRANCH  20  21
ENDBRANCH   2  20
TORSDOF 6
ENDMDL
MODEL 2
REMARK VINA RESULT:      40.0      1.399      4.226
REMARK  6 active torsions:
REMARK  status: ('A' for Active; 'I' for Inactive)
REMARK    1  A    between atoms: C_12  and  N_1 
REMARK    2  A    between atoms: N_8  and  C_2 
REMARK    3  A    between atoms: C_6  and  C_5 
REMARK    4  A    between atoms: C_7  and  C_6 
REMARK       I    between atoms: N_9  and  C_7 
REMARK    5  A    between atoms: C_19  and  N_8 
REMARK    6  A    between atoms: C_13  and  N_9 
ROOT
ATOM      1  N   UNL d   1      15.147  14.474  -0.777  0.00  0.00    -0.252 N 
ATOM      2  C   UNL d   1      14.798  13.744  -0.964  0.00  0.00     0.182 A 
ATOM      3  C   UNL d   1      14.877  15.032  -1.330  0.00  0.00     0.272 A 
ATOM      4  S   UNL d   1      14.314  13.849  -1.628  0.00  0.00    -0.045 SA
ATOM      5  C   UNL d   1      14.366  14.646  -1.852  0.00  0.00     0.093 A 
ATOM      6  O   UNL d   1      15.088  15.840  -1.352  0.00  0.00    -0.266 OA
ENDROOT
BRANCH   5   7
ATOM      7  C   UNL d   1      13.887  14.749  -2.509  0.00  0.00     0.074 C 
BRANCH   7   8
ATOM      8  C   UNL d   1      13.748  14.322  -3.199  0.00  0.00     0.280 C 
ATOM      9  N   UNL d   1      13.686  13.503  -3.170  0.00  0.00    -0.208 NA
ATOM     10  O   UNL d   1      13.670  14.717  -3.919  0.00  0.00    -0.265 OA
BRANCH   9  11
ATOM     11  C   UNL d   1      13.546  13.083  -3.872  0.00  0.00     0.085 A 
ATOM     12  C   UNL d   1      13.210  12.332  -3.829  0.00  0.00     0.019 A 
ATOM     13  C   UNL d   1      13.065  11.904  -4.513  0.00  0.00     0.002 A 
ATOM     14  C   UNL d   1      13.256  12.228  -5.242  0.00  0.00     0.000 A 
ATOM     15  C   UNL d   1      13.593  12.983  -5.283  0.00  0.00     0.002 A 
ATOM     16  C   UNL d   1      13.114  11.806  -5.936  0.00  0.00     0.000 C 
ATOM     17  C   UNL d   1      13.735  13.403  -4.594  0.00  0.00     0.019 A 
ENDBRANCH   9  11
ENDBRANCH   7   8
ENDBRANCH   5   7
BRANCH   1  18
ATOM     18  C   UNL d   1      15.670  14.588  -0.141  0.00  0.00     0.085 C 
ATOM     19  C   UNL d   1      16.444  14.845  -0.268  0.00  0.00     0.021 C 
ENDBRANCH   1  18
BRANCH   2  20
ATOM     20  N   UNL d   1      14.861  12.995  -0.608  0.00  0.00    -0.221 NA
BRANCH  20  21
ATOM     21  C   UNL d   1      14.440  12.593  -0.023  0.00  0.00     0.101 C 
ATOM     22  C   UNL d   1      14.308  11.781  -0.095  0.00  0.00     0.022 C 
ENDBRANCH  20  21
ENDBRANCH   2  20
TORSDOF 6
ENDMDL
MODEL 3
REMARK VINA RESULT:      42.2      1.530      1.976
REMARK  6 active torsions:
REMARK  status: ('A' for Active; 'I' for Inactive)
REMARK    1  A    between atoms: C_12  and  N_1 
REMARK    2  A    between atoms: N_8  and  C_2 
REMARK    3  A    between atoms: C_6  and  C_5 
REMARK    4  A    between atoms: C_7  and  C_6 
REMARK       I    between atoms: N_9  and  C_7 
REMARK    5  A    between atoms: C_19  and  N_8 
REMARK    6  A    between atoms: C_13  and  N_9 
ROOT
ATOM      1  N   UNL d   1      13.381  12.466  -3.521  0.00  0.00    -0.252 N 
ATOM      2  C   UNL d   1      13.809  12.465  -2.809  0.00  0.00     0.182 A 
ATOM      3  C   UNL d   1      13.350  13.249  -3.796  0.00  0.00     0.272 A 
ATOM      4  S   UNL d   1      14.042  13.242  -2.644  0.00  0.00    -0.045 SA
ATOM      5  C   UNL d   1      13.757  13.725  -3.256  0.00  0.00     0.093 A 
ATOM      6  O   UNL d   1      12.973  13.508  -4.495  0.00  0.00    -0.266 OA
ENDROOT
BRANCH   5   7
ATOM      7  C   UNL d   1      13.988  14.493  -3.091  0.00  0.00     0.074 C 
BRANCH   7   8
ATOM      8  C   UNL d   1      14.184  15.152  -3.545  0.00  0.00     0.280 C 
ATOM      9  N   UNL d   1      14.773  15.666  -3.289  0.00  0.00    -0.208 NA
ATOM     10  O   UNL d   1      13.790  15.296  -4.255  0.00  0.00    -0.265 OA
BRANCH   9  11
ATOM     11  C   UNL d   1      14.963  16.327  -3.754  0.00  0.00     0.085 A 
ATOM     12  C   UNL d   1      14.721  17.073  -3.505  0.00  0.00     0.019 A 
ATOM     13  C   UNL d   1      14.900  17.736  -3.953  0.00  0.00     0.002 A 
ATOM     14  C   UNL d   1      15.323  17.652  -4.651  0.00  0.00     0.000 A 
ATOM     15  C   UNL d   1      15.565  16.900  -4.899  0.00  0.00     0.002 A 
ATOM     16  C   UNL d   1      15.508  18.312  -5.109  0.00  0.00     0.000 C 
ATOM     17  C   UNL d   1      15.381  16.243  -4.445  0.00  0.00     0.019 A 
ENDBRANCH   9  11
ENDBRANCH   7   8
ENDBRANCH   5   7
BRANCH   1  18
ATOM     18  C   UNL d   1      13.055  11.784  -3.867  0.00  0.00     0.085 C 
ATOM     19  C   UNL d   1      12.775  11.793  -4.643  0.00  0.00     0.021 C 
ENDBRANCH   1  18
BRANCH   2  20
ATOM     20  N   UNL d   1      14.015  11.848  -2.291  0.00  0.00    -0.221 NA
BRANCH  20  21
ATOM     21  C   UNL d   1      14.522  11.780  -1.643  0.00  0.00     0.101 C 
ATOM     22  C   UNL d   1      14.221  11.841  -0.877  0.00  0.00     0.022 C 
ENDBRANCH  20  21
ENDBRANCH   2  20
TORSDOF 6
ENDMDL
