MODEL 1
REMARK VINA RESULT:      -9.8      0.000      0.000
REMARK  5 active torsions:
REMARK  status: ('A' for Active; 'I' for Inactive)
REMARK    1  A    between atoms: C_6  and  N_1 
REMARK    2  A    between atoms: C_7  and  C_2 
REMARK    3  A    between atoms: C_14  and  C_5 
REMARK    4  A    between atoms: C_11  and  C_7 
REMARK    5  A    between atoms: O_26  and  C_23 
ROOT
ATOM      1  N   UNL d   1      53.454  33.788  53.964  0.00  0.00    -0.250 N 
ATOM      2  C   UNL d   1      53.375  32.616  53.348  0.00  0.00     0.099 A 
ATOM      3  C   UNL d   1      54.169  33.367  54.082  0.00  0.00     0.305 A 
ATOM      4  C   UNL d   1      54.130  32.676  53.723  0.00  0.00     0.256 A 
ATOM      5  C   UNL d   1      52.966  33.323  53.511  0.00  0.00     0.075 A 
ATOM      6  O   UNL d   1      54.830  33.632  54.514  0.00  0.00    -0.263 OA
ATOM      7  O   UNL d   1      54.746  32.103  53.720  0.00  0.00    -0.281 OA
ENDROOT
BRANCH   5   8
ATOM      8  C   UNL d   1      52.214  33.514  53.263  0.00  0.00     0.017 A 
ATOM      9  C   UNL d   1      52.115  33.894  52.540  0.00  0.00     0.004 A 
ATOM     10  C   UNL d   1      51.335  34.091  52.286  0.00  0.00     0.024 A 
ATOM     11  C   UNL d   1      50.682  33.905  52.755  0.00  0.00     0.094 A 
ATOM     12  C   UNL d   1      50.799  33.522  53.480  0.00  0.00     0.024 A 
ATOM     13  C   UNL d   1      51.565  33.326  53.735  0.00  0.00     0.004 A 
BRANCH  11  14
ATOM     14  O   UNL d   1      49.927  34.095  52.509  0.00  0.00    -0.328 OA
ATOM     15  C   UNL d   1      49.594  34.812  52.735  0.00  0.00     0.181 C 
ENDBRANCH  11  14
ENDBRANCH   5   8
BRANCH   2  16
ATOM     16  C   UNL d   1      53.092  31.979  52.905  0.00  0.00     0.206 C 
ATOM     17  O   UNL d   1      52.857  32.110  52.104  0.00  0.00    -0.286 OA
BRANCH  16  18
ATOM     18  C   UNL d   1      53.046  31.241  53.245  0.00  0.00     0.069 A 
ATOM     19  S   UNL d   1      52.840  30.514  52.862  0.00  0.00    -0.083 SA
ATOM     20  C   UNL d   1      52.865  29.931  53.405  0.00  0.00     0.035 A 
ATOM     21  C   UNL d   1      53.079  30.245  54.133  0.00  0.00     0.008 A 
ATOM     22  C   UNL d   1      53.194  31.077  54.032  0.00  0.00     0.010 A 
ENDBRANCH  16  18
ENDBRANCH   2  16
BRANCH   1  23
ATOM     23  C   UNL d   1      53.309  34.546  54.272  0.00  0.00     0.204 A 
ATOM     24  S   UNL d   1      53.127  34.676  55.078  0.00  0.00    -0.025 SA
ATOM     25  C   UNL d   1      53.019  35.489  55.178  0.00  0.00     0.161 A 
ATOM     26  N   UNL d   1      53.133  35.846  54.449  0.00  0.00    -0.137 NA
ATOM     27  N   UNL d   1      53.313  35.263  53.884  0.00  0.00    -0.122 NA
ENDBRANCH   1  23
TORSDOF 5
ENDMDL
MODEL 2
REMARK VINA RESULT:      -9.0      1.433      3.224
REMARK  5 active torsions:
REMARK  status: ('A' for Active; 'I' for Inactive)
REMARK    1  A    between atoms: C_6  and  N_1 
REMARK    2  A    between atoms: C_7  and  C_2 
REMARK    3  A    between atoms: C_14  and  C_5 
REMARK    4  A    between atoms: C_11  and  C_7 
REMARK    5  A    between atoms: O_26  and  C_23 
ROOT
ATOM      1  N   UNL d   1      53.573  33.978  54.286  0.00  0.00    -0.250 N 
ATOM      2  C   UNL d   1      52.652  33.959  53.332  0.00  0.00     0.099 A 
ATOM      3  C   UNL d   1      53.271  34.752  54.181  0.00  0.00     0.305 A 
ATOM      4  C   UNL d   1      52.728  34.749  53.621  0.00  0.00     0.256 A 
ATOM      5  C   UNL d   1      53.190  33.491  53.761  0.00  0.00     0.075 A 
ATOM      6  O   UNL d   1      53.503  35.432  54.602  0.00  0.00    -0.263 OA
ATOM      7  O   UNL d   1      52.303  35.427  53.364  0.00  0.00    -0.281 OA
ENDROOT
BRANCH   5   8
ATOM      8  C   UNL d   1      53.311  32.689  53.673  0.00  0.00     0.017 A 
ATOM      9  C   UNL d   1      53.851  32.426  53.110  0.00  0.00     0.004 A 
ATOM     10  C   UNL d   1      53.973  31.595  53.022  0.00  0.00     0.024 A 
ATOM     11  C   UNL d   1      53.559  31.057  53.490  0.00  0.00     0.094 A 
ATOM     12  C   UNL d   1      53.020  31.340  54.052  0.00  0.00     0.024 A 
ATOM     13  C   UNL d   1      52.895  32.157  54.143  0.00  0.00     0.004 A 
BRANCH  11  14
ATOM     14  O   UNL d   1      53.679  30.255  53.404  0.00  0.00    -0.328 OA
ATOM     15  C   UNL d   1      53.035  29.744  53.416  0.00  0.00     0.181 C 
ENDBRANCH  11  14
ENDBRANCH   5   8
BRANCH   2  16
ATOM     16  C   UNL d   1      52.142  33.697  52.737  0.00  0.00     0.206 C 
ATOM     17  O   UNL d   1      52.466  33.299  52.066  0.00  0.00    -0.286 OA
BRANCH  16  18
ATOM     18  C   UNL d   1      51.342  33.826  52.808  0.00  0.00     0.069 A 
ATOM     19  S   UNL d   1      50.854  34.300  52.303  0.00  0.00    -0.083 SA
ATOM     20  C   UNL d   1      50.107  34.270  52.578  0.00  0.00     0.035 A 
ATOM     21  C   UNL d   1      50.081  33.793  53.246  0.00  0.00     0.008 A 
ATOM     22  C   UNL d   1      50.866  33.511  53.393  0.00  0.00     0.010 A 
ENDBRANCH  16  18
ENDBRANCH   2  16
BRANCH   1  23
ATOM     23  C   UNL d   1      54.161  33.784  54.840  0.00  0.00     0.204 A 
ATOM     24  S   UNL d   1      54.972  33.940  54.709  0.00  0.00    -0.025 SA
ATOM     25  C   UNL d   1      55.385  33.674  55.372  0.00  0.00     0.161 A 
ATOM     26  N   UNL d   1      54.838  33.362  55.896  0.00  0.00    -0.137 NA
ATOM     27  N   UNL d   1      54.076  33.428  55.569  0.00  0.00    -0.122 NA
ENDBRANCH   1  23
TORSDOF 5
ENDMDL
MODEL 3
REMARK VINA RESULT:      -8.8      1.591      3.298
REMARK  5 active torsions:
REMARK  status: ('A' for Active; 'I' for Inactive)
REMARK    1  A    between atoms: C_6  and  N_1 
REMARK    2  A    between atoms: C_7  and  C_2 
REMARK    3  A    between atoms: C_14  and  C_5 
REMARK    4  A    between atoms: C_11  and  C_7 
REMARK    5  A    between atoms: O_26  and  C_23 
ROOT
ATOM      1  N   UNL d   1      52.270  34.112  53.507  0.00  0.00    -0.250 N 
ATOM      2  C   UNL d   1      53.191  33.767  54.396  0.00  0.00     0.099 A 
ATOM      3  C   UNL d   1      52.473  34.783  53.965  0.00  0.00     0.305 A 
ATOM      4  C   UNL d   1      53.015  34.588  54.491  0.00  0.00     0.256 A 
ATOM      5  C   UNL d   1      52.713  33.487  53.774  0.00  0.00     0.075 A 
ATOM      6  O   UNL d   1      52.156  35.549  53.885  0.00  0.00    -0.263 OA
ATOM      7  O   UNL d   1      53.354  35.119  55.049  0.00  0.00    -0.281 OA
ENDROOT
BRANCH   5   8
ATOM      8  C   UNL d   1      52.694  32.725  53.485  0.00  0.00     0.017 A 
ATOM      9  C   UNL d   1      52.162  32.187  53.811  0.00  0.00     0.004 A 
ATOM     10  C   UNL d   1      52.145  31.399  53.509  0.00  0.00     0.024 A 
ATOM     11  C   UNL d   1      52.652  31.172  52.899  0.00  0.00     0.094 A 
ATOM     12  C   UNL d   1      53.180  31.726  52.583  0.00  0.00     0.024 A 
ATOM     13  C   UNL d   1      53.202  32.504  52.876  0.00  0.00     0.004 A 
BRANCH  11  14
ATOM     14  O   UNL d   1      52.634  30.410  52.608  0.00  0.00    -0.328 OA
ATOM     15  C   UNL d   1      52.979  29.801  53.039  0.00  0.00     0.181 C 
ENDBRANCH  11  14
ENDBRANCH   5   8
BRANCH   2  16
ATOM     16  C   UNL d   1      53.733  33.323  54.835  0.00  0.00     0.206 C 
ATOM     17  O   UNL d   1      53.455  32.657  55.274  0.00  0.00    -0.286 OA
BRANCH  16  18
ATOM     18  C   UNL d   1      54.518  33.534  54.835  0.00  0.00     0.069 A 
ATOM     19  S   UNL d   1      54.975  33.801  55.496  0.00  0.00    -0.083 SA
ATOM     20  C   UNL d   1      55.717  33.946  55.244  0.00  0.00     0.035 A 
ATOM     21  C   UNL d   1      55.769  33.784  54.441  0.00  0.00     0.008 A 
ATOM     22  C   UNL d   1      55.008  33.523  54.180  0.00  0.00     0.010 A 
ENDBRANCH  16  18
ENDBRANCH   2  16
BRANCH   1  23
ATOM     23  C   UNL d   1      51.708  34.126  52.895  0.00  0.00     0.204 A 
ATOM     24  S   UNL d   1      50.885  34.096  53.039  0.00  0.00    -0.025 SA
ATOM     25  C   UNL d   1      50.505  34.120  52.307  0.00  0.00     0.161 A 
ATOM     26  N   UNL d   1      51.083  34.163  51.729  0.00  0.00    -0.137 NA
ATOM     27  N   UNL d   1      51.832  34.166  52.090  0.00  0.00    -0.122 NA
ENDBRANCH   1  23
TORSDOF 5
ENDMDL
MODEL 4
REMARK VINA RESULT:      -8.3      1.413      2.976
REMARK  5 active torsions:
REMARK  status: ('A' for Active; 'I' for Inactive)
REMARK    1  A    between atoms: C_6  and  N_1 
REMARK    2  A    between atoms: C_7  and  C_2 
REMARK    3  A    between atoms: C_14  and  C_5 
REMARK    4  A    between atoms: C_11  and  C_7 
REMARK    5  A    between atoms: O_26  and  C_23 
ROOT
ATOM      1  N   UNL d   1      52.591  32.771  53.239  0.00  0.00    -0.250 N 
ATOM      2  C   UNL d   1      53.217  31.604  53.309  0.00  0.00     0.099 A 
ATOM      3  C   UNL d   1      52.170  32.208  52.785  0.00  0.00     0.305 A 
ATOM      4  C   UNL d   1      52.532  31.518  52.821  0.00  0.00     0.256 A 
ATOM      5  C   UNL d   1      53.236  32.397  53.561  0.00  0.00     0.075 A 
ATOM      6  O   UNL d   1      51.471  32.345  52.354  0.00  0.00    -0.263 OA
ATOM      7  O   UNL d   1      52.270  30.819  52.433  0.00  0.00    -0.281 OA
ENDROOT
BRANCH   5   8
ATOM      8  C   UNL d   1      53.798  32.737  54.044  0.00  0.00     0.017 A 
ATOM      9  C   UNL d   1      54.495  33.020  53.709  0.00  0.00     0.004 A 
ATOM     10  C   UNL d   1      55.074  33.372  54.212  0.00  0.00     0.024 A 
ATOM     11  C   UNL d   1      54.945  33.430  55.025  0.00  0.00     0.094 A 
ATOM     12  C   UNL d   1      54.238  33.140  55.345  0.00  0.00     0.024 A 
ATOM     13  C   UNL d   1      53.664  32.793  54.855  0.00  0.00     0.004 A 
BRANCH  11  14
ATOM     14  O   UNL d   1      55.506  33.770  55.510  0.00  0.00    -0.328 OA
ATOM     15  C   UNL d   1      55.857  34.480  55.290  0.00  0.00     0.181 C 
ENDBRANCH  11  14
ENDBRANCH   5   8
BRANCH   2  16
ATOM     16  C   UNL d   1      53.764  31.016  53.501  0.00  0.00     0.206 C 
ATOM     17  O   UNL d   1      54.575  31.130  53.294  0.00  0.00    -0.286 OA
BRANCH  16  18
ATOM     18  C   UNL d   1      53.515  30.343  53.883  0.00  0.00     0.069 A 
ATOM     19  S   UNL d   1      53.419  29.571  53.550  0.00  0.00    -0.083 SA
ATOM     20  C   UNL d   1      53.164  29.081  54.124  0.00  0.00     0.035 A 
ATOM     21  C   UNL d   1      53.087  29.499  54.826  0.00  0.00     0.008 A 
ATOM     22  C   UNL d   1      53.310  30.302  54.674  0.00  0.00     0.010 A 
ENDBRANCH  16  18
ENDBRANCH   2  16
BRANCH   1  23
ATOM     23  C   UNL d   1      52.357  33.564  53.321  0.00  0.00     0.204 A 
ATOM     24  S   UNL d   1      52.494  34.137  52.728  0.00  0.00    -0.025 SA
ATOM     25  C   UNL d   1      52.189  34.854  53.002  0.00  0.00     0.161 A 
ATOM     26  N   UNL d   1      51.872  34.721  53.746  0.00  0.00    -0.137 NA
ATOM     27  N   UNL d   1      51.975  33.920  53.948  0.00  0.00    -0.122 NA
ENDBRANCH   1  23
TORSDOF 5
ENDMDL
MODEL 5
REMARK VINA RESULT:      -7.1      1.178      3.038
REMARK  5 active torsions:
REMARK  status: ('A' for Active; 'I' for Inactive)
REMARK    1  A    between atoms: C_6  and  N_1 
REMARK    2  A    between atoms: C_7  and  C_2 
REMARK    3  A    between atoms: C_14  and  C_5 
REMARK    4  A    between atoms: C_11  and  C_7 
REMARK    5  A    between atoms: O_26  and  C_23 
ROOT
ATOM      1  N   UNL d   1      53.277  32.419  53.264  0.00  0.00    -0.250 N 
ATOM      2  C   UNL d   1      53.509  33.693  53.551  0.00  0.00     0.099 A 
ATOM      3  C   UNL d   1      54.061  32.498  53.547  0.00  0.00     0.305 A 
ATOM      4  C   UNL d   1      54.206  33.245  53.719  0.00  0.00     0.256 A 
ATOM      5  C   UNL d   1      52.939  33.158  53.267  0.00  0.00     0.075 A 
ATOM      6  O   UNL d   1      54.615  31.883  53.639  0.00  0.00    -0.263 OA
ATOM      7  O   UNL d   1      54.936  33.534  54.018  0.00  0.00    -0.281 OA
ENDROOT
BRANCH   5   8
ATOM      8  C   UNL d   1      52.179  33.340  53.034  0.00  0.00     0.017 A 
ATOM      9  C   UNL d   1      52.055  33.656  52.284  0.00  0.00     0.004 A 
ATOM     10  C   UNL d   1      51.267  33.843  52.047  0.00  0.00     0.024 A 
ATOM     11  C   UNL d   1      50.632  33.711  52.558  0.00  0.00     0.094 A 
ATOM     12  C   UNL d   1      50.775  33.392  53.308  0.00  0.00     0.024 A 
ATOM     13  C   UNL d   1      51.549  33.206  53.547  0.00  0.00     0.004 A 
BRANCH  11  14
ATOM     14  O   UNL d   1      49.871  33.893  52.327  0.00  0.00    -0.328 OA
ATOM     15  C   UNL d   1      49.569  34.643  52.473  0.00  0.00     0.181 C 
ENDBRANCH  11  14
ENDBRANCH   5   8
BRANCH   2  16
ATOM     16  C   UNL d   1      53.410  34.507  53.649  0.00  0.00     0.206 C 
ATOM     17  O   UNL d   1      53.370  35.000  52.964  0.00  0.00    -0.286 OA
BRANCH  16  18
ATOM     18  C   UNL d   1      53.353  34.818  54.399  0.00  0.00     0.069 A 
ATOM     19  S   UNL d   1      53.050  35.578  54.615  0.00  0.00    -0.083 SA
ATOM     20  C   UNL d   1      53.100  35.650  55.407  0.00  0.00     0.035 A 
ATOM     21  C   UNL d   1      53.424  34.966  55.724  0.00  0.00     0.008 A 
ATOM     22  C   UNL d   1      53.586  34.437  55.084  0.00  0.00     0.010 A 
ENDBRANCH  16  18
ENDBRANCH   2  16
BRANCH   1  23
ATOM     23  C   UNL d   1      52.942  31.696  53.030  0.00  0.00     0.204 A 
ATOM     24  S   UNL d   1      52.703  31.113  53.579  0.00  0.00    -0.025 SA
ATOM     25  C   UNL d   1      52.398  30.478  53.148  0.00  0.00     0.161 A 
ATOM     26  N   UNL d   1      52.451  30.670  52.353  0.00  0.00    -0.137 NA
ATOM     27  N   UNL d   1      52.788  31.426  52.276  0.00  0.00    -0.122 NA
ENDBRANCH   1  23
TORSDOF 5
ENDMDL
MODEL 6
REMARK VINA RESULT:      -7.1      1.831      4.098
REMARK  5 active torsions:
REMARK  status: ('A' for Active; 'I' for Inactive)
REMARK    1  A    between atoms: C_6  and  N_1 
REMARK    2  A    between atoms: C_7  and  C_2 
REMARK    3  A    between atoms: C_14  and  C_5 
REMARK    4  A    between atoms: C_11  and  C_7 
REMARK    5  A    between atoms: O_26  and  C_23 
ROOT
ATOM      1  N   UNL d   1      52.686  31.391  53.488  0.00  0.00    -0.250 N 
ATOM      2  C   UNL d   1      52.076  32.569  53.500  0.00  0.00     0.099 A 
ATOM      3  C   UNL d   1      51.888  31.289  53.254  0.00  0.00     0.305 A 
ATOM      4  C   UNL d   1      51.522  31.978  53.259  0.00  0.00     0.256 A 
ATOM      5  C   UNL d   1      52.799  32.181  53.639  0.00  0.00     0.075 A 
ATOM      6  O   UNL d   1      51.524  30.570  53.045  0.00  0.00    -0.263 OA
ATOM      7  O   UNL d   1      50.714  32.092  53.055  0.00  0.00    -0.281 OA
ENDROOT
BRANCH   5   8
ATOM      8  C   UNL d   1      53.495  32.528  53.883  0.00  0.00     0.017 A 
ATOM      9  C   UNL d   1      53.620  32.654  54.687  0.00  0.00     0.004 A 
ATOM     10  C   UNL d   1      54.342  33.014  54.935  0.00  0.00     0.024 A 
ATOM     11  C   UNL d   1      54.912  33.237  54.381  0.00  0.00     0.094 A 
ATOM     12  C   UNL d   1      54.770  33.103  53.577  0.00  0.00     0.024 A 
ATOM     13  C   UNL d   1      54.061  32.749  53.326  0.00  0.00     0.004 A 
BRANCH  11  14
ATOM     14  O   UNL d   1      55.610  33.585  54.623  0.00  0.00    -0.328 OA
ATOM     15  C   UNL d   1      55.612  34.078  55.280  0.00  0.00     0.181 C 
ENDBRANCH  11  14
ENDBRANCH   5   8
BRANCH   2  16
ATOM     16  C   UNL d   1      51.931  33.378  53.584  0.00  0.00     0.206 C 
ATOM     17  O   UNL d   1      52.112  33.752  54.319  0.00  0.00    -0.286 OA
BRANCH  16  18
ATOM     18  C   UNL d   1      51.619  33.797  52.960  0.00  0.00     0.069 A 
ATOM     19  S   UNL d   1      50.846  34.139  52.911  0.00  0.00    -0.083 SA
ATOM     20  C   UNL d   1      50.777  34.497  52.202  0.00  0.00     0.035 A 
ATOM     21  C   UNL d   1      51.475  34.404  51.780  0.00  0.00     0.008 A 
ATOM     22  C   UNL d   1      52.010  33.959  52.261  0.00  0.00     0.010 A 
ENDBRANCH  16  18
ENDBRANCH   2  16
BRANCH   1  23
ATOM     23  C   UNL d   1      53.233  30.768  53.543  0.00  0.00     0.204 A 
ATOM     24  S   UNL d   1      53.206  30.198  54.154  0.00  0.00    -0.025 SA
ATOM     25  C   UNL d   1      53.830  29.672  54.029  0.00  0.00     0.161 A 
ATOM     26  N   UNL d   1      54.229  29.916  53.356  0.00  0.00    -0.137 NA
ATOM     27  N   UNL d   1      53.860  30.597  53.051  0.00  0.00    -0.122 NA
ENDBRANCH   1  23
TORSDOF 5
ENDMDL
