MODEL 1
REMARK VINA RESULT:      -6.0      0.000      0.000
REMARK  5 active torsions:
REMARK  status: ('A' for Active; 'I' for Inactive)
REMARK    1  A    between atoms: S_5  and  C_2 
REMARK    2  A    between atoms: C_16  and  S_5 
REMARK    3  A    between atoms: N_13  and  C_10 
REMARK    4  A    between atoms: C_23  and  N_13 
REMARK    5  A    between atoms: C_18  and  C_23 
ROOT
ATOM      1  C   UNL d   1     -47.098  14.034  22.788  0.00  0.00     0.198 A 
ATOM      2  C   UNL d   1     -46.294  13.875  22.712  0.00  0.00     0.227 A 
ATOM      3  N   UNL d   1     -47.225  14.817  22.565  0.00  0.00    -0.192 N 
ATOM      4  N   UNL d   1     -47.732  13.566  23.033  0.00  0.00    -0.205 NA
ATOM      5  N   UNL d   1     -45.923  14.554  22.443  0.00  0.00    -0.115 NA
ATOM      6  N   UNL d   1     -46.495  15.141  22.350  0.00  0.00    -0.058 NA
ATOM      7  C   UNL d   1     -47.985  15.131  22.587  0.00  0.00     0.096 A 
ATOM      8  C   UNL d   1     -48.619  14.663  22.831  0.00  0.00     0.083 A 
ATOM      9  C   UNL d   1     -48.499  13.881  23.055  0.00  0.00     0.172 A 
ATOM     10  S   UNL d   1     -49.315  15.123  22.797  0.00  0.00    -0.082 SA
ATOM     11  C   UNL d   1     -48.277  15.889  22.397  0.00  0.00     0.027 A 
ATOM     12  C   UNL d   1     -49.100  15.882  22.528  0.00  0.00     0.037 A 
ENDROOT
BRANCH   2  13
ATOM     13  S   UNL d   1     -45.922  13.150  22.878  0.00  0.00     0.231 S 
ATOM     14  O   UNL d   1     -45.933  13.309  23.694  0.00  0.00    -0.215 OA
ATOM     15  O   UNL d   1     -45.914  12.997  22.064  0.00  0.00    -0.215 OA
BRANCH  13  16
ATOM     16  C   UNL d   1     -45.552  12.421  23.005  0.00  0.00     0.090 A 
ATOM     17  C   UNL d   1     -45.924  11.832  23.441  0.00  0.00     0.011 A 
ATOM     18  C   UNL d   1     -45.555  11.106  23.567  0.00  0.00     0.001 A 
ATOM     19  C   UNL d   1     -44.802  10.967  23.252  0.00  0.00     0.000 A 
ATOM     20  C   UNL d   1     -44.420  11.565  22.808  0.00  0.00     0.001 A 
ATOM     21  C   UNL d   1     -44.802  12.294  22.687  0.00  0.00     0.011 A 
ENDBRANCH  13  16
ENDBRANCH   2  13
BRANCH   9  22
ATOM     22  N   UNL d   1     -49.139  13.409  23.302  0.00  0.00    -0.223 NA
BRANCH  22  23
ATOM     23  C   UNL d   1     -49.299  12.698  22.917  0.00  0.00     0.125 C 
BRANCH  23  24
ATOM     24  C   UNL d   1     -49.881  12.191  23.211  0.00  0.00     0.119 A 
ATOM     25  O   UNL d   1     -49.774  11.408  23.438  0.00  0.00    -0.304 OA
ATOM     26  C   UNL d   1     -50.504  11.112  23.697  0.00  0.00     0.123 A 
ATOM     27  C   UNL d   1     -51.064  11.715  23.631  0.00  0.00     0.029 A 
ATOM     28  C   UNL d   1     -50.678  12.382  23.330  0.00  0.00     0.028 A 
ENDBRANCH  23  24
ENDBRANCH  22  23
ENDBRANCH   9  22
TORSDOF 5
ENDMDL
MODEL 2
REMARK VINA RESULT:      -5.3      1.371      3.691
REMARK  5 active torsions:
REMARK  status: ('A' for Active; 'I' for Inactive)
REMARK    1  A    between atoms: S_5  and  C_2 
REMARK    2  A    between atoms: C_16  and  S_5 
REMARK    3  A    between atoms: N_13  and  C_10 
REMARK    4  A    between atoms: C_23  and  N_13 
REMARK    5  A    between atoms: C_18  and  C_23 
ROOT
ATOM      1  C   UNL d   1     -47.382  14.297  22.610  0.00  0.00     0.198 A 
ATOM      2  C   UNL d   1     -47.741  15.035  22.555  0.00  0.00     0.227 A 
ATOM      3  N   UNL d   1     -46.580  14.390  22.448  0.00  0.00    -0.192 N 
ATOM      4  N   UNL d   1     -47.683  13.549  22.787  0.00  0.00    -0.205 NA
ATOM      5  N   UNL d   1     -47.167  15.586  22.360  0.00  0.00    -0.115 NA
ATOM      6  N   UNL d   1     -46.445  15.192  22.292  0.00  0.00    -0.058 NA
ATOM      7  C   UNL d   1     -46.079  13.738  22.462  0.00  0.00     0.096 A 
ATOM      8  C   UNL d   1     -46.380  12.990  22.639  0.00  0.00     0.083 A 
ATOM      9  C   UNL d   1     -47.179  12.890  22.802  0.00  0.00     0.172 A 
ATOM     10  S   UNL d   1     -45.752  12.441  22.614  0.00  0.00    -0.082 SA
ATOM     11  C   UNL d   1     -45.260  13.665  22.324  0.00  0.00     0.027 A 
ATOM     12  C   UNL d   1     -45.060  12.862  22.419  0.00  0.00     0.037 A 
ENDROOT
BRANCH   2  13
ATOM     13  S   UNL d   1     -48.548  15.195  22.677  0.00  0.00     0.231 S 
ATOM     14  O   UNL d   1     -48.665  15.328  21.864  0.00  0.00    -0.215 OA
ATOM     15  O   UNL d   1     -48.425  15.061  23.485  0.00  0.00    -0.215 OA
BRANCH  13  16
ATOM     16  C   UNL d   1     -49.346  15.348  22.837  0.00  0.00     0.090 A 
ATOM     17  C   UNL d   1     -49.570  15.712  23.538  0.00  0.00     0.011 A 
ATOM     18  C   UNL d   1     -50.364  15.865  23.697  0.00  0.00     0.001 A 
ATOM     19  C   UNL d   1     -50.943  15.649  23.146  0.00  0.00     0.000 A 
ATOM     20  C   UNL d   1     -50.717  15.278  22.430  0.00  0.00     0.001 A 
ATOM     21  C   UNL d   1     -49.913  15.129  22.280  0.00  0.00     0.011 A 
ENDBRANCH  13  16
ENDBRANCH   2  13
BRANCH   9  22
ATOM     22  N   UNL d   1     -47.483  12.135  22.981  0.00  0.00    -0.223 NA
BRANCH  22  23
ATOM     23  C   UNL d   1     -47.879  12.007  23.692  0.00  0.00     0.125 C 
BRANCH  23  24
ATOM     24  C   UNL d   1     -48.613  11.630  23.694  0.00  0.00     0.119 A 
ATOM     25  O   UNL d   1     -48.742  10.817  23.693  0.00  0.00    -0.304 OA
ATOM     26  C   UNL d   1     -49.561  10.686  23.696  0.00  0.00     0.123 A 
ATOM     27  C   UNL d   1     -49.939  11.419  23.698  0.00  0.00     0.029 A 
ATOM     28  C   UNL d   1     -49.352  12.002  23.697  0.00  0.00     0.028 A 
ENDBRANCH  23  24
ENDBRANCH  22  23
ENDBRANCH   9  22
TORSDOF 5
ENDMDL
MODEL 3
REMARK VINA RESULT:      -5.1      6.302      8.429
REMARK  5 active torsions:
REMARK  status: ('A' for Active; 'I' for Inactive)
REMARK    1  A    between atoms: S_5  and  C_2 
REMARK    2  A    between atoms: C_16  and  S_5 
REMARK    3  A    between atoms: N_13  and  C_10 
REMARK    4  A    between atoms: C_23  and  N_13 
REMARK    5  A    between atoms: C_18  and  C_23 
ROOT
ATOM      1  C   UNL d   1     -39.478  14.768  20.150  0.00  0.00     0.198 A 
ATOM      2  C   UNL d   1     -39.264  15.135  19.445  0.00  0.00     0.227 A 
ATOM      3  N   UNL d   1     -38.833  14.805  20.661  0.00  0.00    -0.192 N 
ATOM      4  N   UNL d   1     -40.177  14.405  20.392  0.00  0.00    -0.205 NA
ATOM      5  N   UNL d   1     -38.492  15.399  19.516  0.00  0.00    -0.115 NA
ATOM      6  N   UNL d   1     -38.220  15.197  20.268  0.00  0.00    -0.058 NA
ATOM      7  C   UNL d   1     -38.889  14.479  21.414  0.00  0.00     0.096 A 
ATOM      8  C   UNL d   1     -39.588  14.115  21.657  0.00  0.00     0.083 A 
ATOM      9  C   UNL d   1     -40.234  14.075  21.151  0.00  0.00     0.172 A 
ATOM     10  S   UNL d   1     -39.484  13.838  22.437  0.00  0.00    -0.082 SA
ATOM     11  C   UNL d   1     -38.339  14.434  22.040  0.00  0.00     0.027 A 
ATOM     12  C   UNL d   1     -38.710  14.037  22.672  0.00  0.00     0.037 A 
ENDROOT
BRANCH   2  13
ATOM     13  S   UNL d   1     -39.749  15.223  18.775  0.00  0.00     0.231 S 
ATOM     14  O   UNL d   1     -40.086  15.917  19.084  0.00  0.00    -0.215 OA
ATOM     15  O   UNL d   1     -39.409  14.531  18.471  0.00  0.00    -0.215 OA
BRANCH  13  16
ATOM     16  C   UNL d   1     -40.215  15.278  18.093  0.00  0.00     0.090 A 
ATOM     17  C   UNL d   1     -40.099  14.762  17.463  0.00  0.00     0.011 A 
ATOM     18  C   UNL d   1     -40.563  14.816  16.785  0.00  0.00     0.001 A 
ATOM     19  C   UNL d   1     -41.152  15.395  16.734  0.00  0.00     0.000 A 
ATOM     20  C   UNL d   1     -41.272  15.922  17.374  0.00  0.00     0.001 A 
ATOM     21  C   UNL d   1     -40.799  15.859  18.053  0.00  0.00     0.011 A 
ENDBRANCH  13  16
ENDBRANCH   2  13
BRANCH   9  22
ATOM     22  N   UNL d   1     -40.941  13.708  21.396  0.00  0.00    -0.223 NA
BRANCH  22  23
ATOM     23  C   UNL d   1     -41.556  13.597  20.860  0.00  0.00     0.125 C 
BRANCH  23  24
ATOM     24  C   UNL d   1     -42.263  13.250  21.107  0.00  0.00     0.119 A 
ATOM     25  O   UNL d   1     -42.346  12.505  21.447  0.00  0.00    -0.304 OA
ATOM     26  C   UNL d   1     -43.151  12.383  21.607  0.00  0.00     0.123 A 
ATOM     27  C   UNL d   1     -43.565  13.054  21.365  0.00  0.00     0.029 A 
ATOM     28  C   UNL d   1     -43.016  13.589  21.056  0.00  0.00     0.028 A 
ENDBRANCH  23  24
ENDBRANCH  22  23
ENDBRANCH   9  22
TORSDOF 5
ENDMDL
MODEL 4
REMARK VINA RESULT:      -4.2      6.460      8.378
REMARK  5 active torsions:
REMARK  status: ('A' for Active; 'I' for Inactive)
REMARK    1  A    between atoms: S_5  and  C_2 
REMARK    2  A    between atoms: C_16  and  S_5 
REMARK    3  A    between atoms: N_13  and  C_10 
REMARK    4  A    between atoms: C_23  and  N_13 
REMARK    5  A    between atoms: C_18  and  C_23 
ROOT
ATOM      1  C   UNL d   1     -39.318  15.012  20.018  0.00  0.00     0.198 A 
ATOM      2  C   UNL d   1     -38.671  15.281  20.448  0.00  0.00     0.227 A 
ATOM      3  N   UNL d   1     -39.197  15.204  19.226  0.00  0.00    -0.192 N 
ATOM      4  N   UNL d   1     -40.005  14.615  20.245  0.00  0.00    -0.205 NA
ATOM      5  N   UNL d   1     -38.149  15.639  19.928  0.00  0.00    -0.115 NA
ATOM      6  N   UNL d   1     -38.469  15.595  19.170  0.00  0.00    -0.058 NA
ATOM      7  C   UNL d   1     -39.761  15.001  18.663  0.00  0.00     0.096 A 
ATOM      8  C   UNL d   1     -40.447  14.604  18.891  0.00  0.00     0.083 A 
ATOM      9  C   UNL d   1     -40.575  14.409  19.679  0.00  0.00     0.172 A 
ATOM     10  S   UNL d   1     -40.912  14.471  18.210  0.00  0.00    -0.082 SA
ATOM     11  C   UNL d   1     -39.788  15.120  17.838  0.00  0.00     0.027 A 
ATOM     12  C   UNL d   1     -40.502  14.792  17.560  0.00  0.00     0.037 A 
ENDROOT
BRANCH   2  13
ATOM     13  S   UNL d   1     -38.564  15.203  21.269  0.00  0.00     0.231 S 
ATOM     14  O   UNL d   1     -38.957  15.922  21.409  0.00  0.00    -0.215 OA
ATOM     15  O   UNL d   1     -38.173  14.487  21.124  0.00  0.00    -0.215 OA
BRANCH  13  16
ATOM     16  C   UNL d   1     -38.439  15.091  22.080  0.00  0.00     0.090 A 
ATOM     17  C   UNL d   1     -38.629  15.682  22.619  0.00  0.00     0.011 A 
ATOM     18  C   UNL d   1     -38.504  15.570  23.425  0.00  0.00     0.001 A 
ATOM     19  C   UNL d   1     -38.185  14.857  23.698  0.00  0.00     0.000 A 
ATOM     20  C   UNL d   1     -37.991  14.253  23.151  0.00  0.00     0.001 A 
ATOM     21  C   UNL d   1     -38.121  14.376  22.339  0.00  0.00     0.011 A 
ENDBRANCH  13  16
ENDBRANCH   2  13
BRANCH   9  22
ATOM     22  N   UNL d   1     -41.268  14.008  19.908  0.00  0.00    -0.223 NA
BRANCH  22  23
ATOM     23  C   UNL d   1     -41.524  14.040  20.691  0.00  0.00     0.125 C 
BRANCH  23  24
ATOM     24  C   UNL d   1     -42.130  13.544  20.949  0.00  0.00     0.119 A 
ATOM     25  O   UNL d   1     -42.923  13.594  20.738  0.00  0.00    -0.304 OA
ATOM     26  C   UNL d   1     -43.333  12.986  21.125  0.00  0.00     0.123 A 
ATOM     27  C   UNL d   1     -42.790  12.559  21.577  0.00  0.00     0.029 A 
ATOM     28  C   UNL d   1     -42.047  12.904  21.468  0.00  0.00     0.028 A 
ENDBRANCH  23  24
ENDBRANCH  22  23
ENDBRANCH   9  22
TORSDOF 5
ENDMDL
MODEL 5
REMARK VINA RESULT:      -3.7      1.766      4.919
REMARK  5 active torsions:
REMARK  status: ('A' for Active; 'I' for Inactive)
REMARK    1  A    between atoms: S_5  and  C_2 
REMARK    2  A    between atoms: C_16  and  S_5 
REMARK    3  A    between atoms: N_13  and  C_10 
REMARK    4  A    between atoms: C_23  and  N_13 
REMARK    5  A    between atoms: C_18  and  C_23 
ROOT
ATOM      1  C   UNL d   1     -49.083  12.365  23.102  0.00  0.00     0.198 A 
ATOM      2  C   UNL d   1     -49.877  12.567  23.029  0.00  0.00     0.227 A 
ATOM      3  N   UNL d   1     -49.040  11.575  23.329  0.00  0.00    -0.192 N 
ATOM      4  N   UNL d   1     -48.390  12.800  22.990  0.00  0.00    -0.205 NA
ATOM      5  N   UNL d   1     -50.327  11.907  23.210  0.00  0.00    -0.115 NA
ATOM      6  N   UNL d   1     -49.814  11.289  23.397  0.00  0.00    -0.058 NA
ATOM      7  C   UNL d   1     -48.307  11.220  23.445  0.00  0.00     0.096 A 
ATOM      8  C   UNL d   1     -47.615  11.654  23.334  0.00  0.00     0.083 A 
ATOM      9  C   UNL d   1     -47.651  12.443  23.107  0.00  0.00     0.172 A 
ATOM     10  S   UNL d   1     -46.964  11.156  23.489  0.00  0.00    -0.082 SA
ATOM     11  C   UNL d   1     -48.097  10.445  23.671  0.00  0.00     0.027 A 
ATOM     12  C   UNL d   1     -47.265  10.408  23.698  0.00  0.00     0.037 A 
ENDROOT
BRANCH   2  13
ATOM     13  S   UNL d   1     -50.172  13.313  22.810  0.00  0.00     0.231 S 
ATOM     14  O   UNL d   1     -50.145  13.578  23.597  0.00  0.00    -0.215 OA
ATOM     15  O   UNL d   1     -50.197  13.043  22.026  0.00  0.00    -0.215 OA
BRANCH  13  16
ATOM     16  C   UNL d   1     -50.468  14.043  22.553  0.00  0.00     0.090 A 
ATOM     17  C   UNL d   1     -50.507  14.683  23.067  0.00  0.00     0.011 A 
ATOM     18  C   UNL d   1     -50.800  15.409  22.812  0.00  0.00     0.001 A 
ATOM     19  C   UNL d   1     -51.060  15.497  22.030  0.00  0.00     0.000 A 
ATOM     20  C   UNL d   1     -51.021  14.846  21.505  0.00  0.00     0.001 A 
ATOM     21  C   UNL d   1     -50.723  14.118  21.773  0.00  0.00     0.011 A 
ENDBRANCH  13  16
ENDBRANCH   2  13
BRANCH   9  22
ATOM     22  N   UNL d   1     -46.952  12.883  22.994  0.00  0.00    -0.223 NA
BRANCH  22  23
ATOM     23  C   UNL d   1     -46.898  13.421  22.372  0.00  0.00     0.125 C 
BRANCH  23  24
ATOM     24  C   UNL d   1     -46.460  14.114  22.463  0.00  0.00     0.119 A 
ATOM     25  O   UNL d   1     -45.640  14.176  22.458  0.00  0.00    -0.304 OA
ATOM     26  C   UNL d   1     -45.440  14.974  22.566  0.00  0.00     0.123 A 
ATOM     27  C   UNL d   1     -46.139  15.406  22.639  0.00  0.00     0.029 A 
ATOM     28  C   UNL d   1     -46.769  14.874  22.574  0.00  0.00     0.028 A 
ENDBRANCH  23  24
ENDBRANCH  22  23
ENDBRANCH   9  22
TORSDOF 5
ENDMDL
