MODEL 1
REMARK VINA RESULT:      -8.5      0.000      0.000
REMARK  2 active torsions:
REMARK  status: ('A' for Active; 'I' for Inactive)
REMARK    1  A    between atoms: N_2  and  S_1 
REMARK    2  A    between atoms: C_3  and  S_1 
ROOT
ATOM      1  N   UNL d   1     -48.110  12.247  23.125  0.00  0.00    -0.231 N 
ATOM      2  C   UNL d   1     -47.557  12.850  23.061  0.00  0.00     0.075 A 
ATOM      3  C   UNL d   1     -46.782  12.720  23.314  0.00  0.00     0.017 A 
ATOM      4  C   UNL d   1     -47.901  11.507  23.440  0.00  0.00     0.092 A 
ATOM      5  C   UNL d   1     -47.763  13.592  22.746  0.00  0.00     0.018 A 
ATOM      6  C   UNL d   1     -47.131  11.380  23.691  0.00  0.00     0.020 A 
ATOM      7  C   UNL d   1     -46.566  11.989  23.627  0.00  0.00     0.003 A 
ATOM      8  C   UNL d   1     -46.221  13.337  23.247  0.00  0.00     0.002 A 
ATOM      9  C   UNL d   1     -47.211  14.205  22.678  0.00  0.00     0.002 A 
ATOM     10  C   UNL d   1     -46.436  14.078  22.930  0.00  0.00     0.000 A 
ENDROOT
BRANCH   1  11
ATOM     11  S   UNL d   1     -48.883  12.379  22.872  0.00  0.00     0.277 S 
ATOM     12  O   UNL d   1     -48.680  12.122  22.115  0.00  0.00    -0.199 OA
ATOM     13  O   UNL d   1     -49.084  12.633  23.619  0.00  0.00    -0.199 OA
BRANCH  11  14
ATOM     14  C   UNL d   1     -49.644  12.510  22.625  0.00  0.00     0.133 A 
ATOM     15  S   UNL d   1     -50.278  12.678  23.121  0.00  0.00    -0.074 SA
ATOM     16  C   UNL d   1     -50.968  12.773  22.626  0.00  0.00     0.036 A 
ATOM     17  C   UNL d   1     -50.714  12.658  21.855  0.00  0.00     0.008 A 
ATOM     18  C   UNL d   1     -49.931  12.499  21.815  0.00  0.00     0.020 A 
ENDBRANCH  11  14
ENDBRANCH   1  11
TORSDOF 2
ENDMDL
MODEL 2
REMARK VINA RESULT:      -8.5      0.834      1.778
REMARK  2 active torsions:
REMARK  status: ('A' for Active; 'I' for Inactive)
REMARK    1  A    between atoms: N_2  and  S_1 
REMARK    2  A    between atoms: C_3  and  S_1 
ROOT
ATOM      1  N   UNL d   1     -47.950  13.514  22.716  0.00  0.00    -0.231 N 
ATOM      2  C   UNL d   1     -47.643  12.824  23.040  0.00  0.00     0.075 A 
ATOM      3  C   UNL d   1     -46.854  12.805  23.281  0.00  0.00     0.017 A 
ATOM      4  C   UNL d   1     -47.478  14.192  22.627  0.00  0.00     0.092 A 
ATOM      5  C   UNL d   1     -48.112  12.144  23.130  0.00  0.00     0.018 A 
ATOM      6  C   UNL d   1     -46.694  14.170  22.868  0.00  0.00     0.020 A 
ATOM      7  C   UNL d   1     -46.379  13.473  23.197  0.00  0.00     0.003 A 
ATOM      8  C   UNL d   1     -46.544  12.102  23.611  0.00  0.00     0.002 A 
ATOM      9  C   UNL d   1     -47.811  11.446  23.456  0.00  0.00     0.002 A 
ATOM     10  C   UNL d   1     -47.022  11.424  23.698  0.00  0.00     0.000 A 
ENDROOT
BRANCH   1  11
ATOM     11  S   UNL d   1     -48.738  13.531  22.476  0.00  0.00     0.277 S 
ATOM     12  O   UNL d   1     -48.963  13.778  23.230  0.00  0.00    -0.199 OA
ATOM     13  O   UNL d   1     -48.517  13.287  21.731  0.00  0.00    -0.199 OA
BRANCH  11  14
ATOM     14  C   UNL d   1     -49.513  13.547  22.239  0.00  0.00     0.133 A 
ATOM     15  S   UNL d   1     -50.125  13.907  22.655  0.00  0.00    -0.074 SA
ATOM     16  C   UNL d   1     -50.840  13.790  22.204  0.00  0.00     0.036 A 
ATOM     17  C   UNL d   1     -50.624  13.363  21.538  0.00  0.00     0.008 A 
ATOM     18  C   UNL d   1     -49.840  13.201  21.525  0.00  0.00     0.020 A 
ENDBRANCH  11  14
ENDBRANCH   1  11
TORSDOF 2
ENDMDL
MODEL 3
REMARK VINA RESULT:      -8.2      1.264      3.404
REMARK  2 active torsions:
REMARK  status: ('A' for Active; 'I' for Inactive)
REMARK    1  A    between atoms: N_2  and  S_1 
REMARK    2  A    between atoms: C_3  and  S_1 
ROOT
ATOM      1  N   UNL d   1     -48.972  13.315  22.195  0.00  0.00    -0.231 N 
ATOM      2  C   UNL d   1     -49.415  12.787  22.643  0.00  0.00     0.075 A 
ATOM      3  C   UNL d   1     -50.222  12.706  22.494  0.00  0.00     0.017 A 
ATOM      4  C   UNL d   1     -49.326  13.769  21.596  0.00  0.00     0.092 A 
ATOM      5  C   UNL d   1     -49.064  12.331  23.243  0.00  0.00     0.018 A 
ATOM      6  C   UNL d   1     -50.129  13.687  21.450  0.00  0.00     0.020 A 
ATOM      7  C   UNL d   1     -50.581  13.152  21.902  0.00  0.00     0.003 A 
ATOM      8  C   UNL d   1     -50.670  12.168  22.952  0.00  0.00     0.002 A 
ATOM      9  C   UNL d   1     -49.502  11.798  23.698  0.00  0.00     0.002 A 
ATOM     10  C   UNL d   1     -50.310  11.715  23.552  0.00  0.00     0.000 A 
ENDROOT
BRANCH   1  11
ATOM     11  S   UNL d   1     -48.165  13.394  22.345  0.00  0.00     0.277 S 
ATOM     12  O   UNL d   1     -48.002  12.831  21.765  0.00  0.00    -0.199 OA
ATOM     13  O   UNL d   1     -48.326  13.949  22.918  0.00  0.00    -0.199 OA
BRANCH  11  14
ATOM     14  C   UNL d   1     -47.373  13.472  22.493  0.00  0.00     0.133 A 
ATOM     15  S   UNL d   1     -47.034  14.074  22.941  0.00  0.00    -0.074 SA
ATOM     16  C   UNL d   1     -46.191  13.939  22.950  0.00  0.00     0.036 A 
ATOM     17  C   UNL d   1     -46.063  13.261  22.507  0.00  0.00     0.008 A 
ATOM     18  C   UNL d   1     -46.744  12.956  22.218  0.00  0.00     0.020 A 
ENDBRANCH  11  14
ENDBRANCH   1  11
TORSDOF 2
ENDMDL
MODEL 4
REMARK VINA RESULT:      -8.2      1.084      3.143
REMARK  2 active torsions:
REMARK  status: ('A' for Active; 'I' for Inactive)
REMARK    1  A    between atoms: N_2  and  S_1 
REMARK    2  A    between atoms: C_3  and  S_1 
ROOT
ATOM      1  N   UNL d   1     -48.573  12.554  22.990  0.00  0.00    -0.231 N 
ATOM      2  C   UNL d   1     -49.200  12.727  22.488  0.00  0.00     0.075 A 
ATOM      3  C   UNL d   1     -49.922  12.340  22.590  0.00  0.00     0.017 A 
ATOM      4  C   UNL d   1     -48.656  11.994  23.599  0.00  0.00     0.092 A 
ATOM      5  C   UNL d   1     -49.120  13.286  21.878  0.00  0.00     0.018 A 
ATOM      6  C   UNL d   1     -49.375  11.611  23.698  0.00  0.00     0.020 A 
ATOM      7  C   UNL d   1     -50.012  11.784  23.191  0.00  0.00     0.003 A 
ATOM      8  C   UNL d   1     -50.558  12.520  22.076  0.00  0.00     0.002 A 
ATOM      9  C   UNL d   1     -49.746  13.467  21.368  0.00  0.00     0.002 A 
ATOM     10  C   UNL d   1     -50.469  13.082  21.467  0.00  0.00     0.000 A 
ENDROOT
BRANCH   1  11
ATOM     11  S   UNL d   1     -47.853  12.941  22.887  0.00  0.00     0.277 S 
ATOM     12  O   UNL d   1     -48.121  13.564  23.357  0.00  0.00    -0.199 OA
ATOM     13  O   UNL d   1     -47.589  12.326  22.423  0.00  0.00    -0.199 OA
BRANCH  11  14
ATOM     14  C   UNL d   1     -47.145  13.321  22.785  0.00  0.00     0.133 A 
ATOM     15  S   UNL d   1     -46.453  12.964  22.518  0.00  0.00    -0.074 SA
ATOM     16  C   UNL d   1     -45.850  13.568  22.495  0.00  0.00     0.036 A 
ATOM     17  C   UNL d   1     -46.209  14.260  22.749  0.00  0.00     0.008 A 
ATOM     18  C   UNL d   1     -46.981  14.151  22.930  0.00  0.00     0.020 A 
ENDBRANCH  11  14
ENDBRANCH   1  11
TORSDOF 2
ENDMDL
