MODEL 1
REMARK VINA RESULT:     -12.4      0.000      0.000
REMARK  1 active torsions:
REMARK  status: ('A' for Active; 'I' for Inactive)
REMARK    1  A    between atoms: C_8  and  C_1 
ROOT
ATOM      1  C   UNL d   1      53.483  32.523  53.728  0.00  0.00     0.010 A 
ATOM      2  C   UNL d   1      52.862  32.975  53.419  0.00  0.00     0.062 A 
ATOM      3  C   UNL d   1      52.302  32.618  52.923  0.00  0.00     0.106 A 
ATOM      4  C   UNL d   1      52.797  33.775  53.600  0.00  0.00     0.198 A 
ATOM      5  O   UNL d   1      52.364  31.818  52.740  0.00  0.00    -0.273 OA
ATOM      6  C   UNL d   1      53.548  31.724  53.547  0.00  0.00     0.069 A 
ATOM      7  C   UNL d   1      52.991  31.368  53.054  0.00  0.00     0.300 A 
ATOM      8  C   UNL d   1      51.682  33.063  52.613  0.00  0.00     0.025 A 
ATOM      9  C   UNL d   1      52.178  34.224  53.292  0.00  0.00     0.042 A 
ATOM     10  O   UNL d   1      53.053  30.562  52.869  0.00  0.00    -0.259 OA
ATOM     11  C   UNL d   1      51.620  33.868  52.798  0.00  0.00     0.005 A 
ATOM     12  O   UNL d   1      53.356  34.132  54.096  0.00  0.00    -0.286 OA
ATOM     13  C   UNL d   1      51.000  34.308  52.486  0.00  0.00     0.000 C 
ENDROOT
BRANCH   1  14
ATOM     14  C   UNL d   1      54.042  32.881  54.224  0.00  0.00     0.000 A 
ATOM     15  C   UNL d   1      54.724  33.223  53.897  0.00  0.00     0.000 A 
ATOM     16  C   UNL d   1      55.290  33.585  54.398  0.00  0.00     0.000 A 
ATOM     17  C   UNL d   1      55.169  33.599  55.212  0.00  0.00     0.000 A 
ATOM     18  C   UNL d   1      54.479  33.251  55.532  0.00  0.00     0.000 A 
ATOM     19  C   UNL d   1      53.922  32.895  55.039  0.00  0.00     0.000 A 
ENDBRANCH   1  14
TORSDOF 1
ENDMDL
MODEL 2
REMARK VINA RESULT:     -12.1      0.696      2.839
REMARK  1 active torsions:
REMARK  status: ('A' for Active; 'I' for Inactive)
REMARK    1  A    between atoms: C_8  and  C_1 
ROOT
ATOM      1  C   UNL d   1      52.515  32.689  53.247  0.00  0.00     0.010 A 
ATOM      2  C   UNL d   1      53.113  32.922  53.770  0.00  0.00     0.062 A 
ATOM      3  C   UNL d   1      53.701  32.379  53.986  0.00  0.00     0.106 A 
ATOM      4  C   UNL d   1      53.127  33.684  54.076  0.00  0.00     0.198 A 
ATOM      5  O   UNL d   1      53.690  31.615  53.681  0.00  0.00    -0.273 OA
ATOM      6  C   UNL d   1      52.500  31.926  52.941  0.00  0.00     0.069 A 
ATOM      7  C   UNL d   1      53.086  31.387  53.156  0.00  0.00     0.300 A 
ATOM      8  C   UNL d   1      54.299  32.605  54.506  0.00  0.00     0.025 A 
ATOM      9  C   UNL d   1      53.723  33.914  54.598  0.00  0.00     0.042 A 
ATOM     10  O   UNL d   1      53.075  30.617  52.849  0.00  0.00    -0.259 OA
ATOM     11  C   UNL d   1      54.309  33.374  54.813  0.00  0.00     0.005 A 
ATOM     12  O   UNL d   1      52.538  34.227  53.860  0.00  0.00    -0.286 OA
ATOM     13  C   UNL d   1      54.907  33.595  55.331  0.00  0.00     0.000 C 
ENDROOT
BRANCH   1  14
ATOM     14  C   UNL d   1      51.926  33.231  53.031  0.00  0.00     0.000 A 
ATOM     15  C   UNL d   1      52.051  33.741  52.388  0.00  0.00     0.000 A 
ATOM     16  C   UNL d   1      51.456  34.289  52.170  0.00  0.00     0.000 A 
ATOM     17  C   UNL d   1      50.750  34.321  52.592  0.00  0.00     0.000 A 
ATOM     18  C   UNL d   1      50.634  33.802  53.238  0.00  0.00     0.000 A 
ATOM     19  C   UNL d   1      51.220  33.263  53.453  0.00  0.00     0.000 A 
ENDBRANCH   1  14
TORSDOF 1
ENDMDL
MODEL 3
REMARK VINA RESULT:     -11.8      0.959      2.196
REMARK  1 active torsions:
REMARK  status: ('A' for Active; 'I' for Inactive)
REMARK    1  A    between atoms: C_8  and  C_1 
ROOT
ATOM      1  C   UNL d   1      53.326  32.948  53.623  0.00  0.00     0.010 A 
ATOM      2  C   UNL d   1      53.220  32.140  53.474  0.00  0.00     0.062 A 
ATOM      3  C   UNL d   1      52.626  31.894  52.951  0.00  0.00     0.106 A 
ATOM      4  C   UNL d   1      53.700  31.581  53.841  0.00  0.00     0.198 A 
ATOM      5  O   UNL d   1      52.145  32.450  52.583  0.00  0.00    -0.273 OA
ATOM      6  C   UNL d   1      52.847  33.506  53.256  0.00  0.00     0.069 A 
ATOM      7  C   UNL d   1      52.255  33.261  52.736  0.00  0.00     0.300 A 
ATOM      8  C   UNL d   1      52.517  31.092  52.800  0.00  0.00     0.025 A 
ATOM      9  C   UNL d   1      53.593  30.777  53.692  0.00  0.00     0.042 A 
ATOM     10  O   UNL d   1      51.770  33.821  52.364  0.00  0.00    -0.259 OA
ATOM     11  C   UNL d   1      53.002  30.533  53.171  0.00  0.00     0.005 A 
ATOM     12  O   UNL d   1      54.294  31.828  54.363  0.00  0.00    -0.286 OA
ATOM     13  C   UNL d   1      52.888  29.733  53.017  0.00  0.00     0.000 C 
ENDROOT
BRANCH   1  14
ATOM     14  C   UNL d   1      53.920  33.194  54.145  0.00  0.00     0.000 A 
ATOM     15  C   UNL d   1      54.685  33.340  53.860  0.00  0.00     0.000 A 
ATOM     16  C   UNL d   1      55.286  33.589  54.389  0.00  0.00     0.000 A 
ATOM     17  C   UNL d   1      55.117  33.687  55.188  0.00  0.00     0.000 A 
ATOM     18  C   UNL d   1      54.342  33.537  55.466  0.00  0.00     0.000 A 
ATOM     19  C   UNL d   1      53.751  33.292  54.945  0.00  0.00     0.000 A 
ENDBRANCH   1  14
TORSDOF 1
ENDMDL
MODEL 4
REMARK VINA RESULT:     -11.4      0.967      3.228
REMARK  1 active torsions:
REMARK  status: ('A' for Active; 'I' for Inactive)
REMARK    1  A    between atoms: C_8  and  C_1 
ROOT
ATOM      1  C   UNL d   1      52.904  33.143  53.701  0.00  0.00     0.010 A 
ATOM      2  C   UNL d   1      53.049  32.337  53.578  0.00  0.00     0.062 A 
ATOM      3  C   UNL d   1      53.652  31.960  54.004  0.00  0.00     0.106 A 
ATOM      4  C   UNL d   1      52.600  31.910  53.037  0.00  0.00     0.198 A 
ATOM      5  O   UNL d   1      54.102  32.385  54.545  0.00  0.00    -0.273 OA
ATOM      6  C   UNL d   1      53.352  33.571  54.241  0.00  0.00     0.069 A 
ATOM      7  C   UNL d   1      53.952  33.195  54.665  0.00  0.00     0.300 A 
ATOM      8  C   UNL d   1      53.800  31.159  53.885  0.00  0.00     0.025 A 
ATOM      9  C   UNL d   1      52.746  31.107  52.916  0.00  0.00     0.042 A 
ATOM     10  O   UNL d   1      54.407  33.623  55.210  0.00  0.00    -0.259 OA
ATOM     11  C   UNL d   1      53.346  30.732  53.340  0.00  0.00     0.005 A 
ATOM     12  O   UNL d   1      51.998  32.287  52.611  0.00  0.00    -0.286 OA
ATOM     13  C   UNL d   1      53.498  29.932  53.226  0.00  0.00     0.000 C 
ENDROOT
BRANCH   1  14
ATOM     14  C   UNL d   1      52.301  33.521  53.274  0.00  0.00     0.000 A 
ATOM     15  C   UNL d   1      51.524  33.511  53.564  0.00  0.00     0.000 A 
ATOM     16  C   UNL d   1      50.915  33.892  53.133  0.00  0.00     0.000 A 
ATOM     17  C   UNL d   1      51.087  34.275  52.426  0.00  0.00     0.000 A 
ATOM     18  C   UNL d   1      51.875  34.279  52.142  0.00  0.00     0.000 A 
ATOM     19  C   UNL d   1      52.475  33.904  52.566  0.00  0.00     0.000 A 
ENDBRANCH   1  14
TORSDOF 1
ENDMDL
MODEL 5
REMARK VINA RESULT:     -10.9      1.072      3.637
REMARK  1 active torsions:
REMARK  status: ('A' for Active; 'I' for Inactive)
REMARK    1  A    between atoms: C_8  and  C_1 
ROOT
ATOM      1  C   UNL d   1      52.322  34.251  53.440  0.00  0.00     0.010 A 
ATOM      2  C   UNL d   1      52.757  33.555  53.549  0.00  0.00     0.062 A 
ATOM      3  C   UNL d   1      53.431  33.564  54.031  0.00  0.00     0.106 A 
ATOM      4  C   UNL d   1      52.526  32.856  53.182  0.00  0.00     0.198 A 
ATOM      5  O   UNL d   1      53.664  34.261  54.400  0.00  0.00    -0.273 OA
ATOM      6  C   UNL d   1      52.553  34.949  53.807  0.00  0.00     0.069 A 
ATOM      7  C   UNL d   1      53.224  34.958  54.287  0.00  0.00     0.300 A 
ATOM      8  C   UNL d   1      53.867  32.874  54.143  0.00  0.00     0.025 A 
ATOM      9  C   UNL d   1      52.960  32.164  53.291  0.00  0.00     0.042 A 
ATOM     10  O   UNL d   1      53.460  35.661  54.659  0.00  0.00    -0.259 OA
ATOM     11  C   UNL d   1      53.631  32.173  53.771  0.00  0.00     0.005 A 
ATOM     12  O   UNL d   1      51.852  32.847  52.699  0.00  0.00    -0.286 OA
ATOM     13  C   UNL d   1      54.070  31.487  53.886  0.00  0.00     0.000 C 
ENDROOT
BRANCH   1  14
ATOM     14  C   UNL d   1      51.648  34.242  52.958  0.00  0.00     0.000 A 
ATOM     15  C   UNL d   1      50.899  34.130  53.298  0.00  0.00     0.000 A 
ATOM     16  C   UNL d   1      50.218  34.121  52.810  0.00  0.00     0.000 A 
ATOM     17  C   UNL d   1      50.292  34.222  51.997  0.00  0.00     0.000 A 
ATOM     18  C   UNL d   1      51.052  34.334  51.664  0.00  0.00     0.000 A 
ATOM     19  C   UNL d   1      51.723  34.343  52.144  0.00  0.00     0.000 A 
ENDBRANCH   1  14
TORSDOF 1
ENDMDL
MODEL 6
REMARK VINA RESULT:     -10.8      0.879      2.521
REMARK  1 active torsions:
REMARK  status: ('A' for Active; 'I' for Inactive)
REMARK    1  A    between atoms: C_8  and  C_1 
ROOT
ATOM      1  C   UNL d   1      53.683  32.450  54.034  0.00  0.00     0.010 A 
ATOM      2  C   UNL d   1      53.128  32.989  53.736  0.00  0.00     0.062 A 
ATOM      3  C   UNL d   1      53.189  33.791  53.937  0.00  0.00     0.106 A 
ATOM      4  C   UNL d   1      52.521  32.734  53.245  0.00  0.00     0.198 A 
ATOM      5  O   UNL d   1      53.796  34.049  54.428  0.00  0.00    -0.273 OA
ATOM      6  C   UNL d   1      54.291  32.705  54.525  0.00  0.00     0.069 A 
ATOM      7  C   UNL d   1      54.351  33.503  54.724  0.00  0.00     0.300 A 
ATOM      8  C   UNL d   1      52.640  34.331  53.643  0.00  0.00     0.025 A 
ATOM      9  C   UNL d   1      51.970  33.272  52.950  0.00  0.00     0.042 A 
ATOM     10  O   UNL d   1      54.962  33.764  55.220  0.00  0.00    -0.259 OA
ATOM     11  C   UNL d   1      52.029  34.070  53.149  0.00  0.00     0.005 A 
ATOM     12  O   UNL d   1      52.460  31.932  53.045  0.00  0.00    -0.286 OA
ATOM     13  C   UNL d   1      51.485  34.613  52.859  0.00  0.00     0.000 C 
ENDROOT
BRANCH   1  14
ATOM     14  C   UNL d   1      53.622  31.648  53.834  0.00  0.00     0.000 A 
ATOM     15  C   UNL d   1      53.219  31.127  54.338  0.00  0.00     0.000 A 
ATOM     16  C   UNL d   1      53.158  30.316  54.136  0.00  0.00     0.000 A 
ATOM     17  C   UNL d   1      53.498  30.038  53.440  0.00  0.00     0.000 A 
ATOM     18  C   UNL d   1      53.902  30.572  52.938  0.00  0.00     0.000 A 
ATOM     19  C   UNL d   1      53.962  31.371  53.137  0.00  0.00     0.000 A 
ENDBRANCH   1  14
TORSDOF 1
ENDMDL
MODEL 7
REMARK VINA RESULT:     -10.4      1.035      3.107
REMARK  1 active torsions:
REMARK  status: ('A' for Active; 'I' for Inactive)
REMARK    1  A    between atoms: C_8  and  C_1 
ROOT
ATOM      1  C   UNL d   1      52.773  32.371  53.262  0.00  0.00     0.010 A 
ATOM      2  C   UNL d   1      53.287  32.741  53.796  0.00  0.00     0.062 A 
ATOM      3  C   UNL d   1      53.276  33.567  53.869  0.00  0.00     0.106 A 
ATOM      4  C   UNL d   1      53.806  32.297  54.252  0.00  0.00     0.198 A 
ATOM      5  O   UNL d   1      52.758  34.014  53.413  0.00  0.00    -0.273 OA
ATOM      6  C   UNL d   1      52.254  32.815  52.806  0.00  0.00     0.069 A 
ATOM      7  C   UNL d   1      52.243  33.637  52.878  0.00  0.00     0.300 A 
ATOM      8  C   UNL d   1      53.785  33.940  54.398  0.00  0.00     0.025 A 
ATOM      9  C   UNL d   1      54.317  32.667  54.783  0.00  0.00     0.042 A 
ATOM     10  O   UNL d   1      51.721  34.089  52.420  0.00  0.00    -0.259 OA
ATOM     11  C   UNL d   1      54.307  33.488  54.856  0.00  0.00     0.005 A 
ATOM     12  O   UNL d   1      53.817  31.471  54.179  0.00  0.00    -0.286 OA
ATOM     13  C   UNL d   1      54.812  33.866  55.383  0.00  0.00     0.000 C 
ENDROOT
BRANCH   1  14
ATOM     14  C   UNL d   1      52.784  31.545  53.189  0.00  0.00     0.000 A 
ATOM     15  C   UNL d   1      52.233  31.088  53.608  0.00  0.00     0.000 A 
ATOM     16  C   UNL d   1      52.244  30.253  53.534  0.00  0.00     0.000 A 
ATOM     17  C   UNL d   1      52.799  29.889  53.047  0.00  0.00     0.000 A 
ATOM     18  C   UNL d   1      53.350  30.360  52.629  0.00  0.00     0.000 A 
ATOM     19  C   UNL d   1      53.340  31.182  52.702  0.00  0.00     0.000 A 
ENDBRANCH   1  14
TORSDOF 1
ENDMDL
