MODEL 1
REMARK VINA RESULT:      -4.7      0.000      0.000
REMARK  3 active torsions:
REMARK  status: ('A' for Active; 'I' for Inactive)
REMARK    1  A    between atoms: C_9  and  C_1 
REMARK    2  A    between atoms: C_11  and  N_5 
REMARK    3  A    between atoms: N_8  and  C_9 
ROOT
ATOM      1  N   UNL d   1      57.170   0.502  32.058  0.00  0.00    -0.301 N 
ATOM      2  N   UNL d   1      58.109   0.587  30.698  0.00  0.00    -0.300 N 
ATOM      3  C   UNL d   1      56.826   0.409  31.308  0.00  0.00     0.100 A 
ATOM      4  C   UNL d   1      57.985   0.638  32.124  0.00  0.00     0.100 A 
ATOM      5  C   UNL d   1      57.299   0.451  30.619  0.00  0.00     0.100 A 
ATOM      6  C   UNL d   1      58.440   0.678  31.447  0.00  0.00     0.100 A 
ENDROOT
BRANCH   2   7
ATOM      7  C   UNL d   1      58.584   0.631  30.021  0.00  0.00     0.084 C 
BRANCH   7   8
ATOM      8  C   UNL d   1      58.915  -0.060  29.729  0.00  0.00     0.059 A 
ATOM      9  C   UNL d   1      59.683  -0.031  29.419  0.00  0.00     0.214 A 
ATOM     10  C   UNL d   1      60.026  -0.730  29.120  0.00  0.00     0.121 A 
ATOM     11  O   UNL d   1      60.105   0.668  29.402  0.00  0.00    -0.285 OA
ATOM     12  N   UNL d   1      60.793  -0.701  28.809  0.00  0.00    -0.241 NA
ATOM     13  C   UNL d   1      59.606  -1.440  29.134  0.00  0.00     0.032 A 
ATOM     14  C   UNL d   1      61.133  -1.398  28.512  0.00  0.00     0.099 A 
ATOM     15  C   UNL d   1      60.713  -2.108  28.526  0.00  0.00     0.021 A 
ATOM     16  C   UNL d   1      59.952  -2.120  28.837  0.00  0.00     0.004 A 
ATOM     17  C   UNL d   1      58.848  -1.454  29.443  0.00  0.00     0.059 A 
ATOM     18  C   UNL d   1      58.495  -0.770  29.743  0.00  0.00     0.016 A 
ATOM     19 CL   UNL d   1      58.423  -2.171  29.457  0.00  0.00    -0.082 Cl
ENDBRANCH   7   8
ENDBRANCH   2   7
BRANCH   1  20
ATOM     20  C   UNL d   1      56.703   0.459  32.726  0.00  0.00     0.064 A 
ATOM     21  C   UNL d   1      57.030   0.633  33.462  0.00  0.00     0.020 A 
ATOM     22  C   UNL d   1      56.561   0.592  34.146  0.00  0.00     0.031 A 
ATOM     23  C   UNL d   1      55.759   0.373  34.087  0.00  0.00     0.140 A 
ATOM     24  C   UNL d   1      55.442   0.200  33.344  0.00  0.00     0.031 A 
ATOM     25  F   UNL d   1      55.300   0.333  34.764  0.00  0.00    -0.204 F 
ATOM     26  C   UNL d   1      55.913   0.244  32.668  0.00  0.00     0.020 A 
ENDBRANCH   1  20
TORSDOF 3
ENDMDL
MODEL 2
REMARK VINA RESULT:      -3.1      2.428      5.406
REMARK  3 active torsions:
REMARK  status: ('A' for Active; 'I' for Inactive)
REMARK    1  A    between atoms: C_9  and  C_1 
REMARK    2  A    between atoms: C_11  and  N_5 
REMARK    3  A    between atoms: N_8  and  C_9 
ROOT
ATOM      1  N   UNL d   1      58.380  -0.713  30.201  0.00  0.00    -0.301 N 
ATOM      2  N   UNL d   1      57.291   0.204  31.047  0.00  0.00    -0.300 N 
ATOM      3  C   UNL d   1      58.408   0.116  30.155  0.00  0.00     0.100 A 
ATOM      4  C   UNL d   1      57.805  -1.080  30.672  0.00  0.00     0.100 A 
ATOM      5  C   UNL d   1      57.858   0.581  30.582  0.00  0.00     0.100 A 
ATOM      6  C   UNL d   1      57.272  -0.619  31.085  0.00  0.00     0.100 A 
ENDROOT
BRANCH   2   7
ATOM      7  C   UNL d   1      56.743   0.656  31.472  0.00  0.00     0.084 C 
BRANCH   7   8
ATOM      8  C   UNL d   1      56.792   0.663  32.291  0.00  0.00     0.059 A 
ATOM      9  C   UNL d   1      56.089   0.663  32.729  0.00  0.00     0.214 A 
ATOM     10  C   UNL d   1      56.130   0.669  33.562  0.00  0.00     0.121 A 
ATOM     11  O   UNL d   1      55.360   0.656  32.359  0.00  0.00    -0.285 OA
ATOM     12  N   UNL d   1      55.427   0.669  34.000  0.00  0.00    -0.241 NA
ATOM     13  C   UNL d   1      56.862   0.676  33.943  0.00  0.00     0.032 A 
ATOM     14  C   UNL d   1      55.470   0.676  34.830  0.00  0.00     0.099 A 
ATOM     15  C   UNL d   1      56.202   0.682  35.211  0.00  0.00     0.021 A 
ATOM     16  C   UNL d   1      56.891   0.682  34.762  0.00  0.00     0.004 A 
ATOM     17  C   UNL d   1      57.549   0.675  33.498  0.00  0.00     0.059 A 
ATOM     18  C   UNL d   1      57.523   0.669  32.672  0.00  0.00     0.016 A 
ATOM     19 CL   UNL d   1      58.288   0.682  33.882  0.00  0.00    -0.082 Cl
ENDBRANCH   7   8
ENDBRANCH   2   7
BRANCH   1  20
ATOM     20  C   UNL d   1      58.919  -1.161  29.783  0.00  0.00     0.064 A 
ATOM     21  C   UNL d   1      58.753  -1.952  29.625  0.00  0.00     0.020 A 
ATOM     22  C   UNL d   1      59.296  -2.414  29.200  0.00  0.00     0.031 A 
ATOM     23  C   UNL d   1      60.009  -2.075  28.933  0.00  0.00     0.140 A 
ATOM     24  C   UNL d   1      60.165  -1.281  29.097  0.00  0.00     0.031 A 
ATOM     25  F   UNL d   1      60.543  -2.535  28.514  0.00  0.00    -0.204 F 
ATOM     26  C   UNL d   1      59.620  -0.827  29.520  0.00  0.00     0.020 A 
ENDBRANCH   1  20
TORSDOF 3
ENDMDL
