MODEL 1
REMARK VINA RESULT:      11.9      0.000      0.000
REMARK  1 active torsions:
REMARK  status: ('A' for Active; 'I' for Inactive)
REMARK    1  A    between atoms: C_6  and  C_1 
ROOT
ATOM      1  C   UNL d   1      13.865  12.429  -2.631  0.00  0.00     0.162 A 
ATOM      2  N   UNL d   1      14.452  12.845  -2.296  0.00  0.00    -0.225 NA
ATOM      3  N   UNL d   1      13.536  11.944  -2.045  0.00  0.00    -0.225 NA
ATOM      4  C   UNL d   1      14.519  12.646  -1.505  0.00  0.00     0.101 A 
ATOM      5  C   UNL d   1      13.941  12.078  -1.347  0.00  0.00     0.101 A 
ATOM      6  C   UNL d   1      15.018  12.909  -0.941  0.00  0.00     0.021 A 
ATOM      7  C   UNL d   1      13.871  11.781  -0.627  0.00  0.00     0.021 A 
ATOM      8  C   UNL d   1      14.940  12.589  -0.174  0.00  0.00     0.002 A 
ATOM      9  C   UNL d   1      14.362  12.020  -0.016  0.00  0.00     0.002 A 
ENDROOT
BRANCH   1  10
ATOM     10  C   UNL d   1      13.594  12.423  -3.354  0.00  0.00     0.036 A 
ATOM     11  C   UNL d   1      13.119  13.044  -3.616  0.00  0.00     0.005 A 
ATOM     12  C   UNL d   1      12.826  13.032  -4.404  0.00  0.00     0.021 A 
ATOM     13  C   UNL d   1      13.035  12.375  -4.896  0.00  0.00     0.103 A 
ATOM     14  C   UNL d   1      13.494  11.781  -4.631  0.00  0.00     0.021 A 
ATOM     15  N   UNL d   1      12.769  12.315  -5.689  0.00  0.00    -0.148 N 
ATOM     16  C   UNL d   1      13.787  11.792  -3.844  0.00  0.00     0.005 A 
ENDBRANCH   1  10
TORSDOF 1
ENDMDL
