MODEL 1
REMARK VINA RESULT:      34.9      0.000      0.000
REMARK  5 active torsions:
REMARK  status: ('A' for Active; 'I' for Inactive)
REMARK    1  A    between atoms: C_4  and  N_1 
REMARK    2  A    between atoms: C_9  and  C_2 
REMARK    3  A    between atoms: C_14  and  C_6 
REMARK    4  A    between atoms: C_7  and  C_9 
REMARK    5  A    between atoms: O_26  and  C_22 
ROOT
ATOM      1  N   UNL d   1      46.400 -18.522  42.499  0.00  0.00    -0.254 N 
ATOM      2  C   UNL d   1      46.301 -17.690  43.542  0.00  0.00     0.101 A 
ATOM      3  C   UNL d   1      46.428 -17.749  42.210  0.00  0.00     0.305 A 
ATOM      4  C   UNL d   1      46.366 -17.231  42.854  0.00  0.00     0.256 A 
ATOM      5  C   UNL d   1      46.322 -18.487  43.323  0.00  0.00     0.081 A 
ATOM      6  O   UNL d   1      46.503 -17.522  41.420  0.00  0.00    -0.263 OA
ATOM      7  O   UNL d   1      46.370 -16.401  42.814  0.00  0.00    -0.281 OA
ENDROOT
BRANCH   2   8
ATOM      8  C   UNL d   1      46.227 -17.397  44.313  0.00  0.00     0.223 C 
ATOM      9  O   UNL d   1      46.337 -17.895  44.955  0.00  0.00    -0.284 OA
BRANCH   8  10
ATOM     10  C   UNL d   1      46.043 -16.600  44.437  0.00  0.00     0.139 A 
ATOM     11  O   UNL d   1      45.301 -16.256  44.338  0.00  0.00    -0.302 OA
ATOM     12  C   UNL d   1      45.369 -15.451  44.522  0.00  0.00     0.122 A 
ATOM     13  C   UNL d   1      44.819 -14.840  44.523  0.00  0.00     0.117 A 
ATOM     14  C   UNL d   1      46.150 -15.304  44.734  0.00  0.00     0.027 A 
ATOM     15  C   UNL d   1      45.051 -14.080  44.736  0.00  0.00     0.026 A 
ATOM     16  C   UNL d   1      45.840 -13.931  44.950  0.00  0.00     0.002 A 
ATOM     17  C   UNL d   1      46.385 -14.543  44.947  0.00  0.00     0.002 A 
ATOM     18  C   UNL d   1      46.567 -16.012  44.682  0.00  0.00     0.030 A 
BRANCH  13  19
ATOM     19  O   UNL d   1      44.037 -14.987  44.311  0.00  0.00    -0.326 OA
ATOM     20  C   UNL d   1      43.419 -14.781  44.827  0.00  0.00     0.181 C 
ENDBRANCH  13  19
ENDBRANCH   8  10
ENDBRANCH   2   8
BRANCH   5  21
ATOM     21  C   UNL d   1      46.273 -19.127  43.837  0.00  0.00     0.046 A 
ATOM     22  S   UNL d   1      46.618 -19.171  44.588  0.00  0.00    -0.085 SA
ATOM     23  C   UNL d   1      46.434 -19.906  44.915  0.00  0.00     0.035 A 
ATOM     24  C   UNL d   1      45.971 -20.321  44.363  0.00  0.00     0.007 A 
ATOM     25  C   UNL d   1      45.876 -19.835  43.703  0.00  0.00     0.009 A 
ENDBRANCH   5  21
BRANCH   1  26
ATOM     26  C   UNL d   1      46.469 -18.929  41.779  0.00  0.00     0.179 A 
ATOM     27  N   UNL d   1      46.561 -19.745  41.680  0.00  0.00    -0.108 NA
ATOM     28  O   UNL d   1      46.606 -19.907  40.866  0.00  0.00    -0.210 OA
ATOM     29  C   UNL d   1      46.541 -19.181  40.456  0.00  0.00     0.128 A 
ATOM     30  C   UNL d   1      46.457 -18.581  41.016  0.00  0.00     0.067 A 
ATOM     31  C   UNL d   1      46.559 -19.088  39.638  0.00  0.00     0.029 C 
ENDBRANCH   1  26
TORSDOF 5
ENDMDL
