MODEL 1
REMARK VINA RESULT:      42.3      0.000      0.000
REMARK  4 active torsions:
REMARK  status: ('A' for Active; 'I' for Inactive)
REMARK    1  A    between atoms: N_2  and  S_1 
REMARK    2  A    between atoms: C_3  and  S_1 
REMARK    3  A    between atoms: C_11  and  N_2 
REMARK    4  A    between atoms: C_6  and  C_7 
ROOT
ATOM      1  S   UNL d   1     -54.736-101.745 -42.621  0.00  0.00     0.285 S 
ATOM      2  O   UNL d   1     -54.732-102.555 -42.774  0.00  0.00    -0.198 OA
ATOM      3  O   UNL d   1     -54.741-100.934 -42.468  0.00  0.00    -0.198 OA
ENDROOT
BRANCH   1   4
ATOM      4  N   UNL d   1     -54.711-101.592 -43.431  0.00  0.00    -0.158 NA
BRANCH   4   5
ATOM      5  C   UNL d   1     -55.142-100.966 -43.753  0.00  0.00     0.094 A 
ATOM      6  C   UNL d   1     -55.811-100.676 -43.367  0.00  0.00     0.020 A 
ATOM      7  C   UNL d   1     -56.238-100.051 -43.692  0.00  0.00     0.005 A 
ATOM      8  C   UNL d   1     -55.995 -99.710 -44.412  0.00  0.00     0.039 A 
ATOM      9  C   UNL d   1     -55.325-100.000 -44.797  0.00  0.00     0.005 A 
ATOM     10  C   UNL d   1     -54.895-100.626 -44.476  0.00  0.00     0.020 A 
BRANCH   8  11
ATOM     11  C   UNL d   1     -56.423 -99.077 -44.745  0.00  0.00     0.196 C 
ATOM     12  O   UNL d   1     -56.194 -98.762 -45.470  0.00  0.00    -0.287 OA
ATOM     13  C   UNL d   1     -57.088 -98.755 -44.349  0.00  0.00     0.045 C 
ENDBRANCH   8  11
ENDBRANCH   4   5
ENDBRANCH   1   4
BRANCH   1  14
ATOM     14  C   UNL d   1     -54.761-101.897 -41.811  0.00  0.00     0.105 A 
ATOM     15  C   UNL d   1     -54.834-102.668 -41.545  0.00  0.00     0.013 A 
ATOM     16  C   UNL d   1     -54.860-102.823 -40.722  0.00  0.00     0.001 A 
ATOM     17  C   UNL d   1     -54.811-102.203 -40.186  0.00  0.00     0.000 A 
ATOM     18  C   UNL d   1     -54.737-101.424 -40.454  0.00  0.00     0.001 A 
ATOM     19  C   UNL d   1     -54.836-102.356 -39.376  0.00  0.00     0.000 C 
ATOM     20  C   UNL d   1     -54.712-101.269 -41.277  0.00  0.00     0.013 A 
ENDBRANCH   1  14
TORSDOF 4
ENDMDL
