MODEL 1
REMARK VINA RESULT:      61.2      0.000      0.000
REMARK  3 active torsions:
REMARK  status: ('A' for Active; 'I' for Inactive)
REMARK    1  A    between atoms: N_6  and  C_1 
REMARK       I    between atoms: C_8  and  N_6 
REMARK       I    between atoms: C_11  and  N_7 
REMARK    2  A    between atoms: C_14  and  C_8 
REMARK    3  A    between atoms: O_20  and  C_19 
ROOT
ATOM      1  C   UNL d   1     -54.713-100.812 -41.905  0.00  0.00     0.124 A 
ATOM      2  C   UNL d   1     -54.717-101.644 -41.891  0.00  0.00     0.093 A 
ATOM      3  C   UNL d   1     -54.713-101.217 -40.622  0.00  0.00     0.049 A 
ATOM      4  C   UNL d   1     -54.717-101.889 -41.097  0.00  0.00     0.021 A 
ATOM      5  S   UNL d   1     -54.711-100.549 -41.109  0.00  0.00    -0.066 SA
ATOM      6  N   UNL d   1     -54.715-102.041 -39.449  0.00  0.00    -0.272 N 
ATOM      7  C   UNL d   1     -54.713-101.294 -39.788  0.00  0.00     0.089 A 
ATOM      8  C   UNL d   1     -54.719-102.132 -42.558  0.00  0.00     0.103 C 
ATOM      9  C   UNL d   1     -54.715-102.127 -38.622  0.00  0.00     0.265 C 
ATOM     10  N   UNL d   1     -54.722-102.613 -43.213  0.00  0.00    -0.191 NA
ATOM     11  C   UNL d   1     -54.719-102.652 -40.759  0.00  0.00     0.020 A 
ATOM     12  C   UNL d   1     -54.719-102.720 -39.935  0.00  0.00     0.083 A 
ATOM     13  O   UNL d   1     -54.711-101.458 -38.143  0.00  0.00    -0.267 OA
ATOM     14  C   UNL d   1     -54.717-102.874 -38.283  0.00  0.00     0.066 C 
ENDROOT
BRANCH   1  15
ATOM     15  N   UNL d   1     -54.712-100.331 -42.577  0.00  0.00    -0.201 NA
ATOM     16  C   UNL d   1     -55.403-100.237 -43.018  0.00  0.00     0.280 C 
ATOM     17  O   UNL d   1     -56.099-100.618 -42.796  0.00  0.00    -0.265 OA
BRANCH  16  18
ATOM     18  C   UNL d   1     -55.402 -99.766 -43.677  0.00  0.00     0.060 A 
ATOM     19  C   UNL d   1     -56.080 -99.692 -44.140  0.00  0.00     0.029 A 
ATOM     20  C   UNL d   1     -56.079 -99.214 -44.809  0.00  0.00     0.094 A 
ATOM     21  C   UNL d   1     -55.400 -98.805 -45.021  0.00  0.00     0.024 A 
ATOM     22  C   UNL d   1     -54.717 -98.873 -44.564  0.00  0.00     0.002 A 
ATOM     23  C   UNL d   1     -54.718 -99.359 -43.884  0.00  0.00     0.005 A 
BRANCH  20  24
ATOM     24  O   UNL d   1     -56.769 -99.133 -45.289  0.00  0.00    -0.328 OA
ATOM     25  C   UNL d   1     -57.457 -98.796 -44.990  0.00  0.00     0.181 C 
ENDBRANCH  20  24
ENDBRANCH  16  18
ENDBRANCH   1  15
TORSDOF 3
ENDMDL
