MODEL 1
REMARK VINA RESULT:      -7.5      0.000      0.000
REMARK  8 active torsions:
REMARK  status: ('A' for Active; 'I' for Inactive)
REMARK    1  A    between atoms: C_11  and  N_1 
REMARK    2  A    between atoms: S_10  and  C_2 
REMARK    3  A    between atoms: N_8  and  C_9 
REMARK    4  A    between atoms: C_18  and  S_10 
REMARK    5  A    between atoms: C_19  and  C_11 
REMARK    6  A    between atoms: C_13  and  C_18 
REMARK    7  A    between atoms: O_20  and  C_13 
REMARK    8  A    between atoms: C_25  and  O_20 
ROOT
ATOM      1  N   UNL d   1      53.244  32.776  53.329  0.00  0.00    -0.253 N 
ATOM      2  C   UNL d   1      52.954  32.013  53.318  0.00  0.00     0.182 A 
ATOM      3  C   UNL d   1      52.723  33.423  53.250  0.00  0.00     0.268 A 
ATOM      4  C   UNL d   1      51.894  33.277  53.158  0.00  0.00     0.076 A 
ATOM      5  N   UNL d   1      52.126  31.868  53.226  0.00  0.00    -0.222 NA
ATOM      6  C   UNL d   1      51.604  32.501  53.148  0.00  0.00     0.088 A 
ATOM      7  C   UNL d   1      51.376  33.930  53.079  0.00  0.00     0.024 A 
ATOM      8  C   UNL d   1      50.568  33.783  52.990  0.00  0.00     0.065 A 
ATOM      9  O   UNL d   1      53.010  34.198  53.260  0.00  0.00    -0.267 OA
ATOM     10  C   UNL d   1      50.797  32.375  53.058  0.00  0.00     0.021 A 
ATOM     11  C   UNL d   1      50.274  33.008  52.979  0.00  0.00     0.019 A 
ENDROOT
BRANCH   1  12
ATOM     12  C   UNL d   1      54.049  32.917  53.418  0.00  0.00     0.085 C 
BRANCH  12  13
ATOM     13  C   UNL d   1      54.346  33.169  54.145  0.00  0.00     0.018 A 
ATOM     14  C   UNL d   1      54.043  32.856  54.838  0.00  0.00     0.002 A 
ATOM     15  C   UNL d   1      54.346  33.114  55.563  0.00  0.00     0.000 A 
ATOM     16  C   UNL d   1      54.943  33.678  55.582  0.00  0.00     0.000 A 
ATOM     17  C   UNL d   1      55.245  33.990  54.886  0.00  0.00     0.000 A 
ATOM     18  C   UNL d   1      54.943  33.733  54.164  0.00  0.00     0.002 A 
ENDBRANCH  12  13
ENDBRANCH   1  12
BRANCH   2  19
ATOM     19  S   UNL d   1      53.465  31.378  53.396  0.00  0.00    -0.044 SA
BRANCH  19  20
ATOM     20  C   UNL d   1      53.194  30.614  53.271  0.00  0.00     0.107 C 
BRANCH  20  21
ATOM     21  C   UNL d   1      53.603  29.963  53.588  0.00  0.00     0.307 C 
ATOM     22  O   UNL d   1      54.314  29.718  53.262  0.00  0.00    -0.258 OA
BRANCH  21  23
ATOM     23  O   UNL d   1      53.289  29.567  54.231  0.00  0.00    -0.271 OA
BRANCH  23  24
ATOM     24  C   UNL d   1      53.594  28.835  54.452  0.00  0.00     0.126 C 
ATOM     25  C   UNL d   1      53.340  28.470  55.153  0.00  0.00     0.029 C 
ENDBRANCH  23  24
ENDBRANCH  21  23
ENDBRANCH  20  21
ENDBRANCH  19  20
ENDBRANCH   2  19
BRANCH   8  26
ATOM     26  N   UNL d   1      50.049  34.418  52.912  0.00  0.00    -0.300 N 
ATOM     27  C   UNL d   1      49.867  34.885  53.562  0.00  0.00     0.107 A 
ATOM     28  C   UNL d   1      49.345  35.523  53.482  0.00  0.00     0.142 A 
ATOM     29  O   UNL d   1      49.010  35.688  52.749  0.00  0.00    -0.300 OA
ATOM     30  C   UNL d   1      49.191  35.222  52.099  0.00  0.00     0.142 A 
ATOM     31  C   UNL d   1      49.707  34.590  52.176  0.00  0.00     0.107 A 
ENDBRANCH   8  26
TORSDOF 8
ENDMDL
MODEL 2
REMARK VINA RESULT:      -5.5      1.353      4.783
REMARK  8 active torsions:
REMARK  status: ('A' for Active; 'I' for Inactive)
REMARK    1  A    between atoms: C_11  and  N_1 
REMARK    2  A    between atoms: S_10  and  C_2 
REMARK    3  A    between atoms: N_8  and  C_9 
REMARK    4  A    between atoms: C_18  and  S_10 
REMARK    5  A    between atoms: C_19  and  C_11 
REMARK    6  A    between atoms: C_13  and  C_18 
REMARK    7  A    between atoms: O_20  and  C_13 
REMARK    8  A    between atoms: C_25  and  O_20 
ROOT
ATOM      1  N   UNL d   1      53.135  32.768  53.973  0.00  0.00    -0.253 N 
ATOM      2  C   UNL d   1      52.737  32.753  53.261  0.00  0.00     0.182 A 
ATOM      3  C   UNL d   1      53.345  32.054  54.351  0.00  0.00     0.268 A 
ATOM      4  C   UNL d   1      53.138  31.318  53.988  0.00  0.00     0.076 A 
ATOM      5  N   UNL d   1      52.531  32.017  52.898  0.00  0.00    -0.222 NA
ATOM      6  C   UNL d   1      52.733  31.307  53.264  0.00  0.00     0.088 A 
ATOM      7  C   UNL d   1      53.351  30.605  54.371  0.00  0.00     0.024 A 
ATOM      8  C   UNL d   1      53.148  29.889  54.013  0.00  0.00     0.065 A 
ATOM      9  O   UNL d   1      53.748  32.064  55.072  0.00  0.00    -0.267 OA
ATOM     10  C   UNL d   1      52.540  30.585  52.924  0.00  0.00     0.021 A 
ATOM     11  C   UNL d   1      52.743  29.874  53.290  0.00  0.00     0.019 A 
ENDROOT
BRANCH   1  12
ATOM     12  C   UNL d   1      53.336  33.484  54.325  0.00  0.00     0.085 C 
BRANCH  12  13
ATOM     13  C   UNL d   1      54.126  33.662  54.477  0.00  0.00     0.018 A 
ATOM     14  C   UNL d   1      54.669  33.654  53.864  0.00  0.00     0.002 A 
ATOM     15  C   UNL d   1      55.460  33.833  54.025  0.00  0.00     0.000 A 
ATOM     16  C   UNL d   1      55.694  34.017  54.791  0.00  0.00     0.000 A 
ATOM     17  C   UNL d   1      55.147  34.024  55.403  0.00  0.00     0.000 A 
ATOM     18  C   UNL d   1      54.359  33.845  55.243  0.00  0.00     0.002 A 
ENDBRANCH  12  13
ENDBRANCH   1  12
BRANCH   2  19
ATOM     19  S   UNL d   1      52.531  33.453  52.889  0.00  0.00    -0.044 SA
BRANCH  19  20
ATOM     20  C   UNL d   1      51.811  33.518  52.502  0.00  0.00     0.107 C 
BRANCH  20  21
ATOM     21  C   UNL d   1      51.506  34.263  52.298  0.00  0.00     0.307 C 
ATOM     22  O   UNL d   1      51.888  34.735  51.747  0.00  0.00    -0.258 OA
BRANCH  21  23
ATOM     23  O   UNL d   1      50.817  34.525  52.654  0.00  0.00    -0.271 OA
BRANCH  23  24
ATOM     24  C   UNL d   1      50.116  34.549  52.224  0.00  0.00     0.126 C 
ATOM     25  C   UNL d   1      49.430  34.877  52.559  0.00  0.00     0.029 C 
ENDBRANCH  23  24
ENDBRANCH  21  23
ENDBRANCH  20  21
ENDBRANCH  19  20
ENDBRANCH   2  19
BRANCH   8  26
ATOM     26  N   UNL d   1      53.352  29.182  54.382  0.00  0.00    -0.300 N 
ATOM     27  C   UNL d   1      53.880  28.666  54.023  0.00  0.00     0.107 A 
ATOM     28  C   UNL d   1      54.085  27.955  54.395  0.00  0.00     0.142 A 
ATOM     29  O   UNL d   1      53.757  27.767  55.125  0.00  0.00    -0.300 OA
ATOM     30  C   UNL d   1      53.229  28.281  55.485  0.00  0.00     0.142 A 
ATOM     31  C   UNL d   1      53.026  28.985  55.119  0.00  0.00     0.107 A 
ENDBRANCH   8  26
TORSDOF 8
ENDMDL
MODEL 3
REMARK VINA RESULT:      -5.3      1.411      2.987
REMARK  8 active torsions:
REMARK  status: ('A' for Active; 'I' for Inactive)
REMARK    1  A    between atoms: C_11  and  N_1 
REMARK    2  A    between atoms: S_10  and  C_2 
REMARK    3  A    between atoms: N_8  and  C_9 
REMARK    4  A    between atoms: C_18  and  S_10 
REMARK    5  A    between atoms: C_19  and  C_11 
REMARK    6  A    between atoms: C_13  and  C_18 
REMARK    7  A    between atoms: O_20  and  C_13 
REMARK    8  A    between atoms: C_25  and  O_20 
ROOT
ATOM      1  N   UNL d   1      52.693  32.535  53.087  0.00  0.00    -0.253 N 
ATOM      2  C   UNL d   1      52.851  32.953  53.770  0.00  0.00     0.182 A 
ATOM      3  C   UNL d   1      52.039  32.743  52.611  0.00  0.00     0.268 A 
ATOM      4  C   UNL d   1      51.547  33.390  52.845  0.00  0.00     0.076 A 
ATOM      5  N   UNL d   1      52.358  33.599  54.004  0.00  0.00    -0.222 NA
ATOM      6  C   UNL d   1      51.711  33.811  53.540  0.00  0.00     0.088 A 
ATOM      7  C   UNL d   1      50.893  33.594  52.364  0.00  0.00     0.024 A 
ATOM      8  C   UNL d   1      50.415  34.226  52.596  0.00  0.00     0.065 A 
ATOM      9  O   UNL d   1      51.874  32.323  51.919  0.00  0.00    -0.267 OA
ATOM     10  C   UNL d   1      51.224  34.437  53.754  0.00  0.00     0.021 A 
ATOM     11  C   UNL d   1      50.575  34.650  53.290  0.00  0.00     0.019 A 
ENDROOT
BRANCH   1  12
ATOM     12  C   UNL d   1      53.172  31.906  52.860  0.00  0.00     0.085 C 
BRANCH  12  13
ATOM     13  C   UNL d   1      52.984  31.139  53.095  0.00  0.00     0.018 A 
ATOM     14  C   UNL d   1      52.212  30.873  53.035  0.00  0.00     0.002 A 
ATOM     15  C   UNL d   1      52.032  30.102  53.273  0.00  0.00     0.000 A 
ATOM     16  C   UNL d   1      52.624  29.612  53.565  0.00  0.00     0.000 A 
ATOM     17  C   UNL d   1      53.396  29.881  53.624  0.00  0.00     0.000 A 
ATOM     18  C   UNL d   1      53.576  30.649  53.387  0.00  0.00     0.002 A 
ENDBRANCH  12  13
ENDBRANCH   1  12
BRANCH   2  19
ATOM     19  S   UNL d   1      53.492  32.750  54.238  0.00  0.00    -0.044 SA
BRANCH  19  20
ATOM     20  C   UNL d   1      53.799  33.289  54.774  0.00  0.00     0.107 C 
BRANCH  20  21
ATOM     21  C   UNL d   1      54.408  33.069  55.294  0.00  0.00     0.307 C 
ATOM     22  O   UNL d   1      54.249  32.607  55.952  0.00  0.00    -0.258 OA
BRANCH  21  23
ATOM     23  O   UNL d   1      55.172  33.319  55.144  0.00  0.00    -0.271 OA
BRANCH  23  24
ATOM     24  C   UNL d   1      55.419  34.062  55.399  0.00  0.00     0.126 C 
ATOM     25  C   UNL d   1      55.921  34.522  54.923  0.00  0.00     0.029 C 
ENDBRANCH  23  24
ENDBRANCH  21  23
ENDBRANCH  20  21
ENDBRANCH  19  20
ENDBRANCH   2  19
BRANCH   8  26
ATOM     26  N   UNL d   1      49.769  34.435  52.130  0.00  0.00    -0.300 N 
ATOM     27  C   UNL d   1      49.775  34.281  51.323  0.00  0.00     0.107 A 
ATOM     28  C   UNL d   1      49.124  34.492  50.855  0.00  0.00     0.142 A 
ATOM     29  O   UNL d   1      48.473  34.856  51.200  0.00  0.00    -0.300 OA
ATOM     30  C   UNL d   1      48.467  35.010  52.006  0.00  0.00     0.142 A 
ATOM     31  C   UNL d   1      49.109  34.803  52.470  0.00  0.00     0.107 A 
ENDBRANCH   8  26
TORSDOF 8
ENDMDL
MODEL 4
REMARK VINA RESULT:      -4.9      1.543      4.823
REMARK  8 active torsions:
REMARK  status: ('A' for Active; 'I' for Inactive)
REMARK    1  A    between atoms: C_11  and  N_1 
REMARK    2  A    between atoms: S_10  and  C_2 
REMARK    3  A    between atoms: N_8  and  C_9 
REMARK    4  A    between atoms: C_18  and  S_10 
REMARK    5  A    between atoms: C_19  and  C_11 
REMARK    6  A    between atoms: C_13  and  C_18 
REMARK    7  A    between atoms: O_20  and  C_13 
REMARK    8  A    between atoms: C_25  and  O_20 
ROOT
ATOM      1  N   UNL d   1      52.109  33.763  52.959  0.00  0.00    -0.253 N 
ATOM      2  C   UNL d   1      51.309  33.614  52.900  0.00  0.00     0.182 A 
ATOM      3  C   UNL d   1      52.640  33.139  53.119  0.00  0.00     0.268 A 
ATOM      4  C   UNL d   1      52.338  32.355  53.219  0.00  0.00     0.076 A 
ATOM      5  N   UNL d   1      51.007  32.830  53.000  0.00  0.00    -0.222 NA
ATOM      6  C   UNL d   1      51.524  32.209  53.158  0.00  0.00     0.088 A 
ATOM      7  C   UNL d   1      52.875  31.733  53.379  0.00  0.00     0.024 A 
ATOM      8  C   UNL d   1      52.577  30.970  53.476  0.00  0.00     0.065 A 
ATOM      9  O   UNL d   1      53.451  33.284  53.180  0.00  0.00    -0.267 OA
ATOM     10  C   UNL d   1      51.246  31.442  53.257  0.00  0.00     0.021 A 
ATOM     11  C   UNL d   1      51.764  30.819  53.416  0.00  0.00     0.019 A 
ENDROOT
BRANCH   1  12
ATOM     12  C   UNL d   1      52.401  34.526  52.862  0.00  0.00     0.085 C 
BRANCH  12  13
ATOM     13  C   UNL d   1      52.710  34.934  53.508  0.00  0.00     0.018 A 
ATOM     14  C   UNL d   1      52.245  35.059  54.170  0.00  0.00     0.002 A 
ATOM     15  C   UNL d   1      52.563  35.470  54.813  0.00  0.00     0.000 A 
ATOM     16  C   UNL d   1      53.336  35.746  54.785  0.00  0.00     0.000 A 
ATOM     17  C   UNL d   1      53.800  35.619  54.120  0.00  0.00     0.000 A 
ATOM     18  C   UNL d   1      53.484  35.210  53.479  0.00  0.00     0.002 A 
ENDBRANCH  12  13
ENDBRANCH   1  12
BRANCH   2  19
ATOM     19  S   UNL d   1      50.786  34.225  52.743  0.00  0.00    -0.044 SA
BRANCH  19  20
ATOM     20  C   UNL d   1      50.038  34.063  52.449  0.00  0.00     0.107 C 
BRANCH  20  21
ATOM     21  C   UNL d   1      49.504  34.679  52.288  0.00  0.00     0.307 C 
ATOM     22  O   UNL d   1      49.272  35.196  52.880  0.00  0.00    -0.258 OA
BRANCH  21  23
ATOM     23  O   UNL d   1      49.211  34.767  51.529  0.00  0.00    -0.271 OA
BRANCH  23  24
ATOM     24  C   UNL d   1      48.423  34.974  51.415  0.00  0.00     0.126 C 
ATOM     25  C   UNL d   1      48.066  34.872  50.672  0.00  0.00     0.029 C 
ENDBRANCH  23  24
ENDBRANCH  21  23
ENDBRANCH  20  21
ENDBRANCH  19  20
ENDBRANCH   2  19
BRANCH   8  26
ATOM     26  N   UNL d   1      53.096  30.351  53.634  0.00  0.00    -0.300 N 
ATOM     27  C   UNL d   1      52.949  29.837  54.258  0.00  0.00     0.107 A 
ATOM     28  C   UNL d   1      53.473  29.215  54.416  0.00  0.00     0.142 A 
ATOM     29  O   UNL d   1      54.140  29.113  53.947  0.00  0.00    -0.300 OA
ATOM     30  C   UNL d   1      54.287  29.625  53.324  0.00  0.00     0.142 A 
ATOM     31  C   UNL d   1      53.771  30.241  53.165  0.00  0.00     0.107 A 
ENDBRANCH   8  26
TORSDOF 8
ENDMDL
