MODEL 1
REMARK VINA RESULT:      82.4      0.000      0.000
REMARK  6 active torsions:
REMARK  status: ('A' for Active; 'I' for Inactive)
REMARK    1  A    between atoms: N_8  and  C_1 
REMARK    2  A    between atoms: C_6  and  N_2 
REMARK       I    between atoms: C_12  and  N_8 
REMARK    3  A    between atoms: C_20  and  C_12 
REMARK    4  A    between atoms: O_24  and  C_13 
REMARK    5  A    between atoms: O_25  and  C_15 
REMARK    6  A    between atoms: C_19  and  C_20 
ROOT
ATOM      1  C   UNL d   1     -51.652  25.868  34.301  0.00  0.00     0.169 A 
ATOM      2  N   UNL d   1     -51.585  25.214  33.797  0.00  0.00    -0.212 N 
ATOM      3  C   UNL d   1     -51.004  26.372  34.165  0.00  0.00     0.065 A 
ATOM      4  N   UNL d   1     -50.895  25.313  33.349  0.00  0.00    -0.163 NA
ATOM      5  C   UNL d   1     -50.538  26.026  33.577  0.00  0.00     0.114 A 
ATOM      6  S   UNL d   1     -49.956  27.174  33.937  0.00  0.00     0.091 S 
ATOM      7  C   UNL d   1     -49.889  26.520  33.433  0.00  0.00     0.090 A 
ATOM      8  C   UNL d   1     -50.647  27.079  34.388  0.00  0.00     0.073 A 
ATOM      9  O   UNL d   1     -49.428  27.811  33.984  0.00  0.00    -0.247 OA
ENDROOT
BRANCH   1  10
ATOM     10  N   UNL d   1     -52.259  26.003  34.848  0.00  0.00    -0.189 NA
ATOM     11  C   UNL d   1     -52.098  26.029  35.651  0.00  0.00     0.281 C 
ATOM     12  O   UNL d   1     -51.315  25.919  35.925  0.00  0.00    -0.265 OA
BRANCH  11  13
ATOM     13  C   UNL d   1     -52.701  26.163  36.198  0.00  0.00     0.063 C 
BRANCH  13  14
ATOM     14  C   UNL d   1     -52.601  25.911  36.961  0.00  0.00     0.007 A 
ATOM     15  C   UNL d   1     -51.999  26.229  37.439  0.00  0.00     0.026 A 
ATOM     16  C   UNL d   1     -51.903  25.967  38.215  0.00  0.00     0.116 A 
ATOM     17  C   UNL d   1     -52.408  25.387  38.513  0.00  0.00     0.116 A 
ATOM     18  C   UNL d   1     -53.004  25.066  38.051  0.00  0.00     0.026 A 
ATOM     19  C   UNL d   1     -53.099  25.331  37.271  0.00  0.00     0.002 A 
BRANCH  16  20
ATOM     20  O   UNL d   1     -51.309  26.282  38.685  0.00  0.00    -0.326 OA
ATOM     21  C   UNL d   1     -50.977  27.012  38.496  0.00  0.00     0.181 C 
ENDBRANCH  16  20
BRANCH  17  22
ATOM     22  O   UNL d   1     -52.312  25.124  39.289  0.00  0.00    -0.326 OA
ATOM     23  C   UNL d   1     -52.861  24.612  39.629  0.00  0.00     0.181 C 
ENDBRANCH  17  22
ENDBRANCH  13  14
ENDBRANCH  11  13
ENDBRANCH   1  10
BRANCH   2  24
ATOM     24  C   UNL d   1     -52.109  24.578  33.748  0.00  0.00     0.085 A 
ATOM     25  C   UNL d   1     -52.894  24.713  33.552  0.00  0.00     0.018 A 
ATOM     26  C   UNL d   1     -53.417  24.077  33.503  0.00  0.00     0.002 A 
ATOM     27  C   UNL d   1     -53.156  25.476  33.405  0.00  0.00     0.002 C 
ATOM     28  C   UNL d   1     -54.199  24.208  33.308  0.00  0.00     0.000 C 
ATOM     29  C   UNL d   1     -53.142  23.314  33.653  0.00  0.00     0.000 A 
ATOM     30  C   UNL d   1     -52.356  23.195  33.847  0.00  0.00     0.002 A 
ATOM     31  C   UNL d   1     -51.834  23.814  33.898  0.00  0.00     0.019 A 
ENDBRANCH   2  24
TORSDOF 6
ENDMDL
MODEL 2
REMARK VINA RESULT:      83.4      0.738      1.181
REMARK  6 active torsions:
REMARK  status: ('A' for Active; 'I' for Inactive)
REMARK    1  A    between atoms: N_8  and  C_1 
REMARK    2  A    between atoms: C_6  and  N_2 
REMARK       I    between atoms: C_12  and  N_8 
REMARK    3  A    between atoms: C_20  and  C_12 
REMARK    4  A    between atoms: O_24  and  C_13 
REMARK    5  A    between atoms: O_25  and  C_15 
REMARK    6  A    between atoms: C_19  and  C_20 
ROOT
ATOM      1  C   UNL d   1     -50.955  26.437  34.246  0.00  0.00     0.169 A 
ATOM      2  N   UNL d   1     -50.984  25.814  33.701  0.00  0.00    -0.212 N 
ATOM      3  C   UNL d   1     -50.207  26.798  34.193  0.00  0.00     0.065 A 
ATOM      4  N   UNL d   1     -50.254  25.790  33.310  0.00  0.00    -0.163 NA
ATOM      5  C   UNL d   1     -49.777  26.396  33.615  0.00  0.00     0.114 A 
ATOM      6  S   UNL d   1     -49.000  27.370  34.098  0.00  0.00     0.091 S 
ATOM      7  C   UNL d   1     -49.029  26.747  33.553  0.00  0.00     0.090 A 
ATOM      8  C   UNL d   1     -49.730  27.398  34.492  0.00  0.00     0.073 A 
ATOM      9  O   UNL d   1     -48.357  27.876  34.229  0.00  0.00    -0.247 OA
ENDROOT
BRANCH   1  10
ATOM     10  N   UNL d   1     -51.564  26.666  34.759  0.00  0.00    -0.189 NA
ATOM     11  C   UNL d   1     -51.438  26.697  35.568  0.00  0.00     0.281 C 
ATOM     12  O   UNL d   1     -50.690  26.495  35.883  0.00  0.00    -0.265 OA
BRANCH  11  13
ATOM     13  C   UNL d   1     -52.043  26.925  36.081  0.00  0.00     0.063 C 
BRANCH  13  14
ATOM     14  C   UNL d   1     -52.077  26.592  36.818  0.00  0.00     0.007 A 
ATOM     15  C   UNL d   1     -51.554  26.830  37.418  0.00  0.00     0.026 A 
ATOM     16  C   UNL d   1     -51.594  26.487  38.167  0.00  0.00     0.116 A 
ATOM     17  C   UNL d   1     -52.159  25.904  38.316  0.00  0.00     0.116 A 
ATOM     18  C   UNL d   1     -52.680  25.661  37.731  0.00  0.00     0.026 A 
ATOM     19  C   UNL d   1     -52.637  26.008  36.980  0.00  0.00     0.002 A 
BRANCH  16  20
ATOM     20  O   UNL d   1     -51.077  26.724  38.757  0.00  0.00    -0.326 OA
ATOM     21  C   UNL d   1     -50.472  27.256  38.586  0.00  0.00     0.181 C 
ENDBRANCH  16  20
BRANCH  17  22
ATOM     22  O   UNL d   1     -52.201  25.560  39.064  0.00  0.00    -0.326 OA
ATOM     23  C   UNL d   1     -52.182  24.740  39.150  0.00  0.00     0.181 C 
ENDBRANCH  17  22
ENDBRANCH  13  14
ENDBRANCH  11  13
ENDBRANCH   1  10
BRANCH   2  24
ATOM     24  C   UNL d   1     -51.623  25.309  33.569  0.00  0.00     0.085 A 
ATOM     25  C   UNL d   1     -51.497  24.500  33.522  0.00  0.00     0.018 A 
ATOM     26  C   UNL d   1     -52.136  23.994  33.390  0.00  0.00     0.002 A 
ATOM     27  C   UNL d   1     -50.741  24.195  33.605  0.00  0.00     0.002 C 
ATOM     28  C   UNL d   1     -52.014  23.189  33.342  0.00  0.00     0.000 C 
ATOM     29  C   UNL d   1     -52.893  24.312  33.307  0.00  0.00     0.000 A 
ATOM     30  C   UNL d   1     -53.003  25.122  33.356  0.00  0.00     0.002 A 
ATOM     31  C   UNL d   1     -52.380  25.627  33.486  0.00  0.00     0.019 A 
ENDBRANCH   2  24
TORSDOF 6
ENDMDL
