MODEL 1
REMARK VINA RESULT:      -2.5      0.000      0.000
REMARK  1 active torsions:
REMARK  status: ('A' for Active; 'I' for Inactive)
REMARK    1  A    between atoms: C_2  and  N_1 
ROOT
ATOM      1  C   UNL d   1      58.392  -1.225  29.588  0.00  0.00     0.169 A 
ATOM      2  C   UNL d   1      59.184  -1.146  29.466  0.00  0.00     0.060 A 
ATOM      3  C   UNL d   1      59.619  -1.784  29.114  0.00  0.00     0.115 A 
ATOM      4  S   UNL d   1      60.400  -1.557  29.057  0.00  0.00    -0.068 SA
ATOM      5  C   UNL d   1      59.731  -0.551  29.610  0.00  0.00     0.011 A 
ATOM      6  N   UNL d   1      57.993  -1.895  29.384  0.00  0.00    -0.208 NA
ATOM      7  N   UNL d   1      59.235  -2.459  28.904  0.00  0.00    -0.220 NA
ATOM      8  C   UNL d   1      60.480  -0.809  29.356  0.00  0.00     0.031 A 
ATOM      9  C   UNL d   1      58.404  -2.557  29.025  0.00  0.00     0.165 A 
ATOM     10  C   UNL d   1      59.651   0.205  29.944  0.00  0.00     0.001 A 
ATOM     11  C   UNL d   1      61.133  -0.319  29.435  0.00  0.00     0.006 A 
ATOM     12  C   UNL d   1      58.014  -3.254  28.807  0.00  0.00     0.042 C 
ATOM     13  C   UNL d   1      60.320   0.682  30.015  0.00  0.00     0.000 A 
ATOM     14  C   UNL d   1      61.081   0.422  29.757  0.00  0.00     0.001 A 
ENDROOT
BRANCH   1  15
ATOM     15  N   UNL d   1      57.959  -0.609  29.931  0.00  0.00    -0.193 N 
ATOM     16  N   UNL d   1      57.859   0.131  29.600  0.00  0.00    -0.058 NA
ATOM     17  N   UNL d   1      57.389   0.593  30.116  0.00  0.00    -0.129 NA
ATOM     18  C   UNL d   1      57.199   0.125  30.771  0.00  0.00     0.122 A 
ATOM     19  C   UNL d   1      57.539  -0.606  30.671  0.00  0.00     0.105 A 
ATOM     20  C   UNL d   1      56.766   0.288  31.425  0.00  0.00     0.022 A 
ATOM     21  C   UNL d   1      57.462  -1.188  31.206  0.00  0.00     0.021 A 
ATOM     22  C   UNL d   1      57.019  -1.043  31.888  0.00  0.00     0.002 A 
ATOM     23  C   UNL d   1      56.669  -0.292  31.992  0.00  0.00     0.002 A 
ENDBRANCH   1  15
TORSDOF 1
ENDMDL
MODEL 2
REMARK VINA RESULT:       0.1      1.790      3.798
REMARK  1 active torsions:
REMARK  status: ('A' for Active; 'I' for Inactive)
REMARK    1  A    between atoms: C_2  and  N_1 
ROOT
ATOM      1  C   UNL d   1      58.848   0.394  31.107  0.00  0.00     0.169 A 
ATOM      2  C   UNL d   1      58.392   0.469  31.767  0.00  0.00     0.060 A 
ATOM      3  C   UNL d   1      58.762   0.617  32.516  0.00  0.00     0.115 A 
ATOM      4  S   UNL d   1      58.178   0.666  33.083  0.00  0.00    -0.068 SA
ATOM      5  C   UNL d   1      57.586   0.435  31.916  0.00  0.00     0.011 A 
ATOM      6  N   UNL d   1      59.651   0.456  31.132  0.00  0.00    -0.208 NA
ATOM      7  N   UNL d   1      59.563   0.681  32.558  0.00  0.00    -0.220 NA
ATOM      8  C   UNL d   1      57.458   0.557  32.729  0.00  0.00     0.031 A 
ATOM      9  C   UNL d   1      60.054   0.605  31.875  0.00  0.00     0.165 A 
ATOM     10  C   UNL d   1      56.936   0.307  31.415  0.00  0.00     0.001 A 
ATOM     11  C   UNL d   1      56.696   0.552  33.032  0.00  0.00     0.006 A 
ATOM     12  C   UNL d   1      60.879   0.673  31.924  0.00  0.00     0.042 C 
ATOM     13  C   UNL d   1      56.177   0.305  31.739  0.00  0.00     0.000 A 
ATOM     14  C   UNL d   1      56.046   0.429  32.564  0.00  0.00     0.001 A 
ENDROOT
BRANCH   1  15
ATOM     15  N   UNL d   1      58.496   0.250  30.371  0.00  0.00    -0.193 N 
ATOM     16  N   UNL d   1      57.877   0.681  30.059  0.00  0.00    -0.058 NA
ATOM     17  N   UNL d   1      57.682   0.363  29.309  0.00  0.00    -0.129 NA
ATOM     18  C   UNL d   1      58.191  -0.273  29.165  0.00  0.00     0.122 A 
ATOM     19  C   UNL d   1      58.690  -0.351  29.802  0.00  0.00     0.105 A 
ATOM     20  C   UNL d   1      58.247  -0.769  28.539  0.00  0.00     0.022 A 
ATOM     21  C   UNL d   1      59.249  -0.914  29.837  0.00  0.00     0.021 A 
ATOM     22  C   UNL d   1      59.325  -1.437  29.203  0.00  0.00     0.002 A 
ATOM     23  C   UNL d   1      58.813  -1.357  28.548  0.00  0.00     0.002 A 
ENDBRANCH   1  15
TORSDOF 1
ENDMDL
