MODEL 1
REMARK VINA RESULT:      26.0      0.000      0.000
REMARK  2 active torsions:
REMARK  status: ('A' for Active; 'I' for Inactive)
REMARK    1  A    between atoms: C_6  and  C_1 
REMARK       I    between atoms: C_7  and  N_8 
REMARK    2  A    between atoms: N_8  and  C_10 
ROOT
ATOM      1  C   UNL d   1     -56.356 -99.335 -44.417  0.00  0.00     0.025 A 
ATOM      2  C   UNL d   1     -56.063-100.056 -44.162  0.00  0.00     0.021 A 
ATOM      3  C   UNL d   1     -55.235-100.198 -44.174  0.00  0.00     0.085 A 
ATOM      4  C   UNL d   1     -55.821 -98.755 -44.684  0.00  0.00     0.002 A 
ATOM      5  C   UNL d   1     -55.038 -98.893 -44.694  0.00  0.00     0.002 A 
ATOM      6  C   UNL d   1     -54.712 -99.616 -44.441  0.00  0.00     0.019 A 
ENDROOT
BRANCH   1   7
ATOM      7  C   UNL d   1     -57.140 -99.203 -44.405  0.00  0.00     0.111 A 
ATOM      8  N   UNL d   1     -57.658 -99.128 -45.029  0.00  0.00    -0.239 NA
ATOM      9  C   UNL d   1     -58.418 -98.995 -44.704  0.00  0.00     0.088 A 
ATOM     10  C   UNL d   1     -59.157 -98.878 -45.069  0.00  0.00     0.020 A 
ATOM     11  C   UNL d   1     -58.338 -98.993 -43.883  0.00  0.00     0.049 A 
ATOM     12  C   UNL d   1     -59.816 -98.759 -44.606  0.00  0.00     0.002 A 
ATOM     13  C   UNL d   1     -59.731 -98.757 -43.747  0.00  0.00     0.001 A 
ATOM     14  C   UNL d   1     -58.995 -98.874 -43.414  0.00  0.00     0.008 A 
ATOM     15  S   UNL d   1     -57.529 -99.125 -43.712  0.00  0.00    -0.066 SA
ENDBRANCH   1   7
BRANCH   3  16
ATOM     16  N   UNL d   1     -54.949-100.949 -43.908  0.00  0.00    -0.208 NA
ATOM     17  C   UNL d   1     -54.987-101.590 -44.430  0.00  0.00     0.279 C 
ATOM     18  O   UNL d   1     -54.711-102.300 -44.164  0.00  0.00    -0.265 OA
ATOM     19  C   UNL d   1     -55.292-101.512 -45.186  0.00  0.00     0.068 C 
ENDBRANCH   3  16
TORSDOF 2
ENDMDL
MODEL 2
REMARK VINA RESULT:      27.5      2.060      4.133
REMARK  2 active torsions:
REMARK  status: ('A' for Active; 'I' for Inactive)
REMARK    1  A    between atoms: C_6  and  C_1 
REMARK       I    between atoms: C_7  and  N_8 
REMARK    2  A    between atoms: N_8  and  C_10 
ROOT
ATOM      1  C   UNL d   1     -58.252 -98.783 -44.475  0.00  0.00     0.025 A 
ATOM      2  C   UNL d   1     -58.686 -98.782 -43.780  0.00  0.00     0.021 A 
ATOM      3  C   UNL d   1     -59.526 -98.771 -43.811  0.00  0.00     0.085 A 
ATOM      4  C   UNL d   1     -58.658 -98.774 -45.202  0.00  0.00     0.002 A 
ATOM      5  C   UNL d   1     -59.452 -98.765 -45.228  0.00  0.00     0.002 A 
ATOM      6  C   UNL d   1     -59.919 -98.763 -44.538  0.00  0.00     0.019 A 
ENDROOT
BRANCH   1   7
ATOM      7  C   UNL d   1     -57.458 -98.793 -44.442  0.00  0.00     0.111 A 
ATOM      8  N   UNL d   1     -56.971 -98.803 -43.789  0.00  0.00    -0.239 NA
ATOM      9  C   UNL d   1     -56.182 -98.810 -44.069  0.00  0.00     0.088 A 
ATOM     10  C   UNL d   1     -55.456 -98.822 -43.661  0.00  0.00     0.020 A 
ATOM     11  C   UNL d   1     -56.214 -98.804 -44.893  0.00  0.00     0.049 A 
ATOM     12  C   UNL d   1     -54.762 -98.827 -44.086  0.00  0.00     0.002 A 
ATOM     13  C   UNL d   1     -54.795 -98.821 -44.948  0.00  0.00     0.001 A 
ATOM     14  C   UNL d   1     -55.520 -98.810 -45.323  0.00  0.00     0.008 A 
ATOM     15  S   UNL d   1     -57.022 -98.793 -45.111  0.00  0.00    -0.066 SA
ENDBRANCH   1   7
BRANCH   3  16
ATOM     16  N   UNL d   1     -59.959 -98.770 -43.084  0.00  0.00    -0.208 NA
ATOM     17  C   UNL d   1     -59.532 -98.769 -42.375  0.00  0.00     0.279 C 
ATOM     18  O   UNL d   1     -59.956 -98.768 -41.688  0.00  0.00    -0.265 OA
ATOM     19  C   UNL d   1     -58.713 -98.769 -42.364  0.00  0.00     0.068 C 
ENDBRANCH   3  16
TORSDOF 2
ENDMDL
