MODEL 1
REMARK VINA RESULT:      34.2      0.000      0.000
REMARK  1 active torsions:
REMARK  status: ('A' for Active; 'I' for Inactive)
REMARK    1  A    between atoms: C_9  and  C_2 
ROOT
ATOM      1  N   UNL d   1     -55.927-100.944 -44.625  0.00  0.00    -0.204 NA
ATOM      2  C   UNL d   1     -56.267-100.215 -44.433  0.00  0.00     0.107 A 
ATOM      3  C   UNL d   1     -55.146-101.113 -44.390  0.00  0.00     0.304 A 
ATOM      4  C   UNL d   1     -57.379 -99.316 -44.472  0.00  0.00     0.020 A 
ATOM      5  O   UNL d   1     -55.052 -99.819 -43.771  0.00  0.00    -0.299 OA
ATOM      6  C   UNL d   1     -57.033-100.049 -44.663  0.00  0.00     0.023 A 
ATOM      7  C   UNL d   1     -55.833 -99.650 -44.006  0.00  0.00     0.118 A 
ATOM      8  O   UNL d   1     -54.805-101.838 -44.579  0.00  0.00    -0.263 OA
ATOM      9  C   UNL d   1     -56.947 -98.758 -44.049  0.00  0.00     0.004 A 
ATOM     10  C   UNL d   1     -54.712-100.551 -43.964  0.00  0.00     0.185 A 
ATOM     11  C   UNL d   1     -56.177 -98.924 -43.817  0.00  0.00     0.026 A 
ENDROOT
BRANCH   4  12
ATOM     12  C   UNL d   1     -58.154 -99.156 -44.708  0.00  0.00     0.090 A 
ATOM     13  N   UNL d   1     -58.396 -99.047 -45.489  0.00  0.00    -0.219 NA
ATOM     14  C   UNL d   1     -59.212 -98.900 -45.475  0.00  0.00     0.215 A 
ATOM     15  S   UNL d   1     -59.464 -98.919 -44.691  0.00  0.00    -0.045 SA
ATOM     16  N   UNL d   1     -59.690 -98.758 -46.138  0.00  0.00    -0.120 N 
ATOM     17  C   UNL d   1     -58.806 -99.078 -44.215  0.00  0.00     0.058 A 
ENDBRANCH   4  12
TORSDOF 1
ENDMDL
