MODEL 1
REMARK VINA RESULT:      93.8      0.000      0.000
REMARK  9 active torsions:
REMARK  status: ('A' for Active; 'I' for Inactive)
REMARK    1  A    between atoms: C_5  and  C_1 
REMARK    2  A    between atoms: N_4  and  C_2 
REMARK       I    between atoms: C_3  and  N_4 
REMARK    3  A    between atoms: C_10  and  C_3 
REMARK    4  A    between atoms: N_6  and  C_5 
REMARK    5  A    between atoms: C_12  and  C_5 
REMARK    6  A    between atoms: C_14  and  N_6 
REMARK    7  A    between atoms: C_8  and  C_14 
REMARK    8  A    between atoms: O_17  and  C_8 
REMARK    9  A    between atoms: C_23  and  O_17 
ROOT
ATOM      1  C   UNL d   1      59.580  48.882  51.262  0.00  0.00     0.036 A 
ATOM      2  C   UNL d   1      58.913  49.102  50.854  0.00  0.00     0.086 A 
ATOM      3  C   UNL d   1      59.650  49.072  52.055  0.00  0.00     0.010 A 
ATOM      4  C   UNL d   1      58.303  49.515  51.226  0.00  0.00     0.020 A 
ATOM      5  C   UNL d   1      59.050  49.485  52.443  0.00  0.00     0.035 A 
ATOM      6  C   UNL d   1      58.360  49.707  52.005  0.00  0.00     0.008 A 
ATOM      7 BR   UNL d   1      59.123  49.679  53.256  0.00  0.00    -0.049 Br
ENDROOT
BRANCH   1   8
ATOM      8  C   UNL d   1      60.190  48.469  50.890  0.00  0.00     0.083 C 
BRANCH   8   9
ATOM      9  N   UNL d   1      60.251  47.659  50.947  0.00  0.00    -0.238 NA
BRANCH   9  10
ATOM     10  C   UNL d   1      60.765  47.269  50.424  0.00  0.00     0.167 C 
BRANCH  10  11
ATOM     11  C   UNL d   1      60.746  46.428  50.407  0.00  0.00     0.320 C 
ATOM     12  O   UNL d   1      60.199  46.026  50.914  0.00  0.00    -0.257 OA
BRANCH  11  13
ATOM     13  O   UNL d   1      61.245  45.995  49.913  0.00  0.00    -0.270 OA
BRANCH  13  14
ATOM     14  C   UNL d   1      61.961  45.758  50.174  0.00  0.00     0.126 C 
ATOM     15  C   UNL d   1      62.618  46.126  49.891  0.00  0.00     0.029 C 
ENDBRANCH  13  14
ENDBRANCH  11  13
ENDBRANCH  10  11
ENDBRANCH   9  10
ENDBRANCH   8   9
BRANCH   8  16
ATOM     16  C   UNL d   1      60.750  48.881  50.453  0.00  0.00     0.018 A 
ATOM     17  C   UNL d   1      61.361  49.291  50.825  0.00  0.00     0.002 A 
ATOM     18  C   UNL d   1      61.926  49.705  50.408  0.00  0.00     0.000 A 
ATOM     19  C   UNL d   1      61.872  49.706  49.553  0.00  0.00     0.000 A 
ATOM     20  C   UNL d   1      61.263  49.299  49.173  0.00  0.00     0.000 A 
ATOM     21  C   UNL d   1      60.704  48.887  49.620  0.00  0.00     0.002 A 
ENDBRANCH   8  16
ENDBRANCH   1   8
BRANCH   2  22
ATOM     22  N   UNL d   1      58.847  48.902  50.035  0.00  0.00    -0.208 NA
ATOM     23  C   UNL d   1      58.098  48.805  49.695  0.00  0.00     0.279 C 
ATOM     24  O   UNL d   1      58.036  48.614  48.914  0.00  0.00    -0.265 OA
BRANCH  23  25
ATOM     25  C   UNL d   1      57.416  48.898  50.137  0.00  0.00     0.058 A 
ATOM     26  C   UNL d   1      57.143  48.295  50.622  0.00  0.00     0.005 A 
ATOM     27  C   UNL d   1      56.453  48.407  51.061  0.00  0.00     0.000 A 
ATOM     28  C   UNL d   1      56.046  49.113  51.010  0.00  0.00     0.000 A 
ATOM     29  C   UNL d   1      56.318  49.706  50.530  0.00  0.00     0.000 A 
ATOM     30  C   UNL d   1      57.009  49.594  50.091  0.00  0.00     0.005 A 
ENDBRANCH  23  25
ENDBRANCH   2  22
TORSDOF 9
ENDMDL
