MODEL 1
REMARK VINA RESULT:      -2.7      0.000      0.000
REMARK  3 active torsions:
REMARK  status: ('A' for Active; 'I' for Inactive)
REMARK    1  A    between atoms: N_6  and  S_1 
REMARK    2  A    between atoms: C_11  and  S_1 
REMARK    3  A    between atoms: C_2  and  N_6 
ROOT
ATOM      1  C   UNL d   1      29.462  16.180 -24.134  0.00  0.00     0.106 A 
ATOM      2  C   UNL d   1      28.365  16.889 -23.632  0.00  0.00     0.110 A 
ATOM      3  C   UNL d   1      28.805  16.198 -23.669  0.00  0.00     0.090 A 
ATOM      4  C   UNL d   1      28.570  17.547 -24.045  0.00  0.00     0.217 A 
ATOM      5  C   UNL d   1      29.678  16.854 -24.561  0.00  0.00     0.035 A 
ATOM      6  C   UNL d   1      29.227  17.533 -24.511  0.00  0.00     0.099 A 
ATOM      7  O   UNL d   1      28.111  18.249 -23.999  0.00  0.00    -0.285 OA
ATOM      8 CL   UNL d   1      27.640  16.928 -23.128  0.00  0.00    -0.078 Cl
ATOM      9 CL   UNL d   1      28.580  15.516 -23.233  0.00  0.00    -0.080 Cl
ATOM     10 CL   UNL d   1      29.466  18.225 -24.962  0.00  0.00    -0.079 Cl
ENDROOT
BRANCH   1  11
ATOM     11  N   UNL d   1      29.902  15.489 -24.171  0.00  0.00    -0.158 NA
BRANCH  11  12
ATOM     12  S   UNL d   1      30.734  15.534 -24.234  0.00  0.00     0.285 S 
ATOM     13  O   UNL d   1      30.673  15.453 -25.057  0.00  0.00    -0.198 OA
ATOM     14  O   UNL d   1      30.793  15.618 -23.382  0.00  0.00    -0.198 OA
BRANCH  12  15
ATOM     15  C   UNL d   1      31.590  15.583 -24.276  0.00  0.00     0.105 A 
ATOM     16  C   UNL d   1      32.056  15.753 -23.602  0.00  0.00     0.013 A 
ATOM     17  C   UNL d   1      32.885  15.797 -23.657  0.00  0.00     0.001 A 
ATOM     18  C   UNL d   1      33.241  15.671 -24.390  0.00  0.00     0.000 A 
ATOM     19  C   UNL d   1      32.809  15.508 -25.049  0.00  0.00     0.001 A 
ATOM     20  C   UNL d   1      31.946  15.457 -25.009  0.00  0.00     0.013 A 
ENDBRANCH  12  15
ENDBRANCH  11  12
ENDBRANCH   1  11
TORSDOF 3
ENDMDL
MODEL 2
REMARK VINA RESULT:      -2.6      1.996      3.409
REMARK  3 active torsions:
REMARK  status: ('A' for Active; 'I' for Inactive)
REMARK    1  A    between atoms: N_6  and  S_1 
REMARK    2  A    between atoms: C_11  and  S_1 
REMARK    3  A    between atoms: C_2  and  N_6 
ROOT
ATOM      1  C   UNL d   1      31.596  16.517 -23.918  0.00  0.00     0.106 A 
ATOM      2  C   UNL d   1      32.562  17.428 -23.479  0.00  0.00     0.110 A 
ATOM      3  C   UNL d   1      32.214  16.687 -23.431  0.00  0.00     0.090 A 
ATOM      4  C   UNL d   1      32.307  17.986 -23.996  0.00  0.00     0.217 A 
ATOM      5  C   UNL d   1      31.329  17.087 -24.453  0.00  0.00     0.035 A 
ATOM      6  C   UNL d   1      31.689  17.820 -24.486  0.00  0.00     0.099 A 
ATOM      7  O   UNL d   1      32.672  18.741 -24.036  0.00  0.00    -0.285 OA
ATOM      8 CL   UNL d   1      33.241  17.635 -22.953  0.00  0.00    -0.078 Cl
ATOM      9 CL   UNL d   1      32.490  16.112 -22.885  0.00  0.00    -0.080 Cl
ATOM     10 CL   UNL d   1      31.398  18.401 -25.048  0.00  0.00    -0.079 Cl
ENDROOT
BRANCH   1  11
ATOM     11  N   UNL d   1      31.247  15.775 -23.871  0.00  0.00    -0.158 NA
BRANCH  11  12
ATOM     12  S   UNL d   1      30.414  15.711 -23.899  0.00  0.00     0.285 S 
ATOM     13  O   UNL d   1      30.452  15.629 -24.723  0.00  0.00    -0.198 OA
ATOM     14  O   UNL d   1      30.380  15.796 -23.046  0.00  0.00    -0.198 OA
BRANCH  12  15
ATOM     15  C   UNL d   1      29.559  15.647 -23.905  0.00  0.00     0.105 A 
ATOM     16  C   UNL d   1      29.132  15.512 -24.612  0.00  0.00     0.013 A 
ATOM     17  C   UNL d   1      28.302  15.453 -24.604  0.00  0.00     0.001 A 
ATOM     18  C   UNL d   1      27.906  15.528 -23.885  0.00  0.00     0.000 A 
ATOM     19  C   UNL d   1      28.300  15.658 -23.195  0.00  0.00     0.001 A 
ATOM     20  C   UNL d   1      29.163  15.723 -23.185  0.00  0.00     0.013 A 
ENDBRANCH  12  15
ENDBRANCH  11  12
ENDBRANCH   1  11
TORSDOF 3
ENDMDL
MODEL 3
REMARK VINA RESULT:      -2.5      3.369      4.261
REMARK  3 active torsions:
REMARK  status: ('A' for Active; 'I' for Inactive)
REMARK    1  A    between atoms: N_6  and  S_1 
REMARK    2  A    between atoms: C_11  and  S_1 
REMARK    3  A    between atoms: C_2  and  N_6 
ROOT
ATOM      1  C   UNL d   1      33.099  18.777 -23.881  0.00  0.00     0.106 A 
ATOM      2  C   UNL d   1      33.190  20.165 -23.734  0.00  0.00     0.110 A 
ATOM      3  C   UNL d   1      33.144  19.506 -24.220  0.00  0.00     0.090 A 
ATOM      4  C   UNL d   1      33.193  20.105 -22.933  0.00  0.00     0.217 A 
ATOM      5  C   UNL d   1      33.101  18.709 -23.058  0.00  0.00     0.035 A 
ATOM      6  C   UNL d   1      33.148  19.377 -22.591  0.00  0.00     0.099 A 
ATOM      7  O   UNL d   1      33.241  20.787 -22.446  0.00  0.00    -0.285 OA
ATOM      8 CL   UNL d   1      33.240  20.974 -24.086  0.00  0.00    -0.078 Cl
ATOM      9 CL   UNL d   1      33.142  19.582 -25.056  0.00  0.00    -0.080 Cl
ATOM     10 CL   UNL d   1      33.149  19.288 -21.736  0.00  0.00    -0.079 Cl
ENDROOT
BRANCH   1  11
ATOM     11  N   UNL d   1      33.052  18.117 -24.367  0.00  0.00    -0.158 NA
BRANCH  11  12
ATOM     12  S   UNL d   1      32.499  17.516 -24.192  0.00  0.00     0.285 S 
ATOM     13  O   UNL d   1      31.889  18.000 -24.479  0.00  0.00    -0.198 OA
ATOM     14  O   UNL d   1      33.132  17.019 -23.897  0.00  0.00    -0.198 OA
BRANCH  12  15
ATOM     15  C   UNL d   1      31.947  16.886 -24.004  0.00  0.00     0.105 A 
ATOM     16  C   UNL d   1      32.201  16.163 -23.668  0.00  0.00     0.013 A 
ATOM     17  C   UNL d   1      31.654  15.561 -23.491  0.00  0.00     0.001 A 
ATOM     18  C   UNL d   1      30.856  15.689 -23.654  0.00  0.00     0.000 A 
ATOM     19  C   UNL d   1      30.594  16.378 -23.977  0.00  0.00     0.001 A 
ATOM     20  C   UNL d   1      31.148  17.015 -24.167  0.00  0.00     0.013 A 
ENDBRANCH  12  15
ENDBRANCH  11  12
ENDBRANCH   1  11
TORSDOF 3
ENDMDL
MODEL 4
REMARK VINA RESULT:      -0.7      3.121      3.892
REMARK  3 active torsions:
REMARK  status: ('A' for Active; 'I' for Inactive)
REMARK    1  A    between atoms: N_6  and  S_1 
REMARK    2  A    between atoms: C_11  and  S_1 
REMARK    3  A    between atoms: C_2  and  N_6 
ROOT
ATOM      1  C   UNL d   1      32.203  17.479 -24.056  0.00  0.00     0.106 A 
ATOM      2  C   UNL d   1      30.979  16.948 -24.475  0.00  0.00     0.110 A 
ATOM      3  C   UNL d   1      31.559  17.524 -24.537  0.00  0.00     0.090 A 
ATOM      4  C   UNL d   1      31.034  16.343 -23.950  0.00  0.00     0.217 A 
ATOM      5  C   UNL d   1      32.266  16.859 -23.514  0.00  0.00     0.035 A 
ATOM      6  C   UNL d   1      31.677  16.294 -23.467  0.00  0.00     0.099 A 
ATOM      7  O   UNL d   1      30.434  15.758 -23.895  0.00  0.00    -0.285 OA
ATOM      8 CL   UNL d   1      30.264  16.979 -24.993  0.00  0.00    -0.078 Cl
ATOM      9 CL   UNL d   1      31.489  18.153 -25.089  0.00  0.00    -0.080 Cl
ATOM     10 CL   UNL d   1      31.759  15.655 -22.898  0.00  0.00    -0.079 Cl
ENDROOT
BRANCH   1  11
ATOM     11  N   UNL d   1      32.784  18.056 -24.118  0.00  0.00    -0.158 NA
BRANCH  11  12
ATOM     12  S   UNL d   1      32.877  18.614 -23.503  0.00  0.00     0.285 S 
ATOM     13  O   UNL d   1      32.525  19.194 -23.981  0.00  0.00    -0.198 OA
ATOM     14  O   UNL d   1      33.240  18.012 -23.012  0.00  0.00    -0.198 OA
BRANCH  12  15
ATOM     15  C   UNL d   1      32.981  19.171 -22.859  0.00  0.00     0.105 A 
ATOM     16  C   UNL d   1      33.132  18.917 -22.076  0.00  0.00     0.013 A 
ATOM     17  C   UNL d   1      33.231  19.468 -21.461  0.00  0.00     0.001 A 
ATOM     18  C   UNL d   1      33.178  20.272 -21.636  0.00  0.00     0.000 A 
ATOM     19  C   UNL d   1      33.034  20.535 -22.383  0.00  0.00     0.001 A 
ATOM     20  C   UNL d   1      32.929  19.975 -23.035  0.00  0.00     0.013 A 
ENDBRANCH  12  15
ENDBRANCH  11  12
ENDBRANCH   1  11
TORSDOF 3
ENDMDL
MODEL 5
REMARK VINA RESULT:      -0.5      5.356      5.869
REMARK  3 active torsions:
REMARK  status: ('A' for Active; 'I' for Inactive)
REMARK    1  A    between atoms: N_6  and  S_1 
REMARK    2  A    between atoms: C_11  and  S_1 
REMARK    3  A    between atoms: C_2  and  N_6 
ROOT
ATOM      1  C   UNL d   1      32.876  21.433 -22.242  0.00  0.00     0.106 A 
ATOM      2  C   UNL d   1      32.423  22.637 -21.693  0.00  0.00     0.110 A 
ATOM      3  C   UNL d   1      32.787  22.230 -22.305  0.00  0.00     0.090 A 
ATOM      4  C   UNL d   1      32.154  22.264 -21.034  0.00  0.00     0.217 A 
ATOM      5  C   UNL d   1      32.602  21.044 -21.567  0.00  0.00     0.035 A 
ATOM      6  C   UNL d   1      32.242  21.466 -20.968  0.00  0.00     0.099 A 
ATOM      7  O   UNL d   1      31.783  22.691 -20.414  0.00  0.00    -0.285 OA
ATOM      8 CL   UNL d   1      32.316  23.512 -21.743  0.00  0.00    -0.078 Cl
ATOM      9 CL   UNL d   1      33.064  22.632 -22.989  0.00  0.00    -0.080 Cl
ATOM     10 CL   UNL d   1      31.962  21.045 -20.273  0.00  0.00    -0.079 Cl
ENDROOT
BRANCH   1  11
ATOM     11  N   UNL d   1      33.241  21.025 -22.855  0.00  0.00    -0.158 NA
BRANCH  11  12
ATOM     12  S   UNL d   1      33.041  20.226 -22.992  0.00  0.00     0.285 S 
ATOM     13  O   UNL d   1      33.241  20.045 -22.207  0.00  0.00    -0.198 OA
ATOM     14  O   UNL d   1      32.836  20.417 -23.802  0.00  0.00    -0.198 OA
BRANCH  12  15
ATOM     15  C   UNL d   1      32.831  19.410 -23.154  0.00  0.00     0.105 A 
ATOM     16  C   UNL d   1      33.112  18.780 -22.680  0.00  0.00     0.013 A 
ATOM     17  C   UNL d   1      32.900  17.993 -22.848  0.00  0.00     0.001 A 
ATOM     18  C   UNL d   1      32.408  17.844 -23.493  0.00  0.00     0.000 A 
ATOM     19  C   UNL d   1      32.128  18.437 -23.959  0.00  0.00     0.001 A 
ATOM     20  C   UNL d   1      32.338  19.261 -23.798  0.00  0.00     0.013 A 
ENDBRANCH  12  15
ENDBRANCH  11  12
ENDBRANCH   1  11
TORSDOF 3
ENDMDL
MODEL 6
REMARK VINA RESULT:      -0.2      7.142      7.868
REMARK  3 active torsions:
REMARK  status: ('A' for Active; 'I' for Inactive)
REMARK    1  A    between atoms: N_6  and  S_1 
REMARK    2  A    between atoms: C_11  and  S_1 
REMARK    3  A    between atoms: C_2  and  N_6 
ROOT
ATOM      1  C   UNL d   1      32.237  22.864 -21.000  0.00  0.00     0.106 A 
ATOM      2  C   UNL d   1      32.480  22.262 -19.761  0.00  0.00     0.110 A 
ATOM      3  C   UNL d   1      32.316  22.934 -20.202  0.00  0.00     0.090 A 
ATOM      4  C   UNL d   1      32.563  21.539 -20.101  0.00  0.00     0.217 A 
ATOM      5  C   UNL d   1      32.321  22.123 -21.356  0.00  0.00     0.035 A 
ATOM      6  C   UNL d   1      32.485  21.465 -20.899  0.00  0.00     0.099 A 
ATOM      7  O   UNL d   1      32.731  20.859 -19.639  0.00  0.00    -0.285 OA
ATOM      8 CL   UNL d   1      32.571  22.318 -18.884  0.00  0.00    -0.078 Cl
ATOM      9 CL   UNL d   1      32.231  23.684 -19.835  0.00  0.00    -0.080 Cl
ATOM     10 CL   UNL d   1      32.570  20.702 -21.285  0.00  0.00    -0.079 Cl
ENDROOT
BRANCH   1  11
ATOM     11  N   UNL d   1      32.073  23.536 -21.443  0.00  0.00    -0.158 NA
BRANCH  11  12
ATOM     12  S   UNL d   1      32.228  23.536 -22.264  0.00  0.00     0.285 S 
ATOM     13  O   UNL d   1      33.040  23.469 -22.106  0.00  0.00    -0.198 OA
ATOM     14  O   UNL d   1      31.388  23.605 -22.422  0.00  0.00    -0.198 OA
BRANCH  12  15
ATOM     15  C   UNL d   1      32.366  23.538 -23.110  0.00  0.00     0.105 A 
ATOM     16  C   UNL d   1      33.121  23.380 -23.434  0.00  0.00     0.013 A 
ATOM     17  C   UNL d   1      33.241  23.385 -24.258  0.00  0.00     0.001 A 
ATOM     18  C   UNL d   1      32.600  23.548 -24.751  0.00  0.00     0.000 A 
ATOM     19  C   UNL d   1      31.867  23.702 -24.457  0.00  0.00     0.001 A 
ATOM     20  C   UNL d   1      31.725  23.701 -23.603  0.00  0.00     0.013 A 
ENDBRANCH  12  15
ENDBRANCH  11  12
ENDBRANCH   1  11
TORSDOF 3
ENDMDL
