MODEL 1
REMARK VINA RESULT:      -4.1      0.000      0.000
REMARK  5 active torsions:
REMARK  status: ('A' for Active; 'I' for Inactive)
REMARK    1  A    between atoms: C_2  and  S_1 
REMARK    2  A    between atoms: N_5  and  S_1 
REMARK    3  A    between atoms: O_18  and  C_4 
REMARK    4  A    between atoms: C_13  and  N_5 
REMARK    5  A    between atoms: C_11  and  C_13 
ROOT
ATOM      1  C   UNL d   1     -41.900-122.932 -50.298  0.00  0.00     0.128 A 
ATOM      2  C   UNL d   1     -41.397-123.318 -49.771  0.00  0.00     0.026 A 
ATOM      3  C   UNL d   1     -42.632-122.653 -50.039  0.00  0.00     0.106 A 
ATOM      4  C   UNL d   1     -41.626-123.426 -48.983  0.00  0.00     0.059 A 
ATOM      5  C   UNL d   1     -42.861-122.760 -49.251  0.00  0.00     0.026 A 
ATOM      6  C   UNL d   1     -42.357-123.147 -48.724  0.00  0.00     0.013 A 
ATOM      7 CL   UNL d   1     -41.123-123.812 -48.456  0.00  0.00    -0.082 Cl
ATOM      8  C   UNL d   1     -42.586-123.254 -47.937  0.00  0.00     0.001 C 
ENDROOT
BRANCH   1   9
ATOM      9  S   UNL d   1     -41.671-122.824 -51.085  0.00  0.00     0.287 S 
ATOM     10  O   UNL d   1     -41.974-123.570 -51.275  0.00  0.00    -0.198 OA
ATOM     11  O   UNL d   1     -41.369-122.080 -50.896  0.00  0.00    -0.198 OA
BRANCH   9  12
ATOM     12  N   UNL d   1     -41.443-122.717 -51.873  0.00  0.00    -0.155 NA
BRANCH  12  13
ATOM     13  C   UNL d   1     -41.569-123.317 -52.425  0.00  0.00     0.137 C 
BRANCH  13  14
ATOM     14  C   UNL d   1     -41.447-123.171 -53.230  0.00  0.00     0.120 A 
ATOM     15  O   UNL d   1     -41.152-123.709 -53.784  0.00  0.00    -0.304 OA
ATOM     16  C   UNL d   1     -41.123-123.332 -54.514  0.00  0.00     0.123 A 
ATOM     17  C   UNL d   1     -41.400-122.560 -54.416  0.00  0.00     0.029 A 
ATOM     18  C   UNL d   1     -41.598-122.464 -53.626  0.00  0.00     0.028 A 
ENDBRANCH  13  14
ENDBRANCH  12  13
ENDBRANCH   9  12
ENDBRANCH   1   9
BRANCH   3  19
ATOM     19  O   UNL d   1     -43.138-122.265 -50.567  0.00  0.00    -0.327 OA
ATOM     20  C   UNL d   1     -43.843-121.932 -50.294  0.00  0.00     0.181 C 
ENDBRANCH   3  19
TORSDOF 5
ENDMDL
MODEL 2
REMARK VINA RESULT:      -2.8      1.652      4.153
REMARK  5 active torsions:
REMARK  status: ('A' for Active; 'I' for Inactive)
REMARK    1  A    between atoms: C_2  and  S_1 
REMARK    2  A    between atoms: N_5  and  S_1 
REMARK    3  A    between atoms: O_18  and  C_4 
REMARK    4  A    between atoms: C_13  and  N_5 
REMARK    5  A    between atoms: C_11  and  C_13 
ROOT
ATOM      1  C   UNL d   1     -41.638-122.992 -52.096  0.00  0.00     0.128 A 
ATOM      2  C   UNL d   1     -41.804-123.521 -52.706  0.00  0.00     0.026 A 
ATOM      3  C   UNL d   1     -41.377-122.229 -52.272  0.00  0.00     0.106 A 
ATOM      4  C   UNL d   1     -41.707-123.288 -53.494  0.00  0.00     0.059 A 
ATOM      5  C   UNL d   1     -41.281-121.996 -53.060  0.00  0.00     0.026 A 
ATOM      6  C   UNL d   1     -41.446-122.526 -53.670  0.00  0.00     0.013 A 
ATOM      7 CL   UNL d   1     -41.872-123.817 -54.105  0.00  0.00    -0.082 Cl
ATOM      8  C   UNL d   1     -41.349-122.293 -54.458  0.00  0.00     0.001 C 
ENDROOT
BRANCH   1   9
ATOM      9  S   UNL d   1     -41.735-123.225 -51.308  0.00  0.00     0.287 S 
ATOM     10  O   UNL d   1     -41.123-123.774 -51.396  0.00  0.00    -0.198 OA
ATOM     11  O   UNL d   1     -42.346-122.676 -51.221  0.00  0.00    -0.198 OA
BRANCH   9  12
ATOM     12  N   UNL d   1     -41.831-123.458 -50.521  0.00  0.00    -0.155 NA
BRANCH  12  13
ATOM     13  C   UNL d   1     -42.410-123.102 -50.053  0.00  0.00     0.137 C 
BRANCH  13  14
ATOM     14  C   UNL d   1     -42.501-123.330 -49.263  0.00  0.00     0.120 A 
ATOM     15  O   UNL d   1     -41.920-123.300 -48.675  0.00  0.00    -0.304 OA
ATOM     16  C   UNL d   1     -42.249-123.579 -47.976  0.00  0.00     0.123 A 
ATOM     17  C   UNL d   1     -43.036-123.783 -48.127  0.00  0.00     0.029 A 
ATOM     18  C   UNL d   1     -43.188-123.629 -48.918  0.00  0.00     0.028 A 
ENDBRANCH  13  14
ENDBRANCH  12  13
ENDBRANCH   9  12
ENDBRANCH   1   9
BRANCH   3  19
ATOM     19  O   UNL d   1     -41.211-121.696 -51.660  0.00  0.00    -0.327 OA
ATOM     20  C   UNL d   1     -41.124-120.893 -51.825  0.00  0.00     0.181 C 
ENDBRANCH   3  19
TORSDOF 5
ENDMDL
MODEL 3
REMARK VINA RESULT:      -1.4      1.927      4.582
REMARK  5 active torsions:
REMARK  status: ('A' for Active; 'I' for Inactive)
REMARK    1  A    between atoms: C_2  and  S_1 
REMARK    2  A    between atoms: N_5  and  S_1 
REMARK    3  A    between atoms: O_18  and  C_4 
REMARK    4  A    between atoms: C_13  and  N_5 
REMARK    5  A    between atoms: C_11  and  C_13 
ROOT
ATOM      1  C   UNL d   1     -41.806-122.240 -53.621  0.00  0.00     0.128 A 
ATOM      2  C   UNL d   1     -42.163-121.498 -53.660  0.00  0.00     0.026 A 
ATOM      3  C   UNL d   1     -41.615-122.642 -54.315  0.00  0.00     0.106 A 
ATOM      4  C   UNL d   1     -42.328-121.156 -54.395  0.00  0.00     0.059 A 
ATOM      5  C   UNL d   1     -41.780-122.301 -55.050  0.00  0.00     0.026 A 
ATOM      6  C   UNL d   1     -42.137-121.558 -55.090  0.00  0.00     0.013 A 
ATOM      7 CL   UNL d   1     -42.685-120.413 -54.435  0.00  0.00    -0.082 Cl
ATOM      8  C   UNL d   1     -42.302-121.217 -55.825  0.00  0.00     0.001 C 
ENDROOT
BRANCH   1   9
ATOM      9  S   UNL d   1     -41.641-122.582 -52.886  0.00  0.00     0.287 S 
ATOM     10  O   UNL d   1     -42.158-123.204 -53.058  0.00  0.00    -0.198 OA
ATOM     11  O   UNL d   1     -41.125-121.960 -52.713  0.00  0.00    -0.198 OA
BRANCH   9  12
ATOM     12  N   UNL d   1     -41.476-122.923 -52.151  0.00  0.00    -0.155 NA
BRANCH  12  13
ATOM     13  C   UNL d   1     -41.496-122.462 -51.467  0.00  0.00     0.137 C 
BRANCH  13  14
ATOM     14  C   UNL d   1     -41.771-122.785 -50.758  0.00  0.00     0.120 A 
ATOM     15  O   UNL d   1     -41.572-123.526 -50.449  0.00  0.00    -0.304 OA
ATOM     16  C   UNL d   1     -41.970-123.621 -49.737  0.00  0.00     0.123 A 
ATOM     17  C   UNL d   1     -42.418-122.939 -49.600  0.00  0.00     0.029 A 
ATOM     18  C   UNL d   1     -42.293-122.428 -50.229  0.00  0.00     0.028 A 
ENDBRANCH  13  14
ENDBRANCH  12  13
ENDBRANCH   9  12
ENDBRANCH   1   9
BRANCH   3  19
ATOM     19  O   UNL d   1     -41.257-123.388 -54.277  0.00  0.00    -0.327 OA
ATOM     20  C   UNL d   1     -41.123-123.817 -54.969  0.00  0.00     0.181 C 
ENDBRANCH   3  19
TORSDOF 5
ENDMDL
