MODEL 1
REMARK VINA RESULT:      -2.0      0.000      0.000
REMARK  9 active torsions:
REMARK  status: ('A' for Active; 'I' for Inactive)
REMARK       I    between atoms: C_2  and  N_1 
REMARK    1  A    between atoms: C_3  and  C_2 
REMARK    2  A    between atoms: C_15  and  C_4 
REMARK       I    between atoms: C_5  and  N_9 
REMARK    3  A    between atoms: C_6  and  C_5 
REMARK       I    between atoms: N_21  and  C_6 
REMARK    4  A    between atoms: N_9  and  C_15 
REMARK    5  A    between atoms: C_25  and  N_21 
REMARK    6  A    between atoms: N_23  and  C_26 
REMARK    7  A    between atoms: C_27  and  N_23 
REMARK    8  A    between atoms: C_28  and  N_23 
REMARK    9  A    between atoms: C_26  and  C_25 
ROOT
ATOM      1  N   UNL d   1      59.788  -1.497  29.211  0.00  0.00    -0.250 N 
ATOM      2  C   UNL d   1      59.367  -2.208  29.260  0.00  0.00     0.266 C 
ATOM      3  C   UNL d   1      59.509  -0.739  29.391  0.00  0.00     0.190 A 
ATOM      4  O   UNL d   1      58.579  -2.199  29.513  0.00  0.00    -0.267 OA
ATOM      5  O   UNL d   1      60.111  -0.195  29.264  0.00  0.00    -0.285 OA
ATOM      6  C   UNL d   1      60.574  -1.407  28.971  0.00  0.00     0.112 A 
ATOM      7  C   UNL d   1      60.771  -0.609  29.004  0.00  0.00     0.144 A 
ENDROOT
BRANCH   3   8
ATOM      8  C   UNL d   1      58.739  -0.565  29.658  0.00  0.00     0.146 C 
BRANCH   8   9
ATOM      9  N   UNL d   1      58.628  -0.275  30.421  0.00  0.00    -0.199 NA
ATOM     10  C   UNL d   1      57.934   0.120  30.610  0.00  0.00     0.337 C 
ATOM     11  O   UNL d   1      57.342   0.229  30.042  0.00  0.00    -0.260 OA
BRANCH  10  12
ATOM     12  C   UNL d   1      57.823   0.411  31.373  0.00  0.00     0.337 C 
ATOM     13  O   UNL d   1      58.466   0.682  31.808  0.00  0.00    -0.260 OA
ATOM     14  N   UNL d   1      57.070   0.428  31.696  0.00  0.00    -0.201 NA
BRANCH  14  15
ATOM     15  C   UNL d   1      56.741   0.672  32.423  0.00  0.00     0.121 C 
BRANCH  15  16
ATOM     16  C   UNL d   1      56.096   0.293  32.764  0.00  0.00     0.101 C 
BRANCH  16  17
ATOM     17  N   UNL d   1      55.851   0.500  33.520  0.00  0.00    -0.301 N 
BRANCH  17  18
ATOM     18  C   UNL d   1      56.384   0.602  34.128  0.00  0.00     0.080 C 
ATOM     19  C   UNL d   1      56.134   0.650  34.922  0.00  0.00     0.021 C 
ENDBRANCH  17  18
BRANCH  17  20
ATOM     20  C   UNL d   1      55.028   0.610  33.669  0.00  0.00     0.080 C 
ATOM     21  C   UNL d   1      54.481   0.039  33.401  0.00  0.00     0.021 C 
ENDBRANCH  17  20
ENDBRANCH  16  17
ENDBRANCH  15  16
ENDBRANCH  14  15
ENDBRANCH  10  12
ENDBRANCH   8   9
ENDBRANCH   3   8
BRANCH   2  22
ATOM     22  C   UNL d   1      59.743  -2.912  29.055  0.00  0.00     0.059 A 
ATOM     23  C   UNL d   1      59.337  -3.619  29.023  0.00  0.00     0.031 A 
ATOM     24  C   UNL d   1      59.713  -4.324  28.818  0.00  0.00     0.119 A 
ATOM     25  O   UNL d   1      59.452  -5.100  28.743  0.00  0.00    -0.300 OA
ATOM     26  C   UNL d   1      60.531  -4.306  28.640  0.00  0.00     0.119 A 
ATOM     27  C   UNL d   1      60.107  -5.562  28.517  0.00  0.00     0.304 A 
ATOM     28  O   UNL d   1      60.761  -5.078  28.455  0.00  0.00    -0.300 OA
ATOM     29  C   UNL d   1      60.951  -3.596  28.669  0.00  0.00     0.026 A 
ATOM     30  C   UNL d   1      60.561  -2.900  28.875  0.00  0.00     0.007 A 
ENDBRANCH   2  22
TORSDOF 9
ENDMDL
