MODEL 1
REMARK VINA RESULT:      -6.2      0.000      0.000
REMARK  4 active torsions:
REMARK  status: ('A' for Active; 'I' for Inactive)
REMARK    1  A    between atoms: C_5  and  C_1 
REMARK    2  A    between atoms: C_9  and  C_6 
REMARK    3  A    between atoms: C_10  and  C_9 
REMARK    4  A    between atoms: C_11  and  C_10 
ROOT
ATOM      1  C   UNL d   1     -46.592  12.615  23.427  0.00  0.00     0.169 A 
ATOM      2  N   UNL d   1     -46.090  13.228  23.643  0.00  0.00    -0.142 NA
ATOM      3  C   UNL d   1     -47.218  12.940  22.995  0.00  0.00     0.048 A 
ATOM      4  N   UNL d   1     -46.395  13.935  23.350  0.00  0.00    -0.148 NA
ATOM      5  C   UNL d   1     -47.097  13.755  22.948  0.00  0.00     0.105 A 
ENDROOT
BRANCH   5   6
ATOM      6  C   UNL d   1     -47.589  14.308  22.564  0.00  0.00     0.021 C 
BRANCH   6   7
ATOM      7  C   UNL d   1     -48.286  14.559  22.918  0.00  0.00     0.002 C 
BRANCH   7   8
ATOM      8  C   UNL d   1     -48.726  15.166  22.580  0.00  0.00     0.000 C 
ATOM      9  C   UNL d   1     -49.476  15.344  22.880  0.00  0.00     0.000 C 
ENDBRANCH   7   8
ENDBRANCH   6   7
ENDBRANCH   5   6
BRANCH   1  10
ATOM     10  C   UNL d   1     -46.493  11.818  23.608  0.00  0.00     0.231 C 
ATOM     11  O   UNL d   1     -45.732  11.510  23.698  0.00  0.00    -0.643 OA
ATOM     12  O   UNL d   1     -47.151  11.326  23.698  0.00  0.00    -0.643 OA
ENDBRANCH   1  10
TORSDOF 4
ENDMDL
MODEL 2
REMARK VINA RESULT:      -5.9      1.995      2.426
REMARK  4 active torsions:
REMARK  status: ('A' for Active; 'I' for Inactive)
REMARK    1  A    between atoms: C_5  and  C_1 
REMARK    2  A    between atoms: C_9  and  C_6 
REMARK    3  A    between atoms: C_10  and  C_9 
REMARK    4  A    between atoms: C_11  and  C_10 
ROOT
ATOM      1  C   UNL d   1     -46.377  13.070  22.909  0.00  0.00     0.169 A 
ATOM      2  N   UNL d   1     -46.165  12.597  23.547  0.00  0.00    -0.142 NA
ATOM      3  C   UNL d   1     -47.130  12.835  22.659  0.00  0.00     0.048 A 
ATOM      4  N   UNL d   1     -46.778  12.068  23.698  0.00  0.00    -0.148 NA
ATOM      5  C   UNL d   1     -47.377  12.217  23.146  0.00  0.00     0.105 A 
ENDROOT
BRANCH   5   6
ATOM      6  C   UNL d   1     -48.102  11.807  23.097  0.00  0.00     0.021 C 
BRANCH   6   7
ATOM      7  C   UNL d   1     -48.798  12.163  23.352  0.00  0.00     0.002 C 
BRANCH   7   8
ATOM      8  C   UNL d   1     -49.516  11.769  23.276  0.00  0.00     0.000 C 
ATOM      9  C   UNL d   1     -50.175  12.036  23.697  0.00  0.00     0.000 C 
ENDBRANCH   7   8
ENDBRANCH   6   7
ENDBRANCH   5   6
BRANCH   1  10
ATOM     10  C   UNL d   1     -45.923  13.671  22.577  0.00  0.00     0.231 C 
ATOM     11  O   UNL d   1     -46.185  14.453  22.619  0.00  0.00    -0.643 OA
ATOM     12  O   UNL d   1     -45.208  13.494  22.202  0.00  0.00    -0.643 OA
ENDBRANCH   1  10
TORSDOF 4
ENDMDL
MODEL 3
REMARK VINA RESULT:      -5.6      2.537      3.123
REMARK  4 active torsions:
REMARK  status: ('A' for Active; 'I' for Inactive)
REMARK    1  A    between atoms: C_5  and  C_1 
REMARK    2  A    between atoms: C_9  and  C_6 
REMARK    3  A    between atoms: C_10  and  C_9 
REMARK    4  A    between atoms: C_11  and  C_10 
ROOT
ATOM      1  C   UNL d   1     -49.123  11.731  23.215  0.00  0.00     0.169 A 
ATOM      2  N   UNL d   1     -48.661  11.055  23.145  0.00  0.00    -0.142 NA
ATOM      3  C   UNL d   1     -48.616  12.374  23.329  0.00  0.00     0.048 A 
ATOM      4  N   UNL d   1     -47.869  11.269  23.214  0.00  0.00    -0.148 NA
ATOM      5  C   UNL d   1     -47.842  12.089  23.328  0.00  0.00     0.105 A 
ENDROOT
BRANCH   5   6
ATOM      6  C   UNL d   1     -47.147  12.541  23.425  0.00  0.00     0.021 C 
BRANCH   6   7
ATOM      7  C   UNL d   1     -46.785  12.890  22.775  0.00  0.00     0.002 C 
BRANCH   7   8
ATOM      8  C   UNL d   1     -46.165  13.420  22.882  0.00  0.00     0.000 C 
ATOM      9  C   UNL d   1     -45.588  13.497  22.296  0.00  0.00     0.000 C 
ENDBRANCH   7   8
ENDBRANCH   6   7
ENDBRANCH   5   6
BRANCH   1  10
ATOM     10  C   UNL d   1     -49.945  11.764  23.179  0.00  0.00     0.231 C 
ATOM     11  O   UNL d   1     -50.311  12.255  22.626  0.00  0.00    -0.643 OA
ATOM     12  O   UNL d   1     -50.404  11.309  23.695  0.00  0.00    -0.643 OA
ENDBRANCH   1  10
TORSDOF 4
ENDMDL
MODEL 4
REMARK VINA RESULT:      -5.3      2.702      3.741
REMARK  4 active torsions:
REMARK  status: ('A' for Active; 'I' for Inactive)
REMARK    1  A    between atoms: C_5  and  C_1 
REMARK    2  A    between atoms: C_9  and  C_6 
REMARK    3  A    between atoms: C_10  and  C_9 
REMARK    4  A    between atoms: C_11  and  C_10 
ROOT
ATOM      1  C   UNL d   1     -49.479  14.893  22.914  0.00  0.00     0.169 A 
ATOM      2  N   UNL d   1     -49.417  14.169  23.297  0.00  0.00    -0.142 NA
ATOM      3  C   UNL d   1     -48.721  15.116  22.668  0.00  0.00     0.048 A 
ATOM      4  N   UNL d   1     -48.626  13.936  23.294  0.00  0.00    -0.148 NA
ATOM      5  C   UNL d   1     -48.195  14.526  22.903  0.00  0.00     0.105 A 
ENDROOT
BRANCH   5   6
ATOM      6  C   UNL d   1     -47.371  14.516  22.773  0.00  0.00     0.021 C 
BRANCH   6   7
ATOM      7  C   UNL d   1     -46.969  13.802  22.708  0.00  0.00     0.002 C 
BRANCH   7   8
ATOM      8  C   UNL d   1     -46.151  13.794  22.629  0.00  0.00     0.000 C 
ATOM      9  C   UNL d   1     -45.759  13.077  22.502  0.00  0.00     0.000 C 
ENDBRANCH   7   8
ENDBRANCH   6   7
ENDBRANCH   5   6
BRANCH   1  10
ATOM     10  C   UNL d   1     -50.172  15.322  22.794  0.00  0.00     0.231 C 
ATOM     11  O   UNL d   1     -50.651  15.151  22.144  0.00  0.00    -0.643 OA
ATOM     12  O   UNL d   1     -50.387  15.921  23.321  0.00  0.00    -0.643 OA
ENDBRANCH   1  10
TORSDOF 4
ENDMDL
MODEL 5
REMARK VINA RESULT:      -4.9      2.967      3.904
REMARK  4 active torsions:
REMARK  status: ('A' for Active; 'I' for Inactive)
REMARK    1  A    between atoms: C_5  and  C_1 
REMARK    2  A    between atoms: C_9  and  C_6 
REMARK    3  A    between atoms: C_10  and  C_9 
REMARK    4  A    between atoms: C_11  and  C_10 
ROOT
ATOM      1  C   UNL d   1     -49.794  12.267  22.611  0.00  0.00     0.169 A 
ATOM      2  N   UNL d   1     -49.790  11.447  22.669  0.00  0.00    -0.142 NA
ATOM      3  C   UNL d   1     -49.105  12.551  22.970  0.00  0.00     0.048 A 
ATOM      4  N   UNL d   1     -49.104  11.215  23.063  0.00  0.00    -0.148 NA
ATOM      5  C   UNL d   1     -48.679  11.902  23.249  0.00  0.00     0.105 A 
ENDROOT
BRANCH   5   6
ATOM      6  C   UNL d   1     -47.948  11.924  23.650  0.00  0.00     0.021 C 
BRANCH   6   7
ATOM      7  C   UNL d   1     -47.255  11.713  23.261  0.00  0.00     0.002 C 
BRANCH   7   8
ATOM      8  C   UNL d   1     -46.525  11.856  23.612  0.00  0.00     0.000 C 
ATOM      9  C   UNL d   1     -45.985  11.236  23.698  0.00  0.00     0.000 C 
ENDBRANCH   7   8
ENDBRANCH   6   7
ENDBRANCH   5   6
BRANCH   1  10
ATOM     10  C   UNL d   1     -50.379  12.726  22.257  0.00  0.00     0.231 C 
ATOM     11  O   UNL d   1     -51.045  12.946  22.692  0.00  0.00    -0.643 OA
ATOM     12  O   UNL d   1     -50.301  12.967  21.470  0.00  0.00    -0.643 OA
ENDBRANCH   1  10
TORSDOF 4
ENDMDL
MODEL 6
REMARK VINA RESULT:      -4.9      9.206      9.960
REMARK  4 active torsions:
REMARK  status: ('A' for Active; 'I' for Inactive)
REMARK    1  A    between atoms: C_5  and  C_1 
REMARK    2  A    between atoms: C_9  and  C_6 
REMARK    3  A    between atoms: C_10  and  C_9 
REMARK    4  A    between atoms: C_11  and  C_10 
ROOT
ATOM      1  C   UNL d   1     -40.539  14.817  17.349  0.00  0.00     0.169 A 
ATOM      2  N   UNL d   1     -40.948  14.391  17.921  0.00  0.00    -0.142 NA
ATOM      3  C   UNL d   1     -39.757  14.548  17.343  0.00  0.00     0.048 A 
ATOM      4  N   UNL d   1     -40.428  13.857  18.273  0.00  0.00    -0.148 NA
ATOM      5  C   UNL d   1     -39.688  13.956  17.913  0.00  0.00     0.105 A 
ENDROOT
BRANCH   5   6
ATOM      6  C   UNL d   1     -38.998  13.527  18.101  0.00  0.00     0.021 C 
BRANCH   6   7
ATOM      7  C   UNL d   1     -38.776  12.879  17.647  0.00  0.00     0.002 C 
BRANCH   7   8
ATOM      8  C   UNL d   1     -38.032  12.542  17.744  0.00  0.00     0.000 C 
ATOM      9  C   UNL d   1     -37.940  11.724  17.665  0.00  0.00     0.000 C 
ENDBRANCH   7   8
ENDBRANCH   6   7
ENDBRANCH   5   6
BRANCH   1  10
ATOM     10  C   UNL d   1     -40.851  15.407  16.867  0.00  0.00     0.231 C 
ATOM     11  O   UNL d   1     -40.344  15.922  16.470  0.00  0.00    -0.643 OA
ATOM     12  O   UNL d   1     -41.670  15.484  16.779  0.00  0.00    -0.643 OA
ENDBRANCH   1  10
TORSDOF 4
ENDMDL
MODEL 7
REMARK VINA RESULT:      -4.4      8.861      9.452
REMARK  4 active torsions:
REMARK  status: ('A' for Active; 'I' for Inactive)
REMARK    1  A    between atoms: C_5  and  C_1 
REMARK    2  A    between atoms: C_9  and  C_6 
REMARK    3  A    between atoms: C_10  and  C_9 
REMARK    4  A    between atoms: C_11  and  C_10 
ROOT
ATOM      1  C   UNL d   1     -40.481  14.542  18.894  0.00  0.00     0.169 A 
ATOM      2  N   UNL d   1     -40.883  13.945  18.498  0.00  0.00    -0.142 NA
ATOM      3  C   UNL d   1     -39.922  14.860  18.373  0.00  0.00     0.048 A 
ATOM      4  N   UNL d   1     -40.581  13.886  17.733  0.00  0.00    -0.148 NA
ATOM      5  C   UNL d   1     -39.985  14.456  17.657  0.00  0.00     0.105 A 
ENDROOT
BRANCH   5   6
ATOM      6  C   UNL d   1     -39.530  14.590  16.971  0.00  0.00     0.021 C 
BRANCH   6   7
ATOM      7  C   UNL d   1     -38.944  14.057  16.750  0.00  0.00     0.002 C 
BRANCH   7   8
ATOM      8  C   UNL d   1     -38.475  14.208  16.092  0.00  0.00     0.000 C 
ATOM      9  C   UNL d   1     -37.940  13.635  15.831  0.00  0.00     0.000 C 
ENDBRANCH   7   8
ENDBRANCH   6   7
ENDBRANCH   5   6
BRANCH   1  10
ATOM     10  C   UNL d   1     -40.609  14.782  19.671  0.00  0.00     0.231 C 
ATOM     11  O   UNL d   1     -40.518  14.241  20.287  0.00  0.00    -0.643 OA
ATOM     12  O   UNL d   1     -40.828  15.562  19.835  0.00  0.00    -0.643 OA
ENDBRANCH   1  10
TORSDOF 4
ENDMDL
MODEL 8
REMARK VINA RESULT:      -4.4      2.090      3.245
REMARK  4 active torsions:
REMARK  status: ('A' for Active; 'I' for Inactive)
REMARK    1  A    between atoms: C_5  and  C_1 
REMARK    2  A    between atoms: C_9  and  C_6 
REMARK    3  A    between atoms: C_10  and  C_9 
REMARK    4  A    between atoms: C_11  and  C_10 
ROOT
ATOM      1  C   UNL d   1     -47.135  13.395  22.939  0.00  0.00     0.169 A 
ATOM      2  N   UNL d   1     -46.570  13.558  23.514  0.00  0.00    -0.142 NA
ATOM      3  C   UNL d   1     -46.741  13.290  22.220  0.00  0.00     0.048 A 
ATOM      4  N   UNL d   1     -45.826  13.556  23.160  0.00  0.00    -0.148 NA
ATOM      5  C   UNL d   1     -45.934  13.389  22.356  0.00  0.00     0.105 A 
ENDROOT
BRANCH   5   6
ATOM      6  C   UNL d   1     -45.325  13.333  21.788  0.00  0.00     0.021 C 
BRANCH   6   7
ATOM      7  C   UNL d   1     -44.639  12.912  21.956  0.00  0.00     0.002 C 
BRANCH   7   8
ATOM      8  C   UNL d   1     -44.078  12.785  21.368  0.00  0.00     0.000 C 
ATOM      9  C   UNL d   1     -43.282  12.700  21.573  0.00  0.00     0.000 C 
ENDBRANCH   7   8
ENDBRANCH   6   7
ENDBRANCH   5   6
BRANCH   1  10
ATOM     10  C   UNL d   1     -47.948  13.345  23.057  0.00  0.00     0.231 C 
ATOM     11  O   UNL d   1     -48.301  12.608  23.170  0.00  0.00    -0.643 OA
ATOM     12  O   UNL d   1     -48.411  14.030  23.062  0.00  0.00    -0.643 OA
ENDBRANCH   1  10
TORSDOF 4
ENDMDL
