MODEL 1
REMARK VINA RESULT:      80.9      0.000      0.000
REMARK  6 active torsions:
REMARK  status: ('A' for Active; 'I' for Inactive)
REMARK    1  A    between atoms: C_7  and  C_1 
REMARK    2  A    between atoms: C_19  and  N_2 
REMARK    3  A    between atoms: C_18  and  N_3 
REMARK    4  A    between atoms: C_13  and  C_9 
REMARK    5  A    between atoms: O_20  and  C_13 
REMARK    6  A    between atoms: C_23  and  O_20 
ROOT
ATOM      1  C   UNL d   1     -56.558-100.017 -44.035  0.00  0.00     0.013 A 
ATOM      2  C   UNL d   1     -56.327-100.650 -43.550  0.00  0.00     0.030 A 
ATOM      3  C   UNL d   1     -55.572-100.966 -43.603  0.00  0.00     0.163 A 
ATOM      4  O   UNL d   1     -55.026-100.654 -44.149  0.00  0.00    -0.302 OA
ATOM      5  C   UNL d   1     -56.021 -99.701 -44.580  0.00  0.00     0.023 A 
ATOM      6  C   UNL d   1     -55.254-100.021 -44.637  0.00  0.00     0.100 A 
ATOM      7  C   UNL d   1     -56.240 -99.071 -45.068  0.00  0.00     0.002 A 
ATOM      8  C   UNL d   1     -54.715 -99.702 -45.185  0.00  0.00     0.025 A 
ATOM      9  C   UNL d   1     -55.706 -98.756 -45.611  0.00  0.00     0.000 A 
ATOM     10  C   UNL d   1     -54.936 -99.075 -45.670  0.00  0.00     0.002 A 
ENDROOT
BRANCH   1  11
ATOM     11  C   UNL d   1     -57.317 -99.701 -43.979  0.00  0.00     0.113 A 
ATOM     12  C   UNL d   1     -57.801 -99.677 -44.650  0.00  0.00     0.271 A 
ATOM     13  N   UNL d   1     -58.558 -99.363 -44.599  0.00  0.00    -0.250 N 
ATOM     14  O   UNL d   1     -57.522 -99.969 -45.369  0.00  0.00    -0.266 OA
ATOM     15  C   UNL d   1     -58.835 -99.073 -43.881  0.00  0.00     0.196 A 
ATOM     16  N   UNL d   1     -58.351 -99.097 -43.210  0.00  0.00    -0.250 N 
ATOM     17  S   UNL d   1     -59.598 -98.755 -43.826  0.00  0.00    -0.039 SA
ATOM     18  C   UNL d   1     -57.587 -99.412 -43.254  0.00  0.00     0.271 A 
ATOM     19  O   UNL d   1     -57.105 -99.436 -42.586  0.00  0.00    -0.266 OA
BRANCH  13  20
ATOM     20  C   UNL d   1     -59.041 -99.339 -45.266  0.00  0.00     0.085 C 
ATOM     21  C   UNL d   1     -58.705 -99.322 -46.016  0.00  0.00     0.021 C 
ENDBRANCH  13  20
BRANCH  16  22
ATOM     22  C   UNL d   1     -58.634 -98.804 -42.491  0.00  0.00     0.085 C 
ATOM     23  C   UNL d   1     -59.416 -98.933 -42.268  0.00  0.00     0.021 C 
ENDBRANCH  16  22
ENDBRANCH   1  11
BRANCH   3  24
ATOM     24  C   UNL d   1     -55.352-101.592 -43.119  0.00  0.00     0.323 C 
ATOM     25  O   UNL d   1     -55.502-102.367 -43.357  0.00  0.00    -0.257 OA
BRANCH  24  26
ATOM     26  O   UNL d   1     -54.984-101.447 -42.399  0.00  0.00    -0.270 OA
BRANCH  26  27
ATOM     27  C   UNL d   1     -55.023-102.007 -41.796  0.00  0.00     0.126 C 
ATOM     28  C   UNL d   1     -54.885-101.786 -41.015  0.00  0.00     0.029 C 
ENDBRANCH  26  27
ENDBRANCH  24  26
ENDBRANCH   3  24
TORSDOF 6
ENDMDL
