MODEL 1
REMARK VINA RESULT:      34.0      0.000      0.000
REMARK  3 active torsions:
REMARK  status: ('A' for Active; 'I' for Inactive)
REMARK    1  A    between atoms: C_6  and  C_1 
REMARK    2  A    between atoms: O_19  and  C_9 
REMARK    3  A    between atoms: O_20  and  C_13 
ROOT
ATOM      1  C   UNL d   1      14.361  13.213  -2.115  0.00  0.00     0.064 A 
ATOM      2  C   UNL d   1      14.489  14.032  -2.057  0.00  0.00     0.007 A 
ATOM      3  C   UNL d   1      14.578  12.714  -1.483  0.00  0.00     0.300 A 
ATOM      4  C   UNL d   1      14.830  14.353  -1.376  0.00  0.00     0.026 A 
ATOM      5  O   UNL d   1      14.924  13.032  -0.791  0.00  0.00    -0.273 OA
ATOM      6  C   UNL d   1      15.047  13.854  -0.745  0.00  0.00     0.103 A 
ATOM      7  O   UNL d   1      14.451  11.899  -1.539  0.00  0.00    -0.259 OA
ATOM      8  C   UNL d   1      14.960  15.166  -1.312  0.00  0.00     0.044 A 
ATOM      9  C   UNL d   1      15.386  14.170  -0.067  0.00  0.00     0.028 A 
ATOM     10  C   UNL d   1      15.296  15.475  -0.640  0.00  0.00     0.196 A 
ATOM     11  C   UNL d   1      14.277  14.520  -2.676  0.00  0.00     0.000 C 
ATOM     12  C   UNL d   1      15.511  14.982  -0.015  0.00  0.00     0.044 A 
ATOM     13  O   UNL d   1      15.423  16.290  -0.584  0.00  0.00    -0.287 OA
ENDROOT
BRANCH   1  14
ATOM     14  C   UNL d   1      14.021  12.895  -2.794  0.00  0.00     0.007 A 
ATOM     15  C   UNL d   1      13.577  13.376  -3.293  0.00  0.00     0.026 A 
ATOM     16  C   UNL d   1      13.236  13.067  -3.970  0.00  0.00     0.116 A 
ATOM     17  C   UNL d   1      13.337  12.269  -4.154  0.00  0.00     0.116 A 
ATOM     18  C   UNL d   1      13.785  11.779  -3.653  0.00  0.00     0.026 A 
ATOM     19  C   UNL d   1      14.124  12.105  -2.972  0.00  0.00     0.002 A 
BRANCH  16  20
ATOM     20  O   UNL d   1      12.791  13.541  -4.475  0.00  0.00    -0.326 OA
ATOM     21  C   UNL d   1      12.925  14.355  -4.490  0.00  0.00     0.181 C 
ENDBRANCH  16  20
BRANCH  17  22
ATOM     22  O   UNL d   1      13.001  11.943  -4.832  0.00  0.00    -0.326 OA
ATOM     23  C   UNL d   1      13.409  12.006  -5.553  0.00  0.00     0.181 C 
ENDBRANCH  17  22
ENDBRANCH   1  14
TORSDOF 3
ENDMDL
MODEL 2
REMARK VINA RESULT:      34.0      1.279      2.066
REMARK  3 active torsions:
REMARK  status: ('A' for Active; 'I' for Inactive)
REMARK    1  A    between atoms: C_6  and  C_1 
REMARK    2  A    between atoms: O_19  and  C_9 
REMARK    3  A    between atoms: O_20  and  C_13 
ROOT
ATOM      1  C   UNL d   1      13.762  12.818  -2.721  0.00  0.00     0.064 A 
ATOM      2  C   UNL d   1      14.385  13.161  -2.291  0.00  0.00     0.007 A 
ATOM      3  C   UNL d   1      13.389  12.131  -2.432  0.00  0.00     0.300 A 
ATOM      4  C   UNL d   1      14.635  12.823  -1.580  0.00  0.00     0.026 A 
ATOM      5  O   UNL d   1      13.638  11.783  -1.713  0.00  0.00    -0.273 OA
ATOM      6  C   UNL d   1      14.263  12.136  -1.291  0.00  0.00     0.103 A 
ATOM      7  O   UNL d   1      12.769  11.787  -2.859  0.00  0.00    -0.259 OA
ATOM      8  C   UNL d   1      15.254  13.158  -1.147  0.00  0.00     0.044 A 
ATOM      9  C   UNL d   1      14.509  11.798  -0.585  0.00  0.00     0.028 A 
ATOM     10  C   UNL d   1      15.496  12.821  -0.448  0.00  0.00     0.196 A 
ATOM     11  C   UNL d   1      14.750  13.834  -2.573  0.00  0.00     0.000 C 
ATOM     12  C   UNL d   1      15.127  12.141  -0.163  0.00  0.00     0.044 A 
ATOM     13  O   UNL d   1      16.116  13.163  -0.022  0.00  0.00    -0.287 OA
ENDROOT
BRANCH   1  14
ATOM     14  C   UNL d   1      13.514  13.156  -3.429  0.00  0.00     0.007 A 
ATOM     15  C   UNL d   1      13.497  12.701  -4.116  0.00  0.00     0.026 A 
ATOM     16  C   UNL d   1      13.251  13.031  -4.824  0.00  0.00     0.116 A 
ATOM     17  C   UNL d   1      13.019  13.822  -4.851  0.00  0.00     0.116 A 
ATOM     18  C   UNL d   1      13.035  14.285  -4.160  0.00  0.00     0.026 A 
ATOM     19  C   UNL d   1      13.285  13.939  -3.451  0.00  0.00     0.002 A 
BRANCH  16  20
ATOM     20  O   UNL d   1      13.231  12.584  -5.515  0.00  0.00    -0.326 OA
ATOM     21  C   UNL d   1      13.634  11.865  -5.544  0.00  0.00     0.181 C 
ENDBRANCH  16  20
BRANCH  17  22
ATOM     22  O   UNL d   1      12.770  14.168  -5.556  0.00  0.00    -0.326 OA
ATOM     23  C   UNL d   1      12.998  14.950  -5.721  0.00  0.00     0.181 C 
ENDBRANCH  17  22
ENDBRANCH   1  14
TORSDOF 3
ENDMDL
