MODEL 1
REMARK VINA RESULT:      -8.1      0.000      0.000
REMARK  7 active torsions:
REMARK  status: ('A' for Active; 'I' for Inactive)
REMARK    1  A    between atoms: C_6  and  N_1 
REMARK    2  A    between atoms: C_7  and  C_6 
REMARK    3  A    between atoms: O_10  and  C_7 
REMARK    4  A    between atoms: C_13  and  O_10 
REMARK    5  A    between atoms: C_14  and  C_13 
REMARK    6  A    between atoms: C_16  and  C_14 
REMARK    7  A    between atoms: C_15  and  C_16 
ROOT
ATOM      1  N   UNL d   1      53.196  33.254  53.461  0.00  0.00    -0.246 N 
ATOM      2  C   UNL d   1      52.552  33.777  53.538  0.00  0.00     0.378 A 
ATOM      3  O   UNL d   1      52.693  34.264  54.195  0.00  0.00    -0.258 OA
ATOM      4  C   UNL d   1      53.730  33.422  54.069  0.00  0.00     0.092 A 
ATOM      5  C   UNL d   1      53.419  34.046  54.522  0.00  0.00     0.121 A 
ATOM      6  O   UNL d   1      51.895  33.796  53.042  0.00  0.00    -0.237 OA
ATOM      7  C   UNL d   1      54.461  33.088  54.271  0.00  0.00     0.020 A 
ATOM      8  C   UNL d   1      53.847  34.329  55.176  0.00  0.00     0.026 A 
ATOM      9  C   UNL d   1      54.876  33.378  54.923  0.00  0.00     0.002 A 
ATOM     10  C   UNL d   1      54.571  33.995  55.372  0.00  0.00     0.002 A 
ENDROOT
BRANCH   1  11
ATOM     11  C   UNL d   1      53.321  32.663  52.898  0.00  0.00     0.154 C 
BRANCH  11  12
ATOM     12  C   UNL d   1      52.833  32.009  52.879  0.00  0.00     0.318 C 
ATOM     13  O   UNL d   1      52.078  32.064  52.546  0.00  0.00    -0.257 OA
BRANCH  12  14
ATOM     14  O   UNL d   1      53.093  31.291  53.192  0.00  0.00    -0.270 OA
BRANCH  14  15
ATOM     15  C   UNL d   1      52.848  30.507  53.138  0.00  0.00     0.126 C 
BRANCH  15  16
ATOM     16  C   UNL d   1      53.319  29.903  53.438  0.00  0.00     0.027 C 
BRANCH  16  17
ATOM     17  C   UNL d   1      53.046  29.423  54.050  0.00  0.00     0.002 C 
BRANCH  17  18
ATOM     18  C   UNL d   1      53.547  28.875  54.402  0.00  0.00     0.000 C 
ATOM     19  C   UNL d   1      53.387  28.603  55.160  0.00  0.00     0.000 C 
ENDBRANCH  17  18
ENDBRANCH  16  17
ENDBRANCH  15  16
ENDBRANCH  14  15
ENDBRANCH  12  14
ENDBRANCH  11  12
ENDBRANCH   1  11
TORSDOF 7
ENDMDL
MODEL 2
REMARK VINA RESULT:      -7.9      2.133      3.997
REMARK  7 active torsions:
REMARK  status: ('A' for Active; 'I' for Inactive)
REMARK    1  A    between atoms: C_6  and  N_1 
REMARK    2  A    between atoms: C_7  and  C_6 
REMARK    3  A    between atoms: O_10  and  C_7 
REMARK    4  A    between atoms: C_13  and  O_10 
REMARK    5  A    between atoms: C_14  and  C_13 
REMARK    6  A    between atoms: C_16  and  C_14 
REMARK    7  A    between atoms: C_15  and  C_16 
ROOT
ATOM      1  N   UNL d   1      52.782  33.182  53.578  0.00  0.00    -0.246 N 
ATOM      2  C   UNL d   1      53.060  32.585  53.069  0.00  0.00     0.378 A 
ATOM      3  O   UNL d   1      53.837  32.397  53.293  0.00  0.00    -0.258 OA
ATOM      4  C   UNL d   1      53.388  33.360  54.112  0.00  0.00     0.092 A 
ATOM      5  C   UNL d   1      54.039  32.874  53.935  0.00  0.00     0.121 A 
ATOM      6  O   UNL d   1      52.629  32.246  52.455  0.00  0.00    -0.237 OA
ATOM      7  C   UNL d   1      53.433  33.901  54.737  0.00  0.00     0.020 A 
ATOM      8  C   UNL d   1      54.732  32.938  54.390  0.00  0.00     0.026 A 
ATOM      9  C   UNL d   1      54.126  33.955  55.181  0.00  0.00     0.002 A 
ATOM     10  C   UNL d   1      54.771  33.476  55.009  0.00  0.00     0.002 A 
ENDROOT
BRANCH   1  11
ATOM     11  C   UNL d   1      52.046  33.558  53.586  0.00  0.00     0.154 C 
BRANCH  11  12
ATOM     12  C   UNL d   1      51.817  34.019  52.952  0.00  0.00     0.318 C 
ATOM     13  O   UNL d   1      52.343  34.566  52.626  0.00  0.00    -0.257 OA
BRANCH  12  14
ATOM     14  O   UNL d   1      51.060  33.938  52.636  0.00  0.00    -0.270 OA
BRANCH  14  15
ATOM     15  C   UNL d   1      50.396  34.422  52.577  0.00  0.00     0.126 C 
BRANCH  15  16
ATOM     16  C   UNL d   1      49.826  34.277  52.003  0.00  0.00     0.027 C 
BRANCH  16  17
ATOM     17  C   UNL d   1      49.155  34.754  51.947  0.00  0.00     0.002 C 
BRANCH  17  18
ATOM     18  C   UNL d   1      48.707  34.760  51.258  0.00  0.00     0.000 C 
ATOM     19  C   UNL d   1      47.963  35.107  51.258  0.00  0.00     0.000 C 
ENDBRANCH  17  18
ENDBRANCH  16  17
ENDBRANCH  15  16
ENDBRANCH  14  15
ENDBRANCH  12  14
ENDBRANCH  11  12
ENDBRANCH   1  11
TORSDOF 7
ENDMDL
MODEL 3
REMARK VINA RESULT:      -7.6      1.127      2.159
REMARK  7 active torsions:
REMARK  status: ('A' for Active; 'I' for Inactive)
REMARK    1  A    between atoms: C_6  and  N_1 
REMARK    2  A    between atoms: C_7  and  C_6 
REMARK    3  A    between atoms: O_10  and  C_7 
REMARK    4  A    between atoms: C_13  and  O_10 
REMARK    5  A    between atoms: C_14  and  C_13 
REMARK    6  A    between atoms: C_16  and  C_14 
REMARK    7  A    between atoms: C_15  and  C_16 
ROOT
ATOM      1  N   UNL d   1      53.235  33.811  53.603  0.00  0.00    -0.246 N 
ATOM      2  C   UNL d   1      53.316  34.359  54.224  0.00  0.00     0.378 A 
ATOM      3  O   UNL d   1      52.630  34.826  54.247  0.00  0.00    -0.258 OA
ATOM      4  C   UNL d   1      52.500  33.943  53.246  0.00  0.00     0.092 A 
ATOM      5  C   UNL d   1      52.128  34.570  53.645  0.00  0.00     0.121 A 
ATOM      6  O   UNL d   1      53.969  34.417  54.722  0.00  0.00    -0.237 OA
ATOM      7  C   UNL d   1      52.121  33.573  52.609  0.00  0.00     0.020 A 
ATOM      8  C   UNL d   1      51.374  34.821  53.398  0.00  0.00     0.026 A 
ATOM      9  C   UNL d   1      51.373  33.831  52.375  0.00  0.00     0.002 A 
ATOM     10  C   UNL d   1      51.002  34.451  52.767  0.00  0.00     0.002 A 
ENDROOT
BRANCH   1  11
ATOM     11  C   UNL d   1      53.762  33.227  53.352  0.00  0.00     0.154 C 
BRANCH  11  12
ATOM     12  C   UNL d   1      53.950  32.607  53.850  0.00  0.00     0.318 C 
ATOM     13  O   UNL d   1      54.475  32.723  54.476  0.00  0.00    -0.257 OA
BRANCH  12  14
ATOM     14  O   UNL d   1      53.614  31.864  53.727  0.00  0.00    -0.270 OA
BRANCH  14  15
ATOM     15  C   UNL d   1      53.890  31.087  53.745  0.00  0.00     0.126 C 
BRANCH  15  16
ATOM     16  C   UNL d   1      53.360  30.459  53.754  0.00  0.00     0.027 C 
BRANCH  16  17
ATOM     17  C   UNL d   1      53.616  29.696  53.933  0.00  0.00     0.002 C 
BRANCH  17  18
ATOM     18  C   UNL d   1      53.131  29.183  54.354  0.00  0.00     0.000 C 
ATOM     19  C   UNL d   1      53.460  28.549  54.759  0.00  0.00     0.000 C 
ENDBRANCH  17  18
ENDBRANCH  16  17
ENDBRANCH  15  16
ENDBRANCH  14  15
ENDBRANCH  12  14
ENDBRANCH  11  12
ENDBRANCH   1  11
TORSDOF 7
ENDMDL
MODEL 4
REMARK VINA RESULT:      -7.5      1.854      4.167
REMARK  7 active torsions:
REMARK  status: ('A' for Active; 'I' for Inactive)
REMARK    1  A    between atoms: C_6  and  N_1 
REMARK    2  A    between atoms: C_7  and  C_6 
REMARK    3  A    between atoms: O_10  and  C_7 
REMARK    4  A    between atoms: C_13  and  O_10 
REMARK    5  A    between atoms: C_14  and  C_13 
REMARK    6  A    between atoms: C_16  and  C_14 
REMARK    7  A    between atoms: C_15  and  C_16 
ROOT
ATOM      1  N   UNL d   1      53.310  32.524  53.399  0.00  0.00    -0.246 N 
ATOM      2  C   UNL d   1      53.957  32.637  53.911  0.00  0.00     0.378 A 
ATOM      3  O   UNL d   1      54.233  31.890  54.146  0.00  0.00    -0.258 OA
ATOM      4  C   UNL d   1      53.191  31.710  53.321  0.00  0.00     0.092 A 
ATOM      5  C   UNL d   1      53.761  31.319  53.782  0.00  0.00     0.121 A 
ATOM      6  O   UNL d   1      54.261  33.367  54.138  0.00  0.00    -0.237 OA
ATOM      7  C   UNL d   1      52.636  31.271  52.889  0.00  0.00     0.020 A 
ATOM      8  C   UNL d   1      53.769  30.487  53.805  0.00  0.00     0.026 A 
ATOM      9  C   UNL d   1      52.654  30.447  52.920  0.00  0.00     0.002 A 
ATOM     10  C   UNL d   1      53.217  30.058  53.375  0.00  0.00     0.002 A 
ENDROOT
BRANCH   1  11
ATOM     11  C   UNL d   1      52.844  33.089  53.018  0.00  0.00     0.154 C 
BRANCH  11  12
ATOM     12  C   UNL d   1      52.281  33.505  53.439  0.00  0.00     0.318 C 
ATOM     13  O   UNL d   1      52.470  33.830  54.175  0.00  0.00    -0.257 OA
BRANCH  12  14
ATOM     14  O   UNL d   1      51.523  33.601  53.129  0.00  0.00    -0.270 OA
BRANCH  14  15
ATOM     15  C   UNL d   1      51.073  34.242  52.873  0.00  0.00     0.126 C 
BRANCH  15  16
ATOM     16  C   UNL d   1      50.278  34.144  52.689  0.00  0.00     0.027 C 
BRANCH  16  17
ATOM     17  C   UNL d   1      49.944  34.537  52.045  0.00  0.00     0.002 C 
BRANCH  17  18
ATOM     18  C   UNL d   1      49.141  34.711  52.036  0.00  0.00     0.000 C 
ATOM     19  C   UNL d   1      48.739  34.750  51.321  0.00  0.00     0.000 C 
ENDBRANCH  17  18
ENDBRANCH  16  17
ENDBRANCH  15  16
ENDBRANCH  14  15
ENDBRANCH  12  14
ENDBRANCH  11  12
ENDBRANCH   1  11
TORSDOF 7
ENDMDL
MODEL 5
REMARK VINA RESULT:      -5.2      5.705      7.337
REMARK  7 active torsions:
REMARK  status: ('A' for Active; 'I' for Inactive)
REMARK    1  A    between atoms: C_6  and  N_1 
REMARK    2  A    between atoms: C_7  and  C_6 
REMARK    3  A    between atoms: O_10  and  C_7 
REMARK    4  A    between atoms: C_13  and  O_10 
REMARK    5  A    between atoms: C_14  and  C_13 
REMARK    6  A    between atoms: C_16  and  C_14 
REMARK    7  A    between atoms: C_15  and  C_16 
ROOT
ATOM      1  N   UNL d   1      46.824  36.224  52.923  0.00  0.00    -0.246 N 
ATOM      2  C   UNL d   1      46.330  36.299  53.588  0.00  0.00     0.378 A 
ATOM      3  O   UNL d   1      45.560  36.087  53.362  0.00  0.00    -0.258 OA
ATOM      4  C   UNL d   1      46.358  35.966  52.291  0.00  0.00     0.092 A 
ATOM      5  C   UNL d   1      45.577  35.882  52.563  0.00  0.00     0.121 A 
ATOM      6  O   UNL d   1      46.574  36.543  54.335  0.00  0.00    -0.237 OA
ATOM      7  C   UNL d   1      46.541  35.797  51.501  0.00  0.00     0.020 A 
ATOM      8  C   UNL d   1      44.986  35.626  52.036  0.00  0.00     0.026 A 
ATOM      9  C   UNL d   1      45.946  35.544  50.989  0.00  0.00     0.002 A 
ATOM     10  C   UNL d   1      45.173  35.460  51.255  0.00  0.00     0.002 A 
ENDROOT
BRANCH   1  11
ATOM     11  C   UNL d   1      47.635  36.369  52.858  0.00  0.00     0.154 C 
BRANCH  11  12
ATOM     12  C   UNL d   1      48.162  35.948  53.319  0.00  0.00     0.318 C 
ATOM     13  O   UNL d   1      48.166  36.045  54.139  0.00  0.00    -0.257 OA
BRANCH  12  14
ATOM     14  O   UNL d   1      48.691  35.424  52.964  0.00  0.00    -0.270 OA
BRANCH  14  15
ATOM     15  C   UNL d   1      49.436  35.128  53.153  0.00  0.00     0.126 C 
BRANCH  15  16
ATOM     16  C   UNL d   1      49.837  34.643  52.624  0.00  0.00     0.027 C 
BRANCH  16  17
ATOM     17  C   UNL d   1      50.524  34.249  52.853  0.00  0.00     0.002 C 
BRANCH  17  18
ATOM     18  C   UNL d   1      51.182  34.240  52.360  0.00  0.00     0.000 C 
ATOM     19  C   UNL d   1      51.850  33.816  52.578  0.00  0.00     0.000 C 
ENDBRANCH  17  18
ENDBRANCH  16  17
ENDBRANCH  15  16
ENDBRANCH  14  15
ENDBRANCH  12  14
ENDBRANCH  11  12
ENDBRANCH   1  11
TORSDOF 7
ENDMDL
MODEL 6
REMARK VINA RESULT:      -5.1     10.260     11.158
REMARK  7 active torsions:
REMARK  status: ('A' for Active; 'I' for Inactive)
REMARK    1  A    between atoms: C_6  and  N_1 
REMARK    2  A    between atoms: C_7  and  C_6 
REMARK    3  A    between atoms: O_10  and  C_7 
REMARK    4  A    between atoms: C_13  and  O_10 
REMARK    5  A    between atoms: C_14  and  C_13 
REMARK    6  A    between atoms: C_16  and  C_14 
REMARK    7  A    between atoms: C_15  and  C_16 
ROOT
ATOM      1  N   UNL d   1      44.532  29.834  60.660  0.00  0.00    -0.246 N 
ATOM      2  C   UNL d   1      44.737  30.585  60.954  0.00  0.00     0.378 A 
ATOM      3  O   UNL d   1      44.882  30.514  61.768  0.00  0.00    -0.258 OA
ATOM      4  C   UNL d   1      44.552  29.303  61.294  0.00  0.00     0.092 A 
ATOM      5  C   UNL d   1      44.768  29.724  61.977  0.00  0.00     0.121 A 
ATOM      6  O   UNL d   1      44.783  31.273  60.504  0.00  0.00    -0.237 OA
ATOM      7  C   UNL d   1      44.402  28.489  61.338  0.00  0.00     0.020 A 
ATOM      8  C   UNL d   1      44.831  29.321  62.702  0.00  0.00     0.026 A 
ATOM      9  C   UNL d   1      44.468  28.101  62.063  0.00  0.00     0.002 A 
ATOM     10  C   UNL d   1      44.681  28.514  62.741  0.00  0.00     0.002 A 
ENDROOT
BRANCH   1  11
ATOM     11  C   UNL d   1      44.338  29.612  59.889  0.00  0.00     0.154 C 
BRANCH  11  12
ATOM     12  C   UNL d   1      44.919  29.580  59.315  0.00  0.00     0.318 C 
ATOM     13  O   UNL d   1      45.367  30.252  59.141  0.00  0.00    -0.257 OA
BRANCH  12  14
ATOM     14  O   UNL d   1      45.059  28.877  58.909  0.00  0.00    -0.270 OA
BRANCH  14  15
ATOM     15  C   UNL d   1      45.133  28.664  58.117  0.00  0.00     0.126 C 
BRANCH  15  16
ATOM     16  C   UNL d   1      45.343  27.896  57.911  0.00  0.00     0.027 C 
BRANCH  16  17
ATOM     17  C   UNL d   1      45.131  27.585  57.177  0.00  0.00     0.002 C 
BRANCH  17  18
ATOM     18  C   UNL d   1      45.431  26.860  56.931  0.00  0.00     0.000 C 
ATOM     19  C   UNL d   1      44.971  26.364  56.467  0.00  0.00     0.000 C 
ENDBRANCH  17  18
ENDBRANCH  16  17
ENDBRANCH  15  16
ENDBRANCH  14  15
ENDBRANCH  12  14
ENDBRANCH  11  12
ENDBRANCH   1  11
TORSDOF 7
ENDMDL
