MODEL 1
REMARK VINA RESULT:       2.7      0.000      0.000
REMARK  3 active torsions:
REMARK  status: ('A' for Active; 'I' for Inactive)
REMARK    1  A    between atoms: C_4  and  C_1 
REMARK    2  A    between atoms: C_11  and  C_10 
REMARK    3  A    between atoms: O_20  and  C_11 
ROOT
ATOM      1  C   UNL d   1      58.134   0.154  30.973  0.00  0.00     0.004 A 
ATOM      2  C   UNL d   1      58.969   0.386  32.108  0.00  0.00     0.102 A 
ATOM      3  C   UNL d   1      58.881   0.286  31.294  0.00  0.00     0.023 A 
ATOM      4  O   UNL d   1      58.310   0.354  32.602  0.00  0.00    -0.307 OA
ATOM      5  C   UNL d   1      57.564   0.223  32.280  0.00  0.00     0.102 A 
ATOM      6  C   UNL d   1      57.476   0.123  31.466  0.00  0.00     0.023 A 
ATOM      7  C   UNL d   1      59.715   0.517  32.430  0.00  0.00     0.046 A 
ATOM      8  C   UNL d   1      59.539   0.317  30.801  0.00  0.00     0.004 A 
ATOM      9  C   UNL d   1      56.905   0.191  32.773  0.00  0.00     0.046 A 
ATOM     10  C   UNL d   1      60.378   0.549  31.936  0.00  0.00     0.105 A 
ATOM     11  C   UNL d   1      60.290   0.449  31.122  0.00  0.00     0.021 A 
ATOM     12  C   UNL d   1      56.729  -0.009  31.145  0.00  0.00     0.004 A 
ATOM     13  N   UNL d   1      61.133   0.682  32.256  0.00  0.00    -0.148 N 
ATOM     14  C   UNL d   1      56.151   0.059  32.453  0.00  0.00     0.105 A 
ATOM     15  C   UNL d   1      56.063  -0.041  31.638  0.00  0.00     0.021 A 
ATOM     16  N   UNL d   1      55.488   0.027  32.947  0.00  0.00    -0.148 N 
ENDROOT
BRANCH   1  17
ATOM     17  C   UNL d   1      58.046   0.054  30.159  0.00  0.00     0.005 A 
ATOM     18  C   UNL d   1      58.226  -0.669  29.810  0.00  0.00     0.063 A 
ATOM     19  C   UNL d   1      58.138  -0.770  28.992  0.00  0.00     0.005 A 
ATOM     20  C   UNL d   1      57.870  -0.147  28.526  0.00  0.00     0.000 A 
ATOM     21  C   UNL d   1      57.688   0.581  28.874  0.00  0.00     0.000 A 
ATOM     22  C   UNL d   1      57.776   0.682  29.692  0.00  0.00     0.000 A 
BRANCH  18  23
ATOM     23  C   UNL d   1      58.498  -1.468  29.917  0.00  0.00     0.296 C 
ATOM     24  O   UNL d   1      57.824  -2.077  29.763  0.00  0.00    -0.259 OA
BRANCH  23  25
ATOM     25  O   UNL d   1      59.005  -2.123  30.082  0.00  0.00    -0.296 OA
ATOM     26  C   UNL d   1      59.040  -2.987  29.661  0.00  0.00     0.185 C 
ENDBRANCH  23  25
ENDBRANCH  18  23
ENDBRANCH   1  17
TORSDOF 3
ENDMDL
MODEL 2
REMARK VINA RESULT:       3.7      2.710      3.796
REMARK  3 active torsions:
REMARK  status: ('A' for Active; 'I' for Inactive)
REMARK    1  A    between atoms: C_4  and  C_1 
REMARK    2  A    between atoms: C_11  and  C_10 
REMARK    3  A    between atoms: O_20  and  C_11 
ROOT
ATOM      1  C   UNL d   1      56.136   0.286  33.899  0.00  0.00     0.004 A 
ATOM      2  C   UNL d   1      56.447   0.582  35.261  0.00  0.00     0.102 A 
ATOM      3  C   UNL d   1      56.692   0.384  34.498  0.00  0.00     0.023 A 
ATOM      4  O   UNL d   1      55.645   0.681  35.424  0.00  0.00    -0.307 OA
ATOM      5  C   UNL d   1      55.090   0.582  34.824  0.00  0.00     0.102 A 
ATOM      6  C   UNL d   1      55.335   0.384  34.062  0.00  0.00     0.023 A 
ATOM      7  C   UNL d   1      57.002   0.681  35.860  0.00  0.00     0.046 A 
ATOM      8  C   UNL d   1      57.492   0.285  34.335  0.00  0.00     0.004 A 
ATOM      9  C   UNL d   1      54.289   0.681  34.987  0.00  0.00     0.046 A 
ATOM     10  C   UNL d   1      57.807   0.582  35.698  0.00  0.00     0.105 A 
ATOM     11  C   UNL d   1      58.052   0.384  34.936  0.00  0.00     0.021 A 
ATOM     12  C   UNL d   1      54.779   0.286  33.463  0.00  0.00     0.004 A 
ATOM     13  N   UNL d   1      58.370   0.680  36.301  0.00  0.00    -0.148 N 
ATOM     14  C   UNL d   1      53.726   0.583  34.385  0.00  0.00     0.105 A 
ATOM     15  C   UNL d   1      53.971   0.385  33.623  0.00  0.00     0.021 A 
ATOM     16  N   UNL d   1      52.921   0.682  34.547  0.00  0.00    -0.148 N 
ENDROOT
BRANCH   1  17
ATOM     17  C   UNL d   1      56.381   0.088  33.137  0.00  0.00     0.005 A 
ATOM     18  C   UNL d   1      56.336  -0.692  32.878  0.00  0.00     0.063 A 
ATOM     19  C   UNL d   1      56.583  -0.891  32.111  0.00  0.00     0.005 A 
ATOM     20  C   UNL d   1      56.873  -0.309  31.607  0.00  0.00     0.000 A 
ATOM     21  C   UNL d   1      56.919   0.476  31.865  0.00  0.00     0.000 A 
ATOM     22  C   UNL d   1      56.672   0.675  32.631  0.00  0.00     0.000 A 
BRANCH  18  23
ATOM     23  C   UNL d   1      56.125  -1.496  33.059  0.00  0.00     0.296 C 
ATOM     24  O   UNL d   1      55.738  -1.915  32.335  0.00  0.00    -0.259 OA
BRANCH  23  25
ATOM     25  O   UNL d   1      56.025  -2.217  33.486  0.00  0.00    -0.296 OA
ATOM     26  C   UNL d   1      55.304  -2.852  33.448  0.00  0.00     0.185 C 
ENDBRANCH  23  25
ENDBRANCH  18  23
ENDBRANCH   1  17
TORSDOF 3
ENDMDL
MODEL 3
REMARK VINA RESULT:       4.2      2.834      4.657
REMARK  3 active torsions:
REMARK  status: ('A' for Active; 'I' for Inactive)
REMARK    1  A    between atoms: C_4  and  C_1 
REMARK    2  A    between atoms: C_11  and  C_10 
REMARK    3  A    between atoms: O_20  and  C_11 
ROOT
ATOM      1  C   UNL d   1      55.854   0.285  33.888  0.00  0.00     0.004 A 
ATOM      2  C   UNL d   1      54.797   0.579  34.801  0.00  0.00     0.102 A 
ATOM      3  C   UNL d   1      55.051   0.382  34.041  0.00  0.00     0.023 A 
ATOM      4  O   UNL d   1      55.346   0.678  35.407  0.00  0.00    -0.307 OA
ATOM      5  C   UNL d   1      56.148   0.581  35.253  0.00  0.00     0.102 A 
ATOM      6  C   UNL d   1      56.402   0.384  34.493  0.00  0.00     0.023 A 
ATOM      7  C   UNL d   1      53.994   0.677  34.956  0.00  0.00     0.046 A 
ATOM      8  C   UNL d   1      54.502   0.283  33.436  0.00  0.00     0.004 A 
ATOM      9  C   UNL d   1      56.697   0.680  35.859  0.00  0.00     0.046 A 
ATOM     10  C   UNL d   1      53.441   0.578  34.348  0.00  0.00     0.105 A 
ATOM     11  C   UNL d   1      53.695   0.381  33.588  0.00  0.00     0.021 A 
ATOM     12  C   UNL d   1      57.206   0.287  34.339  0.00  0.00     0.004 A 
ATOM     13  N   UNL d   1      52.630   0.675  34.500  0.00  0.00    -0.148 N 
ATOM     14  C   UNL d   1      57.507   0.582  35.707  0.00  0.00     0.105 A 
ATOM     15  C   UNL d   1      57.762   0.386  34.947  0.00  0.00     0.021 A 
ATOM     16  N   UNL d   1      58.060   0.682  36.314  0.00  0.00    -0.148 N 
ENDROOT
BRANCH   1  17
ATOM     17  C   UNL d   1      56.108   0.088  33.128  0.00  0.00     0.005 A 
ATOM     18  C   UNL d   1      56.100  -0.697  32.880  0.00  0.00     0.063 A 
ATOM     19  C   UNL d   1      56.356  -0.894  32.116  0.00  0.00     0.005 A 
ATOM     20  C   UNL d   1      56.618  -0.306  31.603  0.00  0.00     0.000 A 
ATOM     21  C   UNL d   1      56.626   0.484  31.850  0.00  0.00     0.000 A 
ATOM     22  C   UNL d   1      56.371   0.681  32.614  0.00  0.00     0.000 A 
BRANCH  18  23
ATOM     23  C   UNL d   1      55.928  -1.507  33.073  0.00  0.00     0.296 C 
ATOM     24  O   UNL d   1      55.923  -2.039  32.321  0.00  0.00    -0.259 OA
BRANCH  23  25
ATOM     25  O   UNL d   1      55.745  -2.198  33.522  0.00  0.00    -0.296 OA
ATOM     26  C   UNL d   1      55.271  -2.991  33.254  0.00  0.00     0.185 C 
ENDBRANCH  23  25
ENDBRANCH  18  23
ENDBRANCH   1  17
TORSDOF 3
ENDMDL
MODEL 4
REMARK VINA RESULT:       5.6      2.199      3.809
REMARK  3 active torsions:
REMARK  status: ('A' for Active; 'I' for Inactive)
REMARK    1  A    between atoms: C_4  and  C_1 
REMARK    2  A    between atoms: C_11  and  C_10 
REMARK    3  A    between atoms: O_20  and  C_11 
ROOT
ATOM      1  C   UNL d   1      56.642   0.269  33.271  0.00  0.00     0.004 A 
ATOM      2  C   UNL d   1      57.866   0.561  33.945  0.00  0.00     0.102 A 
ATOM      3  C   UNL d   1      57.064   0.372  33.971  0.00  0.00     0.023 A 
ATOM      4  O   UNL d   1      58.247   0.648  33.219  0.00  0.00    -0.307 OA
ATOM      5  C   UNL d   1      57.824   0.545  32.521  0.00  0.00     0.102 A 
ATOM      6  C   UNL d   1      57.021   0.356  32.547  0.00  0.00     0.023 A 
ATOM      7  C   UNL d   1      58.289   0.664  34.643  0.00  0.00     0.046 A 
ATOM      8  C   UNL d   1      56.684   0.285  34.695  0.00  0.00     0.004 A 
ATOM      9  C   UNL d   1      58.204   0.632  31.795  0.00  0.00     0.046 A 
ATOM     10  C   UNL d   1      57.909   0.577  35.373  0.00  0.00     0.105 A 
ATOM     11  C   UNL d   1      57.106   0.388  35.399  0.00  0.00     0.021 A 
ATOM     12  C   UNL d   1      56.599   0.253  31.847  0.00  0.00     0.004 A 
ATOM     13  N   UNL d   1      58.332   0.680  36.081  0.00  0.00    -0.148 N 
ATOM     14  C   UNL d   1      57.781   0.529  31.088  0.00  0.00     0.105 A 
ATOM     15  C   UNL d   1      56.979   0.339  31.114  0.00  0.00     0.021 A 
ATOM     16  N   UNL d   1      58.161   0.616  30.359  0.00  0.00    -0.148 N 
ENDROOT
BRANCH   1  17
ATOM     17  C   UNL d   1      55.839   0.079  33.297  0.00  0.00     0.005 A 
ATOM     18  C   UNL d   1      55.601  -0.708  33.321  0.00  0.00     0.063 A 
ATOM     19  C   UNL d   1      54.795  -0.899  33.347  0.00  0.00     0.005 A 
ATOM     20  C   UNL d   1      54.229  -0.301  33.350  0.00  0.00     0.000 A 
ATOM     21  C   UNL d   1      54.466   0.491  33.326  0.00  0.00     0.000 A 
ATOM     22  C   UNL d   1      55.272   0.682  33.300  0.00  0.00     0.000 A 
BRANCH  18  23
ATOM     23  C   UNL d   1      55.834  -1.527  33.332  0.00  0.00     0.296 C 
ATOM     24  O   UNL d   1      55.328  -2.029  32.748  0.00  0.00    -0.259 OA
BRANCH  23  25
ATOM     25  O   UNL d   1      56.245  -2.236  33.533  0.00  0.00    -0.296 OA
ATOM     26  C   UNL d   1      55.897  -3.118  33.689  0.00  0.00     0.185 C 
ENDBRANCH  23  25
ENDBRANCH  18  23
ENDBRANCH   1  17
TORSDOF 3
ENDMDL
