MODEL 1
REMARK VINA RESULT:      89.7      0.000      0.000
REMARK  10 active torsions:
REMARK  status: ('A' for Active; 'I' for Inactive)
REMARK    1  A    between atoms: C_5  and  C_1 
REMARK    2  A    between atoms: N_6  and  C_2 
REMARK    3  A    between atoms: C_7  and  C_5 
REMARK    4  A    between atoms: C_8  and  C_5 
REMARK    5  A    between atoms: O_13  and  C_7 
REMARK    6  A    between atoms: C_20  and  N_12 
REMARK    7  A    between atoms: C_19  and  O_13 
REMARK    8  A    between atoms: C_23  and  C_19 
REMARK    9  A    between atoms: C_24  and  C_23 
REMARK   10  A    between atoms: C_25  and  C_23 
ROOT
ATOM      1  C   UNL d   1     -49.423  27.725  34.986  0.00  0.00     0.122 A 
ATOM      2  C   UNL d   1     -49.478  27.761  35.806  0.00  0.00     0.166 A 
ATOM      3  N   UNL d   1     -48.959  28.245  36.218  0.00  0.00    -0.225 NA
ATOM      4  N   UNL d   1     -48.855  28.167  34.584  0.00  0.00    -0.241 NA
ATOM      5  C   UNL d   1     -48.395  28.685  35.829  0.00  0.00     0.101 A 
ATOM      6  C   UNL d   1     -48.343  28.646  35.004  0.00  0.00     0.099 A 
ATOM      7  C   UNL d   1     -47.876  29.169  36.250  0.00  0.00     0.021 A 
ATOM      8  C   UNL d   1     -47.778  29.086  34.610  0.00  0.00     0.021 A 
ATOM      9  C   UNL d   1     -47.308  29.611  35.847  0.00  0.00     0.002 A 
ATOM     10  C   UNL d   1     -47.260  29.570  35.030  0.00  0.00     0.002 A 
ENDROOT
BRANCH   1  11
ATOM     11  C   UNL d   1     -49.941  27.240  34.552  0.00  0.00     0.105 C 
BRANCH  11  12
ATOM     12  C   UNL d   1     -49.676  26.536  34.211  0.00  0.00     0.303 C 
ATOM     13  O   UNL d   1     -48.874  26.413  34.138  0.00  0.00    -0.259 OA
BRANCH  12  14
ATOM     14  O   UNL d   1     -50.219  25.984  33.956  0.00  0.00    -0.271 OA
BRANCH  14  15
ATOM     15  C   UNL d   1     -50.426  25.401  33.421  0.00  0.00     0.126 C 
BRANCH  15  16
ATOM     16  C   UNL d   1     -51.142  25.022  33.501  0.00  0.00     0.025 C 
BRANCH  16  17
ATOM     17  C   UNL d   1     -51.166  24.219  33.597  0.00  0.00     0.002 C 
ATOM     18  C   UNL d   1     -50.549  23.749  33.309  0.00  0.00     0.000 C 
ENDBRANCH  16  17
BRANCH  16  19
ATOM     19  C   UNL d   1     -51.837  25.461  33.485  0.00  0.00     0.002 C 
ATOM     20  C   UNL d   1     -52.556  25.106  33.310  0.00  0.00     0.000 C 
ENDBRANCH  16  19
ENDBRANCH  15  16
ENDBRANCH  14  15
ENDBRANCH  12  14
ENDBRANCH  11  12
BRANCH  11  21
ATOM     21  C   UNL d   1     -50.736  27.470  34.462  0.00  0.00     0.129 C 
ATOM     22  N   UNL d   1     -51.104  27.721  33.621  0.00  0.00    -0.146 N 
ENDBRANCH  11  21
ENDBRANCH   1  11
BRANCH   2  23
ATOM     23  N   UNL d   1     -50.046  27.319  36.200  0.00  0.00    -0.285 N 
ATOM     24  C   UNL d   1     -50.837  27.518  36.140  0.00  0.00     0.101 A 
ATOM     25  C   UNL d   1     -51.402  27.069  36.539  0.00  0.00     0.100 A 
ATOM     26  N   UNL d   1     -51.169  26.421  36.997  0.00  0.00    -0.300 N 
ATOM     27  C   UNL d   1     -50.370  26.223  37.056  0.00  0.00     0.100 A 
ATOM     28  C   UNL d   1     -49.812  26.671  36.659  0.00  0.00     0.101 A 
BRANCH  26  29
ATOM     29  C   UNL d   1     -51.741  25.971  37.398  0.00  0.00     0.080 C 
ATOM     30  C   UNL d   1     -52.070  26.266  38.097  0.00  0.00     0.021 C 
ENDBRANCH  26  29
ENDBRANCH   2  23
TORSDOF 10
ENDMDL
MODEL 2
REMARK VINA RESULT:      90.4      0.797      3.249
REMARK  10 active torsions:
REMARK  status: ('A' for Active; 'I' for Inactive)
REMARK    1  A    between atoms: C_5  and  C_1 
REMARK    2  A    between atoms: N_6  and  C_2 
REMARK    3  A    between atoms: C_7  and  C_5 
REMARK    4  A    between atoms: C_8  and  C_5 
REMARK    5  A    between atoms: O_13  and  C_7 
REMARK    6  A    between atoms: C_20  and  N_12 
REMARK    7  A    between atoms: C_19  and  O_13 
REMARK    8  A    between atoms: C_23  and  C_19 
REMARK    9  A    between atoms: C_24  and  C_23 
REMARK   10  A    between atoms: C_25  and  C_23 
ROOT
ATOM      1  C   UNL d   1     -50.949  26.677  35.568  0.00  0.00     0.122 A 
ATOM      2  C   UNL d   1     -50.430  27.088  36.054  0.00  0.00     0.166 A 
ATOM      3  N   UNL d   1     -50.534  27.053  36.868  0.00  0.00    -0.225 NA
ATOM      4  N   UNL d   1     -51.566  26.234  35.891  0.00  0.00    -0.241 NA
ATOM      5  C   UNL d   1     -51.141  26.618  37.195  0.00  0.00     0.101 A 
ATOM      6  C   UNL d   1     -51.661  26.205  36.703  0.00  0.00     0.099 A 
ATOM      7  C   UNL d   1     -51.240  26.587  38.014  0.00  0.00     0.021 A 
ATOM      8  C   UNL d   1     -52.271  25.768  37.027  0.00  0.00     0.021 A 
ATOM      9  C   UNL d   1     -51.856  26.145  38.337  0.00  0.00     0.002 A 
ATOM     10  C   UNL d   1     -52.370  25.737  37.846  0.00  0.00     0.002 A 
ENDROOT
BRANCH   1  11
ATOM     11  C   UNL d   1     -50.859  26.701  34.742  0.00  0.00     0.105 C 
BRANCH  11  12
ATOM     12  C   UNL d   1     -50.537  26.059  34.331  0.00  0.00     0.303 C 
ATOM     13  O   UNL d   1     -49.729  25.963  34.326  0.00  0.00    -0.259 OA
BRANCH  12  14
ATOM     14  O   UNL d   1     -51.033  25.542  33.944  0.00  0.00    -0.271 OA
BRANCH  14  15
ATOM     15  C   UNL d   1     -51.154  25.015  33.330  0.00  0.00     0.126 C 
BRANCH  15  16
ATOM     16  C   UNL d   1     -51.701  24.418  33.419  0.00  0.00     0.025 C 
BRANCH  16  17
ATOM     17  C   UNL d   1     -51.465  23.645  33.385  0.00  0.00     0.002 C 
ATOM     18  C   UNL d   1     -50.712  23.430  33.651  0.00  0.00     0.000 C 
ENDBRANCH  16  17
BRANCH  16  19
ATOM     19  C   UNL d   1     -52.491  24.608  33.542  0.00  0.00     0.002 C 
ATOM     20  C   UNL d   1     -53.086  24.074  33.357  0.00  0.00     0.000 C 
ENDBRANCH  16  19
ENDBRANCH  15  16
ENDBRANCH  14  15
ENDBRANCH  12  14
ENDBRANCH  11  12
BRANCH  11  21
ATOM     21  C   UNL d   1     -51.095  27.382  34.325  0.00  0.00     0.129 C 
ATOM     22  N   UNL d   1     -51.064  27.437  33.376  0.00  0.00    -0.146 N 
ENDBRANCH  11  21
ENDBRANCH   1  11
BRANCH   2  23
ATOM     23  N   UNL d   1     -49.819  27.527  35.727  0.00  0.00    -0.285 N 
ATOM     24  C   UNL d   1     -49.782  28.335  35.848  0.00  0.00     0.101 A 
ATOM     25  C   UNL d   1     -49.165  28.769  35.516  0.00  0.00     0.100 A 
ATOM     26  N   UNL d   1     -48.587  28.389  35.063  0.00  0.00    -0.300 N 
ATOM     27  C   UNL d   1     -48.627  27.574  34.943  0.00  0.00     0.100 A 
ATOM     28  C   UNL d   1     -49.241  27.146  35.274  0.00  0.00     0.101 A 
BRANCH  26  29
ATOM     29  C   UNL d   1     -47.966  28.830  34.729  0.00  0.00     0.080 C 
ATOM     30  C   UNL d   1     -47.188  28.674  34.964  0.00  0.00     0.021 C 
ENDBRANCH  26  29
ENDBRANCH   2  23
TORSDOF 10
ENDMDL
