MODEL 1
REMARK VINA RESULT:      -1.9      0.000      0.000
REMARK  5 active torsions:
REMARK  status: ('A' for Active; 'I' for Inactive)
REMARK    1  A    between atoms: C_8  and  C_1 
REMARK    2  A    between atoms: N_9  and  C_8 
REMARK    3  A    between atoms: C_15  and  C_8 
REMARK    4  A    between atoms: C_16  and  N_11 
REMARK    5  A    between atoms: C_19  and  C_16 
ROOT
ATOM      1  C   UNL d   1      31.791  17.463 -24.075  0.00  0.00     0.075 C 
ENDROOT
BRANCH   1   2
ATOM      2  C   UNL d   1      30.975  17.471 -24.212  0.00  0.00     0.106 A 
ATOM      3  C   UNL d   1      30.399  17.064 -23.768  0.00  0.00     0.290 A 
ATOM      4  N   UNL d   1      29.660  17.227 -24.096  0.00  0.00    -0.169 N 
ATOM      5  O   UNL d   1      30.546  16.579 -23.111  0.00  0.00    -0.265 OA
ATOM      6  N   UNL d   1      28.853  17.082 -24.030  0.00  0.00    -0.138 NA
ATOM      7  C   UNL d   1      29.773  17.734 -24.741  0.00  0.00     0.200 A 
ATOM      8  C   UNL d   1      28.464  17.495 -24.630  0.00  0.00     0.222 A 
ATOM      9  N   UNL d   1      29.034  17.898 -25.069  0.00  0.00    -0.197 NA
ATOM     10  S   UNL d   1      30.581  17.885 -24.814  0.00  0.00    -0.042 SA
ENDBRANCH   1   2
BRANCH   1  11
ATOM     11  N   UNL d   1      32.154  18.132 -23.760  0.00  0.00    -0.301 N 
ATOM     12  C   UNL d   1      32.063  18.863 -24.138  0.00  0.00     0.100 A 
ATOM     13  C   UNL d   1      32.424  19.540 -23.827  0.00  0.00     0.100 A 
ATOM     14  N   UNL d   1      32.883  19.487 -23.129  0.00  0.00    -0.300 N 
ATOM     15  C   UNL d   1      32.967  18.751 -22.759  0.00  0.00     0.100 A 
ATOM     16  C   UNL d   1      32.605  18.081 -23.074  0.00  0.00     0.100 A 
BRANCH  14  17
ATOM     17  C   UNL d   1      33.241  20.153 -22.820  0.00  0.00     0.080 C 
BRANCH  17  18
ATOM     18  C   UNL d   1      32.960  20.485 -22.120  0.00  0.00     0.018 A 
ATOM     19  C   UNL d   1      32.496  21.165 -22.139  0.00  0.00     0.002 A 
ATOM     20  C   UNL d   1      32.216  21.496 -21.447  0.00  0.00     0.000 A 
ATOM     21  C   UNL d   1      32.398  21.148 -20.721  0.00  0.00     0.000 A 
ATOM     22  C   UNL d   1      32.865  20.463 -20.694  0.00  0.00     0.000 A 
ATOM     23  C   UNL d   1      33.143  20.136 -21.397  0.00  0.00     0.002 A 
ENDBRANCH  17  18
ENDBRANCH  14  17
ENDBRANCH   1  11
BRANCH   1  24
ATOM     24  C   UNL d   1      32.231  16.792 -24.253  0.00  0.00     0.017 A 
ATOM     25  C   UNL d   1      32.724  16.801 -24.918  0.00  0.00     0.002 A 
ATOM     26  C   UNL d   1      33.167  16.123 -25.095  0.00  0.00     0.000 A 
ATOM     27  C   UNL d   1      33.120  15.466 -24.629  0.00  0.00     0.000 A 
ATOM     28  C   UNL d   1      32.614  15.478 -23.958  0.00  0.00     0.000 A 
ATOM     29  C   UNL d   1      32.178  16.132 -23.777  0.00  0.00     0.002 A 
ENDBRANCH   1  24
TORSDOF 5
ENDMDL
