MODEL 1
REMARK VINA RESULT:      67.2      0.000      0.000
REMARK  5 active torsions:
REMARK  status: ('A' for Active; 'I' for Inactive)
REMARK    1  A    between atoms: N_11  and  C_4 
REMARK    2  A    between atoms: C_18  and  N_15 
REMARK    3  A    between atoms: C_21  and  C_18 
REMARK    4  A    between atoms: O_28  and  C_23 
REMARK    5  A    between atoms: C_31  and  O_28 
ROOT
ATOM      1  N   UNL d   1      13.743  13.855  -3.254  0.00  0.00    -0.195 N 
ATOM      2  C   UNL d   1      13.829  13.162  -2.848  0.00  0.00     0.168 A 
ATOM      3  C   UNL d   1      14.196  13.148  -2.140  0.00  0.00     0.073 A 
ATOM      4  C   UNL d   1      13.375  13.850  -3.960  0.00  0.00     0.153 A 
ATOM      5  N   UNL d   1      14.390  14.526  -2.247  0.00  0.00    -0.143 NA
ATOM      6  C   UNL d   1      14.476  13.832  -1.841  0.00  0.00     0.185 A 
ATOM      7  N   UNL d   1      13.544  12.481  -3.157  0.00  0.00    -0.227 NA
ATOM      8  C   UNL d   1      14.281  12.462  -1.737  0.00  0.00     0.007 A 
ATOM      9  N   UNL d   1      14.850  13.834  -1.125  0.00  0.00    -0.225 NA
ATOM     10  C   UNL d   1      13.091  13.179  -4.270  0.00  0.00     0.057 A 
ATOM     11  C   UNL d   1      14.648  12.449  -1.030  0.00  0.00     0.019 A 
ATOM     12  C   UNL d   1      13.177  12.486  -3.864  0.00  0.00     0.086 A 
ATOM     13  C   UNL d   1      14.936  13.140  -0.719  0.00  0.00     0.083 A 
ATOM     14  C   UNL d   1      13.994  11.779  -2.050  0.00  0.00     0.000 C 
ATOM     15  C   UNL d   1      12.879  11.779  -4.189  0.00  0.00     0.021 C 
ATOM     16  C   UNL d   1      15.301  13.134  -0.015  0.00  0.00     0.021 C 
ENDROOT
BRANCH   4  17
ATOM     17  N   UNL d   1      13.290  14.570  -4.373  0.00  0.00    -0.286 N 
ATOM     18  C   UNL d   1      13.552  14.247  -5.089  0.00  0.00     0.101 A 
ATOM     19  C   UNL d   1      13.593  14.726  -5.758  0.00  0.00     0.100 A 
ATOM     20  N   UNL d   1      13.372  15.530  -5.714  0.00  0.00    -0.300 N 
ATOM     21  C   UNL d   1      13.109  15.844  -4.985  0.00  0.00     0.100 A 
ATOM     22  C   UNL d   1      13.069  15.358  -4.312  0.00  0.00     0.101 A 
BRANCH  20  23
ATOM     23  C   UNL d   1      13.412  16.019  -6.389  0.00  0.00     0.080 C 
BRANCH  23  24
ATOM     24  C   UNL d   1      13.489  16.839  -6.297  0.00  0.00     0.018 A 
ATOM     25  C   UNL d   1      12.826  17.337  -6.369  0.00  0.00     0.004 A 
ATOM     26  C   UNL d   1      12.904  18.166  -6.277  0.00  0.00     0.025 A 
ATOM     27  C   UNL d   1      13.653  18.497  -6.111  0.00  0.00     0.100 A 
ATOM     28  C   UNL d   1      14.328  17.994  -6.037  0.00  0.00     0.025 A 
ATOM     29  C   UNL d   1      14.234  17.171  -6.132  0.00  0.00     0.004 A 
BRANCH  27  30
ATOM     30  O   UNL d   1      13.738  19.315  -6.018  0.00  0.00    -0.305 OA
BRANCH  30  31
ATOM     31  C   UNL d   1      14.450  19.629  -5.715  0.00  0.00     0.123 C 
ATOM     32  C   UNL d   1      14.506  20.447  -5.546  0.00  0.00     0.029 C 
ENDBRANCH  30  31
ENDBRANCH  27  30
ENDBRANCH  23  24
ENDBRANCH  20  23
ENDBRANCH   4  17
TORSDOF 5
ENDMDL
