MODEL 1
REMARK VINA RESULT:      12.1      0.000      0.000
REMARK  3 active torsions:
REMARK  status: ('A' for Active; 'I' for Inactive)
REMARK    1  A    between atoms: S_4  and  C_1 
REMARK    2  A    between atoms: N_2  and  C_5 
REMARK    3  A    between atoms: C_9  and  S_4 
ROOT
ATOM      1  C   UNL d   1      44.661 -14.894  44.833  0.00  0.00     0.133 A 
ATOM      2  C   UNL d   1      45.185 -14.240  44.695  0.00  0.00     0.051 A 
ATOM      3  C   UNL d   1      45.032 -15.645  44.942  0.00  0.00     0.024 A 
ATOM      4  C   UNL d   1      45.990 -14.350  44.673  0.00  0.00     0.008 A 
ATOM      5  C   UNL d   1      45.835 -15.722  44.914  0.00  0.00     0.002 A 
ATOM      6  C   UNL d   1      46.327 -15.098  44.783  0.00  0.00     0.001 A 
ENDROOT
BRANCH   2   7
ATOM      7  S   UNL d   1      44.891 -13.468  44.579  0.00  0.00    -0.082 SA
BRANCH   7   8
ATOM      8  C   UNL d   1      45.324 -12.933  44.141  0.00  0.00     0.068 A 
ATOM      9  C   UNL d   1      46.045 -12.558  44.264  0.00  0.00     0.110 A 
ATOM     10  N   UNL d   1      46.192 -12.089  43.641  0.00  0.00    -0.147 NA
ATOM     11  C   UNL d   1      46.524 -12.673  44.948  0.00  0.00     0.023 C 
ATOM     12  N   UNL d   1      45.607 -12.134  43.114  0.00  0.00    -0.147 NA
ATOM     13  C   UNL d   1      45.037 -12.673  43.417  0.00  0.00     0.110 A 
ATOM     14  C   UNL d   1      44.325 -12.903  43.063  0.00  0.00     0.023 C 
ENDBRANCH   7   8
ENDBRANCH   2   7
BRANCH   1  15
ATOM     15  N   UNL d   1      43.832 -14.841  44.866  0.00  0.00    -0.113 N 
ATOM     16  O   UNL d   1      43.395 -15.496  44.826  0.00  0.00    -0.532 OA
ATOM     17  O   UNL d   1      43.475 -14.086  44.941  0.00  0.00    -0.532 OA
ENDBRANCH   1  15
TORSDOF 3
ENDMDL
