MODEL 1
REMARK VINA RESULT:      -8.1      0.000      0.000
REMARK  1 active torsions:
REMARK  status: ('A' for Active; 'I' for Inactive)
REMARK    1  A    between atoms: C_2  and  C_1 
ROOT
ATOM      1  C   UNL d   1      53.998  33.181  54.349  0.00  0.00     0.067 A 
ATOM      2  C   UNL d   1      53.630  31.875  53.909  0.00  0.00     0.123 A 
ATOM      3  C   UNL d   1      54.017  32.361  54.454  0.00  0.00     0.033 A 
ATOM      4  C   UNL d   1      53.228  32.205  53.268  0.00  0.00     0.123 A 
ATOM      5  O   UNL d   1      53.647  31.051  54.013  0.00  0.00    -0.301 OA
ATOM      6  O   UNL d   1      52.842  31.712  52.726  0.00  0.00    -0.301 OA
ATOM      7  C   UNL d   1      53.597  33.510  53.707  0.00  0.00     0.008 A 
ATOM      8  C   UNL d   1      53.212  33.022  53.167  0.00  0.00     0.027 A 
ATOM      9  C   UNL d   1      53.259  30.562  53.467  0.00  0.00     0.149 A 
ATOM     10  C   UNL d   1      52.857  30.891  52.826  0.00  0.00     0.149 A 
ENDROOT
BRANCH   1  11
ATOM     11  C   UNL d   1      54.386  33.667  54.893  0.00  0.00     0.211 C 
ATOM     12  O   UNL d   1      55.166  33.549  55.135  0.00  0.00    -0.644 OA
ATOM     13  O   UNL d   1      54.032  34.322  55.252  0.00  0.00    -0.644 OA
ENDBRANCH   1  11
TORSDOF 1
ENDMDL
MODEL 2
REMARK VINA RESULT:      -7.9      1.219      1.602
REMARK  1 active torsions:
REMARK  status: ('A' for Active; 'I' for Inactive)
REMARK    1  A    between atoms: C_2  and  C_1 
ROOT
ATOM      1  C   UNL d   1      54.306  33.292  54.573  0.00  0.00     0.067 A 
ATOM      2  C   UNL d   1      53.025  33.301  53.947  0.00  0.00     0.123 A 
ATOM      3  C   UNL d   1      53.521  33.550  54.559  0.00  0.00     0.033 A 
ATOM      4  C   UNL d   1      53.310  32.801  53.356  0.00  0.00     0.123 A 
ATOM      5  O   UNL d   1      52.235  33.559  53.931  0.00  0.00    -0.301 OA
ATOM      6  O   UNL d   1      52.808  32.555  52.745  0.00  0.00    -0.301 OA
ATOM      7  C   UNL d   1      54.591  32.792  53.981  0.00  0.00     0.008 A 
ATOM      8  C   UNL d   1      54.093  32.546  53.373  0.00  0.00     0.027 A 
ATOM      9  C   UNL d   1      51.735  33.310  53.317  0.00  0.00     0.149 A 
ATOM     10  C   UNL d   1      52.021  32.810  52.726  0.00  0.00     0.149 A 
ENDROOT
BRANCH   1  11
ATOM     11  C   UNL d   1      54.802  33.541  55.185  0.00  0.00     0.211 C 
ATOM     12  O   UNL d   1      55.380  34.122  55.096  0.00  0.00    -0.644 OA
ATOM     13  O   UNL d   1      54.770  33.232  55.951  0.00  0.00    -0.644 OA
ENDBRANCH   1  11
TORSDOF 1
ENDMDL
MODEL 3
REMARK VINA RESULT:      -7.7      0.864      2.851
REMARK  1 active torsions:
REMARK  status: ('A' for Active; 'I' for Inactive)
REMARK    1  A    between atoms: C_2  and  C_1 
ROOT
ATOM      1  C   UNL d   1      53.076  31.515  53.283  0.00  0.00     0.067 A 
ATOM      2  C   UNL d   1      53.761  32.411  54.156  0.00  0.00     0.123 A 
ATOM      3  C   UNL d   1      53.657  31.648  53.856  0.00  0.00     0.033 A 
ATOM      4  C   UNL d   1      53.289  33.032  53.888  0.00  0.00     0.123 A 
ATOM      5  O   UNL d   1      54.344  32.547  54.732  0.00  0.00    -0.301 OA
ATOM      6  O   UNL d   1      53.398  33.795  54.193  0.00  0.00    -0.301 OA
ATOM      7  C   UNL d   1      52.605  32.137  53.015  0.00  0.00     0.008 A 
ATOM      8  C   UNL d   1      52.711  32.896  53.317  0.00  0.00     0.027 A 
ATOM      9  C   UNL d   1      54.449  33.312  55.035  0.00  0.00     0.149 A 
ATOM     10  C   UNL d   1      53.978  33.934  54.767  0.00  0.00     0.149 A 
ENDROOT
BRANCH   1  11
ATOM     11  C   UNL d   1      52.973  30.752  52.982  0.00  0.00     0.211 C 
ATOM     12  O   UNL d   1      52.991  30.573  52.178  0.00  0.00    -0.644 OA
ATOM     13  O   UNL d   1      52.841  30.089  53.458  0.00  0.00    -0.644 OA
ENDBRANCH   1  11
TORSDOF 1
ENDMDL
MODEL 4
REMARK VINA RESULT:      -7.6      1.712      3.022
REMARK  1 active torsions:
REMARK  status: ('A' for Active; 'I' for Inactive)
REMARK    1  A    between atoms: C_2  and  C_1 
ROOT
ATOM      1  C   UNL d   1      52.136  34.215  53.336  0.00  0.00     0.067 A 
ATOM      2  C   UNL d   1      53.115  33.551  54.132  0.00  0.00     0.123 A 
ATOM      3  C   UNL d   1      52.473  33.513  53.613  0.00  0.00     0.033 A 
ATOM      4  C   UNL d   1      53.416  34.281  54.371  0.00  0.00     0.123 A 
ATOM      5  O   UNL d   1      53.456  32.847  54.412  0.00  0.00    -0.301 OA
ATOM      6  O   UNL d   1      54.059  34.313  54.892  0.00  0.00    -0.301 OA
ATOM      7  C   UNL d   1      52.437  34.945  53.575  0.00  0.00     0.008 A 
ATOM      8  C   UNL d   1      53.077  34.979  54.093  0.00  0.00     0.027 A 
ATOM      9  C   UNL d   1      54.100  32.883  54.934  0.00  0.00     0.149 A 
ATOM     10  C   UNL d   1      54.401  33.613  55.173  0.00  0.00     0.149 A 
ENDROOT
BRANCH   1  11
ATOM     11  C   UNL d   1      51.494  34.177  52.817  0.00  0.00     0.211 C 
ATOM     12  O   UNL d   1      51.570  34.191  51.996  0.00  0.00    -0.644 OA
ATOM     13  O   UNL d   1      50.708  34.122  53.068  0.00  0.00    -0.644 OA
ENDBRANCH   1  11
TORSDOF 1
ENDMDL
MODEL 5
REMARK VINA RESULT:      -6.9      1.242      3.077
REMARK  1 active torsions:
REMARK  status: ('A' for Active; 'I' for Inactive)
REMARK    1  A    between atoms: C_2  and  C_1 
ROOT
ATOM      1  C   UNL d   1      53.167  29.944  53.890  0.00  0.00     0.067 A 
ATOM      2  C   UNL d   1      53.502  31.323  53.754  0.00  0.00     0.123 A 
ATOM      3  C   UNL d   1      53.576  30.608  54.163  0.00  0.00     0.033 A 
ATOM      4  C   UNL d   1      53.025  31.373  53.083  0.00  0.00     0.123 A 
ATOM      5  O   UNL d   1      53.912  31.993  54.026  0.00  0.00    -0.301 OA
ATOM      6  O   UNL d   1      52.955  32.092  52.678  0.00  0.00    -0.301 OA
ATOM      7  C   UNL d   1      52.690  29.993  53.219  0.00  0.00     0.008 A 
ATOM      8  C   UNL d   1      52.619  30.708  52.815  0.00  0.00     0.027 A 
ATOM      9  C   UNL d   1      53.839  32.711  53.617  0.00  0.00     0.149 A 
ATOM     10  C   UNL d   1      53.362  32.761  52.946  0.00  0.00     0.149 A 
ENDROOT
BRANCH   1  11
ATOM     11  C   UNL d   1      53.241  29.229  54.299  0.00  0.00     0.211 C 
ATOM     12  O   UNL d   1      53.798  28.651  54.109  0.00  0.00    -0.644 OA
ATOM     13  O   UNL d   1      52.764  29.019  54.940  0.00  0.00    -0.644 OA
ENDBRANCH   1  11
TORSDOF 1
ENDMDL
MODEL 6
REMARK VINA RESULT:      -5.9      2.681      3.099
REMARK  1 active torsions:
REMARK  status: ('A' for Active; 'I' for Inactive)
REMARK    1  A    between atoms: C_2  and  C_1 
ROOT
ATOM      1  C   UNL d   1      52.667  35.013  54.002  0.00  0.00     0.067 A 
ATOM      2  C   UNL d   1      51.455  34.637  53.351  0.00  0.00     0.123 A 
ATOM      3  C   UNL d   1      51.842  34.965  54.004  0.00  0.00     0.033 A 
ATOM      4  C   UNL d   1      51.888  34.361  52.705  0.00  0.00     0.123 A 
ATOM      5  O   UNL d   1      50.626  34.587  53.351  0.00  0.00    -0.301 OA
ATOM      6  O   UNL d   1      51.494  34.033  52.054  0.00  0.00    -0.301 OA
ATOM      7  C   UNL d   1      53.100  34.737  53.356  0.00  0.00     0.008 A 
ATOM      8  C   UNL d   1      52.710  34.411  52.708  0.00  0.00     0.027 A 
ATOM      9  C   UNL d   1      50.236  34.258  52.696  0.00  0.00     0.149 A 
ATOM     10  C   UNL d   1      50.668  33.982  52.050  0.00  0.00     0.149 A 
ENDROOT
BRANCH   1  11
ATOM     11  C   UNL d   1      53.053  35.341  54.655  0.00  0.00     0.211 C 
ATOM     12  O   UNL d   1      53.225  36.144  54.728  0.00  0.00    -0.644 OA
ATOM     13  O   UNL d   1      53.309  34.897  55.303  0.00  0.00    -0.644 OA
ENDBRANCH   1  11
TORSDOF 1
ENDMDL
