MODEL 1
REMARK VINA RESULT:      -8.3      0.000      0.000
REMARK  2 active torsions:
REMARK  status: ('A' for Active; 'I' for Inactive)
REMARK    1  A    between atoms: C_10  and  N_1 
REMARK    2  A    between atoms: C_6  and  C_7 
ROOT
ATOM      1  N   UNL d   1     -49.579  12.331  23.019  0.00  0.00    -0.288 N 
ATOM      2  C   UNL d   1     -49.838  11.635  23.390  0.00  0.00     0.183 A 
ATOM      3  N   UNL d   1     -49.169  11.233  23.681  0.00  0.00    -0.224 NA
ATOM      4  C   UNL d   1     -48.753  12.359  23.080  0.00  0.00     0.083 A 
ATOM      5  C   UNL d   1     -48.502  11.686  23.486  0.00  0.00     0.099 A 
ATOM      6  C   UNL d   1     -47.146  12.120  23.367  0.00  0.00     0.066 A 
ATOM      7  C   UNL d   1     -47.696  11.568  23.629  0.00  0.00     0.027 A 
ATOM      8  C   UNL d   1     -48.199  12.913  22.817  0.00  0.00     0.019 A 
ATOM      9  C   UNL d   1     -47.397  12.793  22.961  0.00  0.00     0.008 A 
ENDROOT
BRANCH   1  10
ATOM     10  C   UNL d   1     -50.054  12.890  22.657  0.00  0.00     0.066 A 
ATOM     11  C   UNL d   1     -50.232  12.823  21.852  0.00  0.00     0.018 A 
ATOM     12  C   UNL d   1     -50.704  13.377  21.486  0.00  0.00     0.002 A 
ATOM     13  C   UNL d   1     -51.014  14.019  21.917  0.00  0.00     0.000 A 
ATOM     14  C   UNL d   1     -50.836  14.085  22.718  0.00  0.00     0.002 A 
ATOM     15  C   UNL d   1     -50.356  13.521  23.090  0.00  0.00     0.018 A 
ENDBRANCH   1  10
BRANCH   6  16
ATOM     16  C   UNL d   1     -46.344  12.001  23.510  0.00  0.00     0.211 C 
ATOM     17  O   UNL d   1     -45.818  12.635  23.466  0.00  0.00    -0.644 OA
ATOM     18  O   UNL d   1     -46.060  11.243  23.697  0.00  0.00    -0.644 OA
ENDBRANCH   6  16
TORSDOF 2
ENDMDL
MODEL 2
REMARK VINA RESULT:      -7.8      2.409      3.943
REMARK  2 active torsions:
REMARK  status: ('A' for Active; 'I' for Inactive)
REMARK    1  A    between atoms: C_10  and  N_1 
REMARK    2  A    between atoms: C_6  and  C_7 
ROOT
ATOM      1  N   UNL d   1     -48.195  13.136  22.208  0.00  0.00    -0.288 N 
ATOM      2  C   UNL d   1     -48.466  12.861  21.474  0.00  0.00     0.183 A 
ATOM      3  N   UNL d   1     -49.147  13.295  21.270  0.00  0.00    -0.224 NA
ATOM      4  C   UNL d   1     -48.706  13.738  22.458  0.00  0.00     0.083 A 
ATOM      5  C   UNL d   1     -49.290  13.836  21.883  0.00  0.00     0.099 A 
ATOM      6  C   UNL d   1     -49.886  14.873  22.664  0.00  0.00     0.066 A 
ATOM      7  C   UNL d   1     -49.880  14.405  21.988  0.00  0.00     0.027 A 
ATOM      8  C   UNL d   1     -48.713  14.210  23.138  0.00  0.00     0.019 A 
ATOM      9  C   UNL d   1     -49.302  14.776  23.239  0.00  0.00     0.008 A 
ENDROOT
BRANCH   1  10
ATOM     10  C   UNL d   1     -47.540  12.862  22.614  0.00  0.00     0.066 A 
ATOM     11  C   UNL d   1     -47.616  12.235  23.147  0.00  0.00     0.018 A 
ATOM     12  C   UNL d   1     -46.966  11.958  23.555  0.00  0.00     0.002 A 
ATOM     13  C   UNL d   1     -46.217  12.303  23.440  0.00  0.00     0.000 A 
ATOM     14  C   UNL d   1     -46.142  12.928  22.910  0.00  0.00     0.002 A 
ATOM     15  C   UNL d   1     -46.803  13.209  22.495  0.00  0.00     0.018 A 
ENDBRANCH   1  10
BRANCH   6  16
ATOM     16  C   UNL d   1     -50.475  15.440  22.767  0.00  0.00     0.211 C 
ATOM     17  O   UNL d   1     -51.064  15.530  22.197  0.00  0.00    -0.644 OA
ATOM     18  O   UNL d   1     -50.478  15.922  23.443  0.00  0.00    -0.644 OA
ENDBRANCH   6  16
TORSDOF 2
ENDMDL
MODEL 3
REMARK VINA RESULT:      -7.1      2.073      3.477
REMARK  2 active torsions:
REMARK  status: ('A' for Active; 'I' for Inactive)
REMARK    1  A    between atoms: C_10  and  N_1 
REMARK    2  A    between atoms: C_6  and  C_7 
ROOT
ATOM      1  N   UNL d   1     -47.365  12.298  23.223  0.00  0.00    -0.288 N 
ATOM      2  C   UNL d   1     -47.247  11.531  23.516  0.00  0.00     0.183 A 
ATOM      3  N   UNL d   1     -47.992  11.206  23.698  0.00  0.00    -0.224 NA
ATOM      4  C   UNL d   1     -48.180  12.447  23.224  0.00  0.00     0.083 A 
ATOM      5  C   UNL d   1     -48.564  11.778  23.515  0.00  0.00     0.099 A 
ATOM      6  C   UNL d   1     -49.825  12.431  23.351  0.00  0.00     0.066 A 
ATOM      7  C   UNL d   1     -49.389  11.771  23.578  0.00  0.00     0.027 A 
ATOM      8  C   UNL d   1     -48.620  13.110  22.996  0.00  0.00     0.019 A 
ATOM      9  C   UNL d   1     -49.440  13.100  23.060  0.00  0.00     0.008 A 
ENDROOT
BRANCH   1  10
ATOM     10  C   UNL d   1     -46.781  12.816  22.977  0.00  0.00     0.066 A 
ATOM     11  C   UNL d   1     -46.418  12.711  22.242  0.00  0.00     0.018 A 
ATOM     12  C   UNL d   1     -45.835  13.224  21.992  0.00  0.00     0.002 A 
ATOM     13  C   UNL d   1     -45.599  13.861  22.473  0.00  0.00     0.000 A 
ATOM     14  C   UNL d   1     -45.961  13.965  23.205  0.00  0.00     0.002 A 
ATOM     15  C   UNL d   1     -46.553  13.443  23.459  0.00  0.00     0.018 A 
ENDBRANCH   1  10
BRANCH   6  16
ATOM     16  C   UNL d   1     -50.646  12.422  23.414  0.00  0.00     0.211 C 
ATOM     17  O   UNL d   1     -51.062  13.131  23.479  0.00  0.00    -0.644 OA
ATOM     18  O   UNL d   1     -51.058  11.701  23.412  0.00  0.00    -0.644 OA
ENDBRANCH   6  16
TORSDOF 2
ENDMDL
MODEL 4
REMARK VINA RESULT:      -5.6      9.338     10.223
REMARK  2 active torsions:
REMARK  status: ('A' for Active; 'I' for Inactive)
REMARK    1  A    between atoms: C_10  and  N_1 
REMARK    2  A    between atoms: C_6  and  C_7 
ROOT
ATOM      1  N   UNL d   1     -40.088  15.079  20.514  0.00  0.00    -0.288 N 
ATOM      2  C   UNL d   1     -40.623  15.693  20.673  0.00  0.00     0.183 A 
ATOM      3  N   UNL d   1     -40.977  15.922  19.955  0.00  0.00    -0.224 NA
ATOM      4  C   UNL d   1     -40.111  14.929  19.699  0.00  0.00     0.083 A 
ATOM      5  C   UNL d   1     -40.656  15.445  19.357  0.00  0.00     0.099 A 
ATOM      6  C   UNL d   1     -40.387  14.878  18.073  0.00  0.00     0.066 A 
ATOM      7  C   UNL d   1     -40.793  15.418  18.542  0.00  0.00     0.027 A 
ATOM      8  C   UNL d   1     -39.704  14.385  19.227  0.00  0.00     0.019 A 
ATOM      9  C   UNL d   1     -39.842  14.361  18.416  0.00  0.00     0.008 A 
ENDROOT
BRANCH   1  10
ATOM     10  C   UNL d   1     -39.621  14.691  21.062  0.00  0.00     0.066 A 
ATOM     11  C   UNL d   1     -39.927  14.050  21.485  0.00  0.00     0.018 A 
ATOM     12  C   UNL d   1     -39.466  13.659  22.033  0.00  0.00     0.002 A 
ATOM     13  C   UNL d   1     -38.681  13.900  22.173  0.00  0.00     0.000 A 
ATOM     14  C   UNL d   1     -38.377  14.538  21.750  0.00  0.00     0.002 A 
ATOM     15  C   UNL d   1     -38.847  14.935  21.194  0.00  0.00     0.018 A 
ENDBRANCH   1  10
BRANCH   6  16
ATOM     16  C   UNL d   1     -40.524  14.852  17.262  0.00  0.00     0.211 C 
ATOM     17  O   UNL d   1     -39.889  14.839  16.735  0.00  0.00    -0.644 OA
ATOM     18  O   UNL d   1     -41.302  14.841  16.970  0.00  0.00    -0.644 OA
ENDBRANCH   6  16
TORSDOF 2
ENDMDL
MODEL 5
REMARK VINA RESULT:      -5.4      9.159     10.664
REMARK  2 active torsions:
REMARK  status: ('A' for Active; 'I' for Inactive)
REMARK    1  A    between atoms: C_10  and  N_1 
REMARK    2  A    between atoms: C_6  and  C_7 
ROOT
ATOM      1  N   UNL d   1     -39.871  14.758  17.855  0.00  0.00    -0.288 N 
ATOM      2  C   UNL d   1     -40.369  14.100  17.764  0.00  0.00     0.183 A 
ATOM      3  N   UNL d   1     -40.817  14.016  18.461  0.00  0.00    -0.224 NA
ATOM      4  C   UNL d   1     -40.011  15.079  18.606  0.00  0.00     0.083 A 
ATOM      5  C   UNL d   1     -40.590  14.624  18.977  0.00  0.00     0.099 A 
ATOM      6  C   UNL d   1     -40.514  15.467  20.129  0.00  0.00     0.066 A 
ATOM      7  C   UNL d   1     -40.841  14.820  19.741  0.00  0.00     0.027 A 
ATOM      8  C   UNL d   1     -39.682  15.730  18.998  0.00  0.00     0.019 A 
ATOM      9  C   UNL d   1     -39.934  15.922  19.758  0.00  0.00     0.008 A 
ENDROOT
BRANCH   1  10
ATOM     10  C   UNL d   1     -39.337  15.040  17.303  0.00  0.00     0.066 A 
ATOM     11  C   UNL d   1     -38.574  14.725  17.267  0.00  0.00     0.018 A 
ATOM     12  C   UNL d   1     -38.038  15.002  16.719  0.00  0.00     0.002 A 
ATOM     13  C   UNL d   1     -38.252  15.606  16.188  0.00  0.00     0.000 A 
ATOM     14  C   UNL d   1     -39.012  15.920  16.224  0.00  0.00     0.002 A 
ATOM     15  C   UNL d   1     -39.557  15.638  16.782  0.00  0.00     0.018 A 
ENDBRANCH   1  10
BRANCH   6  16
ATOM     16  C   UNL d   1     -40.765  15.660  20.889  0.00  0.00     0.211 C 
ATOM     17  O   UNL d   1     -40.244  15.594  21.525  0.00  0.00    -0.644 OA
ATOM     18  O   UNL d   1     -41.542  15.922  21.019  0.00  0.00    -0.644 OA
ENDBRANCH   6  16
TORSDOF 2
ENDMDL
