MODEL 1
REMARK VINA RESULT:      68.4      0.000      0.000
REMARK  6 active torsions:
REMARK  status: ('A' for Active; 'I' for Inactive)
REMARK    1  A    between atoms: C_13  and  C_4 
REMARK    2  A    between atoms: N_16  and  C_5 
REMARK    3  A    between atoms: N_11  and  C_18 
REMARK    4  A    between atoms: C_21  and  N_16 
REMARK    5  A    between atoms: C_18  and  C_19 
REMARK    6  A    between atoms: C_19  and  C_21 
ROOT
ATOM      1  N   UNL d   1      60.917  48.485  51.066  0.00  0.00    -0.195 N 
ATOM      2  C   UNL d   1      61.165  48.085  50.390  0.00  0.00     0.167 A 
ATOM      3  N   UNL d   1      60.883  47.946  51.682  0.00  0.00    -0.163 NA
ATOM      4  C   UNL d   1      61.281  47.301  50.592  0.00  0.00     0.055 A 
ATOM      5  C   UNL d   1      60.755  49.292  51.033  0.00  0.00     0.167 A 
ATOM      6  C   UNL d   1      61.109  47.212  51.388  0.00  0.00     0.104 A 
ATOM      7  N   UNL d   1      61.251  48.490  49.678  0.00  0.00    -0.227 NA
ATOM      8  C   UNL d   1      60.841  49.703  50.317  0.00  0.00     0.058 A 
ATOM      9  C   UNL d   1      61.088  49.303  49.641  0.00  0.00     0.086 A 
ATOM     10  C   UNL d   1      61.155  46.506  51.813  0.00  0.00     0.023 C 
ATOM     11  C   UNL d   1      61.176  49.708  48.921  0.00  0.00     0.021 C 
ENDROOT
BRANCH   5  12
ATOM     12  N   UNL d   1      60.508  49.692  51.709  0.00  0.00    -0.225 NA
BRANCH  12  13
ATOM     13  C   UNL d   1      59.725  49.639  51.956  0.00  0.00     0.102 C 
BRANCH  13  14
ATOM     14  C   UNL d   1      59.126  49.479  51.406  0.00  0.00     0.040 C 
BRANCH  14  15
ATOM     15  C   UNL d   1      58.351  49.707  51.562  0.00  0.00     0.083 C 
BRANCH  15  16
ATOM     16  N   UNL d   1      57.762  49.610  50.981  0.00  0.00    -0.285 N 
ATOM     17  C   UNL d   1      56.961  49.420  51.031  0.00  0.00     0.183 A 
ATOM     18  N   UNL d   1      56.656  49.401  50.273  0.00  0.00    -0.222 NA
ATOM     19  C   UNL d   1      57.263  49.577  49.750  0.00  0.00     0.120 A 
ATOM     20  C   UNL d   1      57.948  49.707  50.185  0.00  0.00     0.102 A 
ENDBRANCH  15  16
ENDBRANCH  14  15
ENDBRANCH  13  14
ENDBRANCH  12  13
ENDBRANCH   5  12
BRANCH   4  21
ATOM     21  C   UNL d   1      61.527  46.645  50.147  0.00  0.00     0.004 A 
ATOM     22  C   UNL d   1      62.200  46.701  49.672  0.00  0.00     0.000 A 
ATOM     23  C   UNL d   1      62.446  46.046  49.226  0.00  0.00     0.000 A 
ATOM     24  C   UNL d   1      62.019  45.340  49.258  0.00  0.00     0.000 A 
ATOM     25  C   UNL d   1      61.344  45.287  49.736  0.00  0.00     0.000 A 
ATOM     26  C   UNL d   1      61.100  45.940  50.179  0.00  0.00     0.000 A 
ENDBRANCH   4  21
TORSDOF 6
ENDMDL
