MODEL 1
REMARK VINA RESULT:      -2.9      0.000      0.000
REMARK  4 active torsions:
REMARK  status: ('A' for Active; 'I' for Inactive)
REMARK    1  A    between atoms: N_3  and  C_8 
REMARK    2  A    between atoms: S_11  and  C_4 
REMARK    3  A    between atoms: C_15  and  S_11 
REMARK    4  A    between atoms: C_16  and  C_15 
ROOT
ATOM      1  C   UNL d   1      32.570  20.433 -21.887  0.00  0.00     0.037 C 
ENDROOT
BRANCH   1   2
ATOM      2  S   UNL d   1      33.230  20.073 -22.215  0.00  0.00    -0.067 SA
BRANCH   2   3
ATOM      3  C   UNL d   1      33.132  19.480 -22.783  0.00  0.00     0.117 A 
ATOM      4  N   UNL d   1      32.949  18.716 -22.556  0.00  0.00    -0.184 NA
ATOM      5  C   UNL d   1      32.851  18.124 -23.124  0.00  0.00     0.369 A 
ATOM      6  N   UNL d   1      32.936  18.296 -23.919  0.00  0.00    -0.191 NA
ATOM      7  O   UNL d   1      32.666  17.354 -22.891  0.00  0.00    -0.242 OA
ATOM      8  C   UNL d   1      33.120  19.065 -24.153  0.00  0.00     0.088 A 
ATOM      9  C   UNL d   1      33.219  19.658 -23.584  0.00  0.00     0.045 A 
ATOM     10  C   UNL d   1      33.208  19.248 -24.959  0.00  0.00     0.021 C 
ENDBRANCH   2   3
ENDBRANCH   1   2
BRANCH   1  11
ATOM     11  C   UNL d   1      32.648  21.068 -21.372  0.00  0.00     0.007 A 
ATOM     12  C   UNL d   1      32.987  20.972 -20.623  0.00  0.00     0.002 A 
ATOM     13  C   UNL d   1      33.063  21.603 -20.115  0.00  0.00     0.024 A 
ATOM     14  C   UNL d   1      32.799  22.346 -20.349  0.00  0.00     0.127 A 
ATOM     15  C   UNL d   1      32.466  22.450 -21.080  0.00  0.00     0.024 A 
ATOM     16  C   UNL d   1      32.384  21.816 -21.604  0.00  0.00     0.002 A 
BRANCH  14  17
ATOM     17  N   UNL d   1      32.872  22.990 -19.841  0.00  0.00    -0.114 N 
ATOM     18  O   UNL d   1      33.241  23.681 -20.093  0.00  0.00    -0.532 OA
ATOM     19  O   UNL d   1      32.572  22.938 -19.074  0.00  0.00    -0.532 OA
ENDBRANCH  14  17
ENDBRANCH   1  11
TORSDOF 4
ENDMDL
MODEL 2
REMARK VINA RESULT:      -2.6      1.430      4.803
REMARK  4 active torsions:
REMARK  status: ('A' for Active; 'I' for Inactive)
REMARK    1  A    between atoms: N_3  and  C_8 
REMARK    2  A    between atoms: S_11  and  C_4 
REMARK    3  A    between atoms: C_15  and  S_11 
REMARK    4  A    between atoms: C_16  and  C_15 
ROOT
ATOM      1  C   UNL d   1      32.874  19.539 -22.920  0.00  0.00     0.037 C 
ENDROOT
BRANCH   1   2
ATOM      2  S   UNL d   1      33.104  19.788 -22.172  0.00  0.00    -0.067 SA
BRANCH   2   3
ATOM      3  C   UNL d   1      32.883  20.540 -21.907  0.00  0.00     0.117 A 
ATOM      4  N   UNL d   1      32.382  20.621 -21.266  0.00  0.00    -0.184 NA
ATOM      5  C   UNL d   1      32.162  21.372 -21.000  0.00  0.00     0.369 A 
ATOM      6  N   UNL d   1      32.442  22.042 -21.376  0.00  0.00    -0.191 NA
ATOM      7  O   UNL d   1      31.656  21.450 -20.353  0.00  0.00    -0.242 OA
ATOM      8  C   UNL d   1      32.948  21.964 -22.024  0.00  0.00     0.088 A 
ATOM      9  C   UNL d   1      33.168  21.213 -22.289  0.00  0.00     0.045 A 
ATOM     10  C   UNL d   1      33.237  22.641 -22.411  0.00  0.00     0.021 C 
ENDBRANCH   2   3
ENDBRANCH   1   2
BRANCH   1  11
ATOM     11  C   UNL d   1      32.867  18.742 -23.115  0.00  0.00     0.007 A 
ATOM     12  C   UNL d   1      33.238  18.180 -22.633  0.00  0.00     0.002 A 
ATOM     13  C   UNL d   1      33.229  17.390 -22.829  0.00  0.00     0.024 A 
ATOM     14  C   UNL d   1      32.845  17.147 -23.514  0.00  0.00     0.127 A 
ATOM     15  C   UNL d   1      32.478  17.689 -23.992  0.00  0.00     0.024 A 
ATOM     16  C   UNL d   1      32.481  18.493 -23.803  0.00  0.00     0.002 A 
BRANCH  14  17
ATOM     17  N   UNL d   1      32.830  16.349 -23.720  0.00  0.00    -0.114 N 
ATOM     18  O   UNL d   1      33.060  16.108 -24.473  0.00  0.00    -0.532 OA
ATOM     19  O   UNL d   1      32.582  15.792 -23.166  0.00  0.00    -0.532 OA
ENDBRANCH  14  17
ENDBRANCH   1  11
TORSDOF 4
ENDMDL
MODEL 3
REMARK VINA RESULT:      -2.3      1.189      1.576
REMARK  4 active torsions:
REMARK  status: ('A' for Active; 'I' for Inactive)
REMARK    1  A    between atoms: N_3  and  C_8 
REMARK    2  A    between atoms: S_11  and  C_4 
REMARK    3  A    between atoms: C_15  and  S_11 
REMARK    4  A    between atoms: C_16  and  C_15 
ROOT
ATOM      1  C   UNL d   1      33.217  19.264 -22.224  0.00  0.00     0.037 C 
ENDROOT
BRANCH   1   2
ATOM      2  S   UNL d   1      33.241  19.101 -23.028  0.00  0.00    -0.067 SA
BRANCH   2   3
ATOM      3  C   UNL d   1      32.980  18.367 -23.304  0.00  0.00     0.117 A 
ATOM      4  N   UNL d   1      33.239  17.677 -22.949  0.00  0.00    -0.184 NA
ATOM      5  C   UNL d   1      32.978  16.942 -23.225  0.00  0.00     0.369 A 
ATOM      6  N   UNL d   1      32.458  16.898 -23.854  0.00  0.00    -0.191 NA
ATOM      7  O   UNL d   1      33.241  16.248 -22.864  0.00  0.00    -0.242 OA
ATOM      8  C   UNL d   1      32.194  17.592 -24.215  0.00  0.00     0.088 A 
ATOM      9  C   UNL d   1      32.455  18.327 -23.939  0.00  0.00     0.045 A 
ATOM     10  C   UNL d   1      31.665  17.555 -24.856  0.00  0.00     0.021 C 
ENDBRANCH   2   3
ENDBRANCH   1   2
BRANCH   1  11
ATOM     11  C   UNL d   1      33.068  20.024 -21.952  0.00  0.00     0.007 A 
ATOM     12  C   UNL d   1      33.147  20.680 -22.451  0.00  0.00     0.002 A 
ATOM     13  C   UNL d   1      32.999  21.433 -22.178  0.00  0.00     0.024 A 
ATOM     14  C   UNL d   1      32.767  21.542 -21.397  0.00  0.00     0.127 A 
ATOM     15  C   UNL d   1      32.687  20.906 -20.900  0.00  0.00     0.024 A 
ATOM     16  C   UNL d   1      32.835  20.139 -21.167  0.00  0.00     0.002 A 
BRANCH  14  17
ATOM     17  N   UNL d   1      32.615  22.300 -21.112  0.00  0.00    -0.114 N 
ATOM     18  O   UNL d   1      33.234  22.798 -20.899  0.00  0.00    -0.532 OA
ATOM     19  O   UNL d   1      31.835  22.558 -21.042  0.00  0.00    -0.532 OA
ENDBRANCH  14  17
ENDBRANCH   1  11
TORSDOF 4
ENDMDL
MODEL 4
REMARK VINA RESULT:      -0.4      3.918      5.409
REMARK  4 active torsions:
REMARK  status: ('A' for Active; 'I' for Inactive)
REMARK    1  A    between atoms: N_3  and  C_8 
REMARK    2  A    between atoms: S_11  and  C_4 
REMARK    3  A    between atoms: C_15  and  S_11 
REMARK    4  A    between atoms: C_16  and  C_15 
ROOT
ATOM      1  C   UNL d   1      30.921  16.470 -24.334  0.00  0.00     0.037 C 
ENDROOT
BRANCH   1   2
ATOM      2  S   UNL d   1      30.132  16.575 -24.534  0.00  0.00    -0.067 SA
BRANCH   2   3
ATOM      3  C   UNL d   1      29.544  16.201 -24.089  0.00  0.00     0.117 A 
ATOM      4  N   UNL d   1      29.677  16.014 -23.304  0.00  0.00    -0.184 NA
ATOM      5  C   UNL d   1      29.089  15.640 -22.859  0.00  0.00     0.369 A 
ATOM      6  N   UNL d   1      28.369  15.453 -23.200  0.00  0.00    -0.191 NA
ATOM      7  O   UNL d   1      29.226  15.453 -22.068  0.00  0.00    -0.242 OA
ATOM      8  C   UNL d   1      28.231  15.640 -23.991  0.00  0.00     0.088 A 
ATOM      9  C   UNL d   1      28.819  16.014 -24.436  0.00  0.00     0.045 A 
ATOM     10  C   UNL d   1      27.502  15.453 -24.344  0.00  0.00     0.021 C 
ENDBRANCH   2   3
ENDBRANCH   1   2
BRANCH   1  11
ATOM     11  C   UNL d   1      31.435  17.109 -24.299  0.00  0.00     0.007 A 
ATOM     12  C   UNL d   1      32.028  17.151 -23.722  0.00  0.00     0.002 A 
ATOM     13  C   UNL d   1      32.536  17.785 -23.691  0.00  0.00     0.024 A 
ATOM     14  C   UNL d   1      32.461  18.393 -24.240  0.00  0.00     0.127 A 
ATOM     15  C   UNL d   1      31.884  18.361 -24.809  0.00  0.00     0.024 A 
ATOM     16  C   UNL d   1      31.363  17.721 -24.850  0.00  0.00     0.002 A 
BRANCH  14  17
ATOM     17  N   UNL d   1      32.971  19.039 -24.216  0.00  0.00    -0.114 N 
ATOM     18  O   UNL d   1      33.217  19.403 -24.912  0.00  0.00    -0.532 OA
ATOM     19  O   UNL d   1      33.236  19.320 -23.487  0.00  0.00    -0.532 OA
ENDBRANCH  14  17
ENDBRANCH   1  11
TORSDOF 4
ENDMDL
MODEL 5
REMARK VINA RESULT:      -0.1      2.287      3.013
REMARK  4 active torsions:
REMARK  status: ('A' for Active; 'I' for Inactive)
REMARK    1  A    between atoms: N_3  and  C_8 
REMARK    2  A    between atoms: S_11  and  C_4 
REMARK    3  A    between atoms: C_15  and  S_11 
REMARK    4  A    between atoms: C_16  and  C_15 
ROOT
ATOM      1  C   UNL d   1      32.489  22.503 -20.041  0.00  0.00     0.037 C 
ENDROOT
BRANCH   1   2
ATOM      2  S   UNL d   1      33.177  22.456 -20.485  0.00  0.00    -0.067 SA
BRANCH   2   3
ATOM      3  C   UNL d   1      33.168  22.058 -21.210  0.00  0.00     0.117 A 
ATOM      4  N   UNL d   1      33.120  21.242 -21.233  0.00  0.00    -0.184 NA
ATOM      5  C   UNL d   1      33.112  20.844 -21.958  0.00  0.00     0.369 A 
ATOM      6  N   UNL d   1      33.150  21.262 -22.659  0.00  0.00    -0.191 NA
ATOM      7  O   UNL d   1      33.063  20.020 -21.977  0.00  0.00    -0.242 OA
ATOM      8  C   UNL d   1      33.199  22.086 -22.641  0.00  0.00     0.088 A 
ATOM      9  C   UNL d   1      33.207  22.484 -21.916  0.00  0.00     0.045 A 
ATOM     10  C   UNL d   1      33.238  22.518 -23.350  0.00  0.00     0.021 C 
ENDBRANCH   2   3
ENDBRANCH   1   2
BRANCH   1  11
ATOM     11  C   UNL d   1      32.512  22.721 -19.250  0.00  0.00     0.007 A 
ATOM     12  C   UNL d   1      33.222  22.711 -18.824  0.00  0.00     0.002 A 
ATOM     13  C   UNL d   1      33.241  22.929 -18.040  0.00  0.00     0.024 A 
ATOM     14  C   UNL d   1      32.547  23.162 -17.666  0.00  0.00     0.127 A 
ATOM     15  C   UNL d   1      31.847  23.175 -18.075  0.00  0.00     0.024 A 
ATOM     16  C   UNL d   1      31.816  22.956 -18.871  0.00  0.00     0.002 A 
BRANCH  14  17
ATOM     17  N   UNL d   1      32.557  23.383 -16.873  0.00  0.00    -0.114 N 
ATOM     18  O   UNL d   1      33.239  23.700 -16.537  0.00  0.00    -0.532 OA
ATOM     19  O   UNL d   1      31.878  23.286 -16.415  0.00  0.00    -0.532 OA
ENDBRANCH  14  17
ENDBRANCH   1  11
TORSDOF 4
ENDMDL
