MODEL 1
REMARK VINA RESULT:       2.7      0.000      0.000
REMARK  3 active torsions:
REMARK  status: ('A' for Active; 'I' for Inactive)
REMARK    1  A    between atoms: C_4  and  S_1 
REMARK    2  A    between atoms: N_6  and  S_1 
REMARK    3  A    between atoms: C_2  and  C_8 
ROOT
ATOM      1  C   UNL d   1     -41.772-122.590 -52.921  0.00  0.00     0.104 A 
ATOM      2  C   UNL d   1     -41.990-122.493 -52.132  0.00  0.00     0.015 A 
ATOM      3  C   UNL d   1     -41.770-123.064 -51.574  0.00  0.00     0.025 A 
ATOM      4  C   UNL d   1     -41.338-123.252 -53.156  0.00  0.00     0.012 A 
ATOM      5  C   UNL d   1     -41.337-123.727 -51.804  0.00  0.00     0.002 A 
ATOM      6  C   UNL d   1     -41.123-123.817 -52.598  0.00  0.00     0.001 A 
ATOM      7  C   UNL d   1     -41.123-123.346 -53.945  0.00  0.00     0.001 C 
ENDROOT
BRANCH   3   8
ATOM      8  C   UNL d   1     -41.987-122.971 -50.780  0.00  0.00     0.111 A 
ATOM      9  N   UNL d   1     -42.604-122.499 -50.506  0.00  0.00    -0.239 NA
ATOM     10  C   UNL d   1     -42.627-122.566 -49.681  0.00  0.00     0.088 A 
ATOM     11  C   UNL d   1     -43.113-122.232 -49.111  0.00  0.00     0.020 A 
ATOM     12  C   UNL d   1     -42.020-123.080 -49.455  0.00  0.00     0.049 A 
ATOM     13  C   UNL d   1     -43.000-122.404 -48.320  0.00  0.00     0.002 A 
ATOM     14  C   UNL d   1     -42.391-122.920 -48.088  0.00  0.00     0.001 A 
ATOM     15  C   UNL d   1     -41.901-123.258 -48.660  0.00  0.00     0.008 A 
ATOM     16  S   UNL d   1     -41.624-123.330 -50.143  0.00  0.00    -0.066 SA
ENDBRANCH   3   8
BRANCH   1  17
ATOM     17  S   UNL d   1     -41.988-122.022 -53.488  0.00  0.00     0.271 S 
ATOM     18  O   UNL d   1     -41.435-121.494 -53.160  0.00  0.00    -0.200 OA
ATOM     19  O   UNL d   1     -42.619-122.626 -53.861  0.00  0.00    -0.200 OA
BRANCH  17  20
ATOM     20  N   UNL d   1     -42.233-121.493 -54.065  0.00  0.00    -0.229 N 
ATOM     21  C   UNL d   1     -41.890-120.758 -54.225  0.00  0.00     0.092 A 
ATOM     22  C   UNL d   1     -42.306-120.409 -54.845  0.00  0.00     0.021 A 
ATOM     23  C   UNL d   1     -42.913-120.931 -55.074  0.00  0.00     0.021 A 
ATOM     24  C   UNL d   1     -42.864-121.596 -54.591  0.00  0.00     0.092 A 
ENDBRANCH  17  20
ENDBRANCH   1  17
TORSDOF 3
ENDMDL
MODEL 2
REMARK VINA RESULT:       3.4      1.312      4.486
REMARK  3 active torsions:
REMARK  status: ('A' for Active; 'I' for Inactive)
REMARK    1  A    between atoms: C_4  and  S_1 
REMARK    2  A    between atoms: N_6  and  S_1 
REMARK    3  A    between atoms: C_2  and  C_8 
ROOT
ATOM      1  C   UNL d   1     -42.207-122.974 -50.950  0.00  0.00     0.104 A 
ATOM      2  C   UNL d   1     -42.275-122.695 -51.723  0.00  0.00     0.015 A 
ATOM      3  C   UNL d   1     -41.762-122.981 -52.307  0.00  0.00     0.025 A 
ATOM      4  C   UNL d   1     -41.633-123.534 -50.758  0.00  0.00     0.012 A 
ATOM      5  C   UNL d   1     -41.186-123.541 -52.118  0.00  0.00     0.002 A 
ATOM      6  C   UNL d   1     -41.125-123.815 -51.341  0.00  0.00     0.001 A 
ATOM      7  C   UNL d   1     -41.569-123.810 -49.984  0.00  0.00     0.001 C 
ENDROOT
BRANCH   3   8
ATOM      8  C   UNL d   1     -41.826-122.704 -53.085  0.00  0.00     0.111 A 
ATOM      9  N   UNL d   1     -42.255-122.042 -53.322  0.00  0.00    -0.239 NA
ATOM     10  C   UNL d   1     -42.170-121.965 -54.143  0.00  0.00     0.088 A 
ATOM     11  C   UNL d   1     -42.464-121.421 -54.682  0.00  0.00     0.020 A 
ATOM     12  C   UNL d   1     -41.687-122.583 -54.403  0.00  0.00     0.049 A 
ATOM     13  C   UNL d   1     -42.281-121.488 -55.475  0.00  0.00     0.002 A 
ATOM     14  C   UNL d   1     -41.796-122.108 -55.741  0.00  0.00     0.001 A 
ATOM     15  C   UNL d   1     -41.499-122.656 -55.200  0.00  0.00     0.008 A 
ATOM     16  S   UNL d   1     -41.475-123.041 -53.740  0.00  0.00    -0.066 SA
ENDBRANCH   3   8
BRANCH   1  17
ATOM     17  S   UNL d   1     -42.718-122.693 -50.358  0.00  0.00     0.271 S 
ATOM     18  O   UNL d   1     -42.279-121.988 -50.321  0.00  0.00    -0.200 OA
ATOM     19  O   UNL d   1     -43.220-123.499 -50.401  0.00  0.00    -0.200 OA
BRANCH  17  20
ATOM     20  N   UNL d   1     -43.248-122.458 -49.777  0.00  0.00    -0.229 N 
ATOM     21  C   UNL d   1     -44.043-122.264 -49.896  0.00  0.00     0.092 A 
ATOM     22  C   UNL d   1     -44.371-122.059 -49.168  0.00  0.00     0.021 A 
ATOM     23  C   UNL d   1     -43.775-122.125 -48.590  0.00  0.00     0.021 A 
ATOM     24  C   UNL d   1     -43.086-122.371 -48.970  0.00  0.00     0.092 A 
ENDBRANCH  17  20
ENDBRANCH   1  17
TORSDOF 3
ENDMDL
MODEL 3
REMARK VINA RESULT:       4.8      1.867      4.979
REMARK  3 active torsions:
REMARK  status: ('A' for Active; 'I' for Inactive)
REMARK    1  A    between atoms: C_4  and  S_1 
REMARK    2  A    between atoms: N_6  and  S_1 
REMARK    3  A    between atoms: C_2  and  C_8 
ROOT
ATOM      1  C   UNL d   1     -42.623-122.388 -49.478  0.00  0.00     0.104 A 
ATOM      2  C   UNL d   1     -42.280-122.598 -50.198  0.00  0.00     0.015 A 
ATOM      3  C   UNL d   1     -42.626-122.341 -50.905  0.00  0.00     0.025 A 
ATOM      4  C   UNL d   1     -43.305-121.924 -49.460  0.00  0.00     0.012 A 
ATOM      5  C   UNL d   1     -43.308-121.877 -50.892  0.00  0.00     0.002 A 
ATOM      6  C   UNL d   1     -43.645-121.671 -50.166  0.00  0.00     0.001 A 
ATOM      7  C   UNL d   1     -43.645-121.716 -48.739  0.00  0.00     0.001 C 
ENDROOT
BRANCH   3   8
ATOM      8  C   UNL d   1     -42.285-122.549 -51.630  0.00  0.00     0.111 A 
ATOM      9  N   UNL d   1     -42.177-122.042 -52.271  0.00  0.00    -0.239 NA
ATOM     10  C   UNL d   1     -41.819-122.475 -52.880  0.00  0.00     0.088 A 
ATOM     11  C   UNL d   1     -41.581-122.273 -53.638  0.00  0.00     0.020 A 
ATOM     12  C   UNL d   1     -41.710-123.248 -52.606  0.00  0.00     0.049 A 
ATOM     13  C   UNL d   1     -41.236-122.831 -54.124  0.00  0.00     0.002 A 
ATOM     14  C   UNL d   1     -41.124-123.609 -53.854  0.00  0.00     0.001 A 
ATOM     15  C   UNL d   1     -41.363-123.815 -53.091  0.00  0.00     0.008 A 
ATOM     16  S   UNL d   1     -42.002-123.289 -51.828  0.00  0.00    -0.066 SA
ENDBRANCH   3   8
BRANCH   1  17
ATOM     17  S   UNL d   1     -42.283-122.642 -48.763  0.00  0.00     0.271 S 
ATOM     18  O   UNL d   1     -41.685-122.071 -48.851  0.00  0.00    -0.200 OA
ATOM     19  O   UNL d   1     -42.968-123.295 -48.664  0.00  0.00    -0.200 OA
BRANCH  17  20
ATOM     20  N   UNL d   1     -41.985-122.926 -48.054  0.00  0.00    -0.229 N 
ATOM     21  C   UNL d   1     -41.396-122.567 -47.598  0.00  0.00     0.092 A 
ATOM     22  C   UNL d   1     -41.263-123.035 -46.933  0.00  0.00     0.021 A 
ATOM     23  C   UNL d   1     -41.773-123.692 -46.974  0.00  0.00     0.021 A 
ATOM     24  C   UNL d   1     -42.215-123.620 -47.666  0.00  0.00     0.092 A 
ENDBRANCH  17  20
ENDBRANCH   1  17
TORSDOF 3
ENDMDL
MODEL 4
REMARK VINA RESULT:       5.4      0.920      1.261
REMARK  3 active torsions:
REMARK  status: ('A' for Active; 'I' for Inactive)
REMARK    1  A    between atoms: C_4  and  S_1 
REMARK    2  A    between atoms: N_6  and  S_1 
REMARK    3  A    between atoms: C_2  and  C_8 
ROOT
ATOM      1  C   UNL d   1     -41.654-122.513 -51.907  0.00  0.00     0.104 A 
ATOM      2  C   UNL d   1     -41.833-122.442 -51.105  0.00  0.00     0.015 A 
ATOM      3  C   UNL d   1     -41.656-123.066 -50.590  0.00  0.00     0.025 A 
ATOM      4  C   UNL d   1     -41.301-123.200 -52.196  0.00  0.00     0.012 A 
ATOM      5  C   UNL d   1     -41.303-123.754 -50.875  0.00  0.00     0.002 A 
ATOM      6  C   UNL d   1     -41.126-123.817 -51.681  0.00  0.00     0.001 A 
ATOM      7  C   UNL d   1     -41.123-123.267 -52.998  0.00  0.00     0.001 C 
ENDROOT
BRANCH   3   8
ATOM      8  C   UNL d   1     -41.834-122.999 -49.784  0.00  0.00     0.111 A 
ATOM      9  N   UNL d   1     -41.303-123.121 -49.166  0.00  0.00    -0.239 NA
ATOM     10  C   UNL d   1     -41.709-122.997 -48.455  0.00  0.00     0.088 A 
ATOM     11  C   UNL d   1     -41.477-123.038 -47.669  0.00  0.00     0.020 A 
ATOM     12  C   UNL d   1     -42.489-122.799 -48.644  0.00  0.00     0.049 A 
ATOM     13  C   UNL d   1     -42.013-122.883 -47.072  0.00  0.00     0.002 A 
ATOM     14  C   UNL d   1     -42.798-122.684 -47.258  0.00  0.00     0.001 A 
ATOM     15  C   UNL d   1     -43.034-122.642 -48.047  0.00  0.00     0.008 A 
ATOM     16  S   UNL d   1     -42.562-122.801 -49.473  0.00  0.00    -0.066 SA
ENDBRANCH   3   8
BRANCH   1  17
ATOM     17  S   UNL d   1     -41.828-121.892 -52.431  0.00  0.00     0.271 S 
ATOM     18  O   UNL d   1     -41.311-121.397 -52.007  0.00  0.00    -0.200 OA
ATOM     19  O   UNL d   1     -42.419-122.458 -52.914  0.00  0.00    -0.200 OA
BRANCH  17  20
ATOM     20  N   UNL d   1     -42.030-121.309 -52.972  0.00  0.00    -0.229 N 
ATOM     21  C   UNL d   1     -41.710-120.548 -53.006  0.00  0.00     0.092 A 
ATOM     22  C   UNL d   1     -42.067-120.145 -53.631  0.00  0.00     0.021 A 
ATOM     23  C   UNL d   1     -42.615-120.660 -53.989  0.00  0.00     0.021 A 
ATOM     24  C   UNL d   1     -42.588-121.375 -53.580  0.00  0.00     0.092 A 
ENDBRANCH  17  20
ENDBRANCH   1  17
TORSDOF 3
ENDMDL
