MODEL 1
REMARK VINA RESULT:      -7.0      0.000      0.000
REMARK  5 active torsions:
REMARK  status: ('A' for Active; 'I' for Inactive)
REMARK    1  A    between atoms: N_8  and  C_2 
REMARK    2  A    between atoms: C_6  and  C_5 
REMARK    3  A    between atoms: C_7  and  C_6 
REMARK       I    between atoms: N_9  and  C_7 
REMARK    4  A    between atoms: C_18  and  N_9 
REMARK    5  A    between atoms: C_11  and  C_12 
ROOT
ATOM      1  C   UNL d   1     -48.872  12.245  22.984  0.00  0.00     0.280 C 
ATOM      2  N   UNL d   1     -48.440  12.109  23.681  0.00  0.00    -0.208 NA
ATOM      3  O   UNL d   1     -48.521  12.121  22.252  0.00  0.00    -0.265 OA
ENDROOT
BRANCH   1   4
ATOM      4  C   UNL d   1     -49.648  12.503  23.036  0.00  0.00     0.074 C 
BRANCH   4   5
ATOM      5  C   UNL d   1     -49.859  13.244  22.741  0.00  0.00     0.093 A 
ATOM      6  C   UNL d   1     -50.500  13.392  22.243  0.00  0.00     0.272 A 
ATOM      7  N   UNL d   1     -50.515  14.200  22.080  0.00  0.00    -0.251 N 
ATOM      8  O   UNL d   1     -51.040  12.840  21.952  0.00  0.00    -0.266 OA
ATOM      9  C   UNL d   1     -49.877  14.555  22.480  0.00  0.00     0.182 A 
ATOM     10  C   UNL d   1     -51.058  14.599  21.606  0.00  0.00     0.104 C 
ATOM     11  S   UNL d   1     -49.482  13.955  22.884  0.00  0.00    -0.045 SA
BRANCH   9  12
ATOM     12  N   UNL d   1     -49.684  15.357  22.471  0.00  0.00    -0.219 NA
ATOM     13  C   UNL d   1     -49.402  15.727  23.151  0.00  0.00     0.122 C 
ENDBRANCH   9  12
ENDBRANCH   4   5
ENDBRANCH   1   4
BRANCH   2  14
ATOM     14  C   UNL d   1     -47.660  11.850  23.632  0.00  0.00     0.085 A 
ATOM     15  C   UNL d   1     -47.039  12.397  23.517  0.00  0.00     0.019 A 
ATOM     16  C   UNL d   1     -46.259  12.132  23.468  0.00  0.00     0.005 A 
ATOM     17  C   UNL d   1     -46.089  11.322  23.532  0.00  0.00     0.039 A 
ATOM     18  C   UNL d   1     -46.702  10.782  23.645  0.00  0.00     0.005 A 
ATOM     19  C   UNL d   1     -47.490  11.047  23.695  0.00  0.00     0.019 A 
BRANCH  17  20
ATOM     20  C   UNL d   1     -45.312  11.060  23.482  0.00  0.00     0.196 C 
ATOM     21  O   UNL d   1     -44.716  11.574  23.235  0.00  0.00    -0.287 OA
ATOM     22  C   UNL d   1     -45.128  10.280  23.681  0.00  0.00     0.045 C 
ENDBRANCH  17  20
ENDBRANCH   2  14
TORSDOF 5
ENDMDL
MODEL 2
REMARK VINA RESULT:      -6.3      1.118      1.335
REMARK  5 active torsions:
REMARK  status: ('A' for Active; 'I' for Inactive)
REMARK    1  A    between atoms: N_8  and  C_2 
REMARK    2  A    between atoms: C_6  and  C_5 
REMARK    3  A    between atoms: C_7  and  C_6 
REMARK       I    between atoms: N_9  and  C_7 
REMARK    4  A    between atoms: C_18  and  N_9 
REMARK    5  A    between atoms: C_11  and  C_12 
ROOT
ATOM      1  C   UNL d   1     -48.107  12.719  22.897  0.00  0.00     0.280 C 
ATOM      2  N   UNL d   1     -47.454  12.771  23.410  0.00  0.00    -0.208 NA
ATOM      3  O   UNL d   1     -47.991  12.580  22.096  0.00  0.00    -0.265 OA
ENDROOT
BRANCH   1   4
ATOM      4  C   UNL d   1     -48.863  12.806  23.200  0.00  0.00     0.074 C 
BRANCH   4   5
ATOM      5  C   UNL d   1     -49.343  13.426  22.942  0.00  0.00     0.093 A 
ATOM      6  C   UNL d   1     -50.060  13.339  22.545  0.00  0.00     0.272 A 
ATOM      7  N   UNL d   1     -50.360  14.091  22.389  0.00  0.00    -0.251 N 
ATOM      8  O   UNL d   1     -50.427  12.630  22.333  0.00  0.00    -0.266 OA
ATOM      9  C   UNL d   1     -49.823  14.649  22.693  0.00  0.00     0.182 A 
ATOM     10  C   UNL d   1     -51.064  14.272  22.002  0.00  0.00     0.104 C 
ATOM     11  S   UNL d   1     -49.201  14.227  23.031  0.00  0.00    -0.045 SA
BRANCH   9  12
ATOM     12  N   UNL d   1     -49.904  15.470  22.659  0.00  0.00    -0.219 NA
ATOM     13  C   UNL d   1     -49.868  15.922  23.345  0.00  0.00     0.122 C 
ENDBRANCH   9  12
ENDBRANCH   4   5
ENDBRANCH   1   4
BRANCH   2  14
ATOM     14  C   UNL d   1     -46.693  12.683  23.109  0.00  0.00     0.085 A 
ATOM     15  C   UNL d   1     -46.325  13.312  22.701  0.00  0.00     0.019 A 
ATOM     16  C   UNL d   1     -45.561  13.218  22.400  0.00  0.00     0.005 A 
ATOM     17  C   UNL d   1     -45.158  12.500  22.503  0.00  0.00     0.039 A 
ATOM     18  C   UNL d   1     -45.522  11.879  22.906  0.00  0.00     0.005 A 
ATOM     19  C   UNL d   1     -46.292  11.971  23.209  0.00  0.00     0.019 A 
BRANCH  17  20
ATOM     20  C   UNL d   1     -44.399  12.409  22.203  0.00  0.00     0.196 C 
ATOM     21  O   UNL d   1     -43.894  11.838  22.519  0.00  0.00    -0.287 OA
ATOM     22  C   UNL d   1     -44.142  12.890  21.584  0.00  0.00     0.045 C 
ENDBRANCH  17  20
ENDBRANCH   2  14
TORSDOF 5
ENDMDL
MODEL 3
REMARK VINA RESULT:      -5.7      1.882      5.071
REMARK  5 active torsions:
REMARK  status: ('A' for Active; 'I' for Inactive)
REMARK    1  A    between atoms: N_8  and  C_2 
REMARK    2  A    between atoms: C_6  and  C_5 
REMARK    3  A    between atoms: C_7  and  C_6 
REMARK       I    between atoms: N_9  and  C_7 
REMARK    4  A    between atoms: C_18  and  N_9 
REMARK    5  A    between atoms: C_11  and  C_12 
ROOT
ATOM      1  C   UNL d   1     -46.898  13.782  22.423  0.00  0.00     0.280 C 
ATOM      2  N   UNL d   1     -47.216  14.342  22.950  0.00  0.00    -0.208 NA
ATOM      3  O   UNL d   1     -47.378  13.434  21.855  0.00  0.00    -0.265 OA
ENDROOT
BRANCH   1   4
ATOM      4  C   UNL d   1     -46.105  13.585  22.477  0.00  0.00     0.074 C 
BRANCH   4   5
ATOM      5  C   UNL d   1     -45.883  12.831  22.728  0.00  0.00     0.093 A 
ATOM      6  C   UNL d   1     -45.151  12.479  22.584  0.00  0.00     0.272 A 
ATOM      7  N   UNL d   1     -45.155  11.729  22.927  0.00  0.00    -0.251 N 
ATOM      8  O   UNL d   1     -44.516  12.807  22.171  0.00  0.00    -0.266 OA
ATOM      9  C   UNL d   1     -45.897  11.616  23.286  0.00  0.00     0.182 A 
ATOM     10  C   UNL d   1     -44.542  11.180  22.922  0.00  0.00     0.104 C 
ATOM     11  S   UNL d   1     -46.336  12.302  23.157  0.00  0.00    -0.045 SA
BRANCH   9  12
ATOM     12  N   UNL d   1     -46.141  10.941  23.695  0.00  0.00    -0.219 NA
ATOM     13  C   UNL d   1     -46.927  10.698  23.667  0.00  0.00     0.122 C 
ENDBRANCH   9  12
ENDBRANCH   4   5
ENDBRANCH   1   4
BRANCH   2  14
ATOM     14  C   UNL d   1     -48.013  14.543  22.898  0.00  0.00     0.085 A 
ATOM     15  C   UNL d   1     -48.552  14.290  23.483  0.00  0.00     0.019 A 
ATOM     16  C   UNL d   1     -49.350  14.494  23.425  0.00  0.00     0.005 A 
ATOM     17  C   UNL d   1     -49.618  14.950  22.786  0.00  0.00     0.039 A 
ATOM     18  C   UNL d   1     -49.085  15.201  22.208  0.00  0.00     0.005 A 
ATOM     19  C   UNL d   1     -48.280  14.996  22.264  0.00  0.00     0.019 A 
BRANCH  17  20
ATOM     20  C   UNL d   1     -50.412  15.152  22.730  0.00  0.00     0.196 C 
ATOM     21  O   UNL d   1     -50.658  15.920  22.904  0.00  0.00    -0.287 OA
ATOM     22  C   UNL d   1     -50.965  14.584  22.499  0.00  0.00     0.045 C 
ENDBRANCH  17  20
ENDBRANCH   2  14
TORSDOF 5
ENDMDL
MODEL 4
REMARK VINA RESULT:      -5.5      9.138     10.045
REMARK  5 active torsions:
REMARK  status: ('A' for Active; 'I' for Inactive)
REMARK    1  A    between atoms: N_8  and  C_2 
REMARK    2  A    between atoms: C_6  and  C_5 
REMARK    3  A    between atoms: C_7  and  C_6 
REMARK       I    between atoms: N_9  and  C_7 
REMARK    4  A    between atoms: C_18  and  N_9 
REMARK    5  A    between atoms: C_11  and  C_12 
ROOT
ATOM      1  C   UNL d   1     -40.111  14.445  19.439  0.00  0.00     0.280 C 
ATOM      2  N   UNL d   1     -40.451  14.814  20.102  0.00  0.00    -0.208 NA
ATOM      3  O   UNL d   1     -39.343  14.157  19.476  0.00  0.00    -0.265 OA
ENDROOT
BRANCH   1   4
ATOM      4  C   UNL d   1     -40.551  14.373  18.751  0.00  0.00     0.074 C 
BRANCH   4   5
ATOM      5  C   UNL d   1     -40.245  14.642  18.034  0.00  0.00     0.093 A 
ATOM      6  C   UNL d   1     -40.586  15.224  17.560  0.00  0.00     0.272 A 
ATOM      7  N   UNL d   1     -40.108  15.327  16.897  0.00  0.00    -0.251 N 
ATOM      8  O   UNL d   1     -41.283  15.640  17.710  0.00  0.00    -0.266 OA
ATOM      9  C   UNL d   1     -39.464  14.804  16.960  0.00  0.00     0.182 A 
ATOM     10  C   UNL d   1     -40.232  15.852  16.274  0.00  0.00     0.104 C 
ATOM     11  S   UNL d   1     -39.561  14.387  17.665  0.00  0.00    -0.045 SA
BRANCH   9  12
ATOM     12  N   UNL d   1     -38.849  14.722  16.416  0.00  0.00    -0.219 NA
ATOM     13  C   UNL d   1     -38.553  13.977  16.230  0.00  0.00     0.122 C 
ENDBRANCH   9  12
ENDBRANCH   4   5
ENDBRANCH   1   4
BRANCH   2  14
ATOM     14  C   UNL d   1     -40.011  14.887  20.795  0.00  0.00     0.085 A 
ATOM     15  C   UNL d   1     -39.919  14.235  21.308  0.00  0.00     0.019 A 
ATOM     16  C   UNL d   1     -39.477  14.315  22.001  0.00  0.00     0.005 A 
ATOM     17  C   UNL d   1     -39.123  15.042  22.189  0.00  0.00     0.039 A 
ATOM     18  C   UNL d   1     -39.215  15.686  21.682  0.00  0.00     0.005 A 
ATOM     19  C   UNL d   1     -39.660  15.608  20.983  0.00  0.00     0.019 A 
BRANCH  17  20
ATOM     20  C   UNL d   1     -38.684  15.119  22.879  0.00  0.00     0.196 C 
ATOM     21  O   UNL d   1     -38.059  14.602  23.032  0.00  0.00    -0.287 OA
ATOM     22  C   UNL d   1     -38.869  15.715  23.419  0.00  0.00     0.045 C 
ENDBRANCH  17  20
ENDBRANCH   2  14
TORSDOF 5
ENDMDL
MODEL 5
REMARK VINA RESULT:      -5.4      9.046     10.248
REMARK  5 active torsions:
REMARK  status: ('A' for Active; 'I' for Inactive)
REMARK    1  A    between atoms: N_8  and  C_2 
REMARK    2  A    between atoms: C_6  and  C_5 
REMARK    3  A    between atoms: C_7  and  C_6 
REMARK       I    between atoms: N_9  and  C_7 
REMARK    4  A    between atoms: C_18  and  N_9 
REMARK    5  A    between atoms: C_11  and  C_12 
ROOT
ATOM      1  C   UNL d   1     -40.097  15.107  20.741  0.00  0.00     0.280 C 
ATOM      2  N   UNL d   1     -40.765  14.956  20.269  0.00  0.00    -0.208 NA
ATOM      3  O   UNL d   1     -39.391  15.341  20.392  0.00  0.00    -0.265 OA
ENDROOT
BRANCH   1   4
ATOM      4  C   UNL d   1     -40.152  15.021  21.554  0.00  0.00     0.074 C 
BRANCH   4   5
ATOM      5  C   UNL d   1     -39.503  14.752  21.987  0.00  0.00     0.093 A 
ATOM      6  C   UNL d   1     -39.130  15.168  22.593  0.00  0.00     0.272 A 
ATOM      7  N   UNL d   1     -38.510  14.705  22.878  0.00  0.00    -0.251 N 
ATOM      8  O   UNL d   1     -39.329  15.918  22.875  0.00  0.00    -0.266 OA
ATOM      9  C   UNL d   1     -38.500  13.995  22.445  0.00  0.00     0.182 A 
ATOM     10  C   UNL d   1     -37.987  14.899  23.484  0.00  0.00     0.104 C 
ATOM     11  S   UNL d   1     -39.117  14.036  21.899  0.00  0.00    -0.045 SA
BRANCH   9  12
ATOM     12  N   UNL d   1     -37.970  13.371  22.547  0.00  0.00    -0.219 NA
ATOM     13  C   UNL d   1     -37.940  12.755  22.002  0.00  0.00     0.122 C 
ENDBRANCH   9  12
ENDBRANCH   4   5
ENDBRANCH   1   4
BRANCH   2  14
ATOM     14  C   UNL d   1     -40.712  15.042  19.452  0.00  0.00     0.085 A 
ATOM     15  C   UNL d   1     -40.755  15.799  19.103  0.00  0.00     0.019 A 
ATOM     16  C   UNL d   1     -40.701  15.880  18.283  0.00  0.00     0.005 A 
ATOM     17  C   UNL d   1     -40.604  15.209  17.804  0.00  0.00     0.039 A 
ATOM     18  C   UNL d   1     -40.562  14.461  18.148  0.00  0.00     0.005 A 
ATOM     19  C   UNL d   1     -40.616  14.378  18.975  0.00  0.00     0.019 A 
BRANCH  17  20
ATOM     20  C   UNL d   1     -40.551  15.291  16.988  0.00  0.00     0.196 C 
ATOM     21  O   UNL d   1     -41.187  15.595  16.560  0.00  0.00    -0.287 OA
ATOM     22  C   UNL d   1     -39.859  15.069  16.597  0.00  0.00     0.045 C 
ENDBRANCH  17  20
ENDBRANCH   2  14
TORSDOF 5
ENDMDL
MODEL 6
REMARK VINA RESULT:      -5.2      9.235     10.641
REMARK  5 active torsions:
REMARK  status: ('A' for Active; 'I' for Inactive)
REMARK    1  A    between atoms: N_8  and  C_2 
REMARK    2  A    between atoms: C_6  and  C_5 
REMARK    3  A    between atoms: C_7  and  C_6 
REMARK       I    between atoms: N_9  and  C_7 
REMARK    4  A    between atoms: C_18  and  N_9 
REMARK    5  A    between atoms: C_11  and  C_12 
ROOT
ATOM      1  C   UNL d   1     -39.854  14.689  19.264  0.00  0.00     0.280 C 
ATOM      2  N   UNL d   1     -40.065  14.193  18.630  0.00  0.00    -0.208 NA
ATOM      3  O   UNL d   1     -39.221  15.206  19.189  0.00  0.00    -0.265 OA
ENDROOT
BRANCH   1   4
ATOM      4  C   UNL d   1     -40.284  14.654  19.960  0.00  0.00     0.074 C 
BRANCH   4   5
ATOM      5  C   UNL d   1     -39.901  14.722  20.688  0.00  0.00     0.093 A 
ATOM      6  C   UNL d   1     -40.048  15.306  21.250  0.00  0.00     0.272 A 
ATOM      7  N   UNL d   1     -39.549  15.174  21.893  0.00  0.00    -0.251 N 
ATOM      8  O   UNL d   1     -40.596  15.922  21.194  0.00  0.00    -0.266 OA
ATOM      9  C   UNL d   1     -39.089  14.502  21.727  0.00  0.00     0.182 A 
ATOM     10  C   UNL d   1     -39.505  15.621  22.584  0.00  0.00     0.104 C 
ATOM     11  S   UNL d   1     -39.315  14.233  20.982  0.00  0.00    -0.045 SA
BRANCH   9  12
ATOM     12  N   UNL d   1     -38.515  14.172  22.220  0.00  0.00    -0.219 NA
ATOM     13  C   UNL d   1     -38.392  13.358  22.232  0.00  0.00     0.122 C 
ENDBRANCH   9  12
ENDBRANCH   4   5
ENDBRANCH   1   4
BRANCH   2  14
ATOM     14  C   UNL d   1     -39.634  14.226  17.929  0.00  0.00     0.085 A 
ATOM     15  C   UNL d   1     -39.047  13.655  17.766  0.00  0.00     0.019 A 
ATOM     16  C   UNL d   1     -38.618  13.694  17.061  0.00  0.00     0.005 A 
ATOM     17  C   UNL d   1     -38.769  14.298  16.513  0.00  0.00     0.039 A 
ATOM     18  C   UNL d   1     -39.350  14.862  16.674  0.00  0.00     0.005 A 
ATOM     19  C   UNL d   1     -39.783  14.825  17.384  0.00  0.00     0.019 A 
BRANCH  17  20
ATOM     20  C   UNL d   1     -38.342  14.334  15.813  0.00  0.00     0.196 C 
ATOM     21  O   UNL d   1     -38.077  15.061  15.525  0.00  0.00    -0.287 OA
ATOM     22  C   UNL d   1     -38.177  13.640  15.397  0.00  0.00     0.045 C 
ENDBRANCH  17  20
ENDBRANCH   2  14
TORSDOF 5
ENDMDL
