MODEL 1
REMARK VINA RESULT:      -7.6      0.000      0.000
REMARK  4 active torsions:
REMARK  status: ('A' for Active; 'I' for Inactive)
REMARK    1  A    between atoms: N_2  and  S_1 
REMARK    2  A    between atoms: C_3  and  S_1 
REMARK    3  A    between atoms: O_19  and  C_14 
REMARK    4  A    between atoms: O_20  and  C_17 
ROOT
ATOM      1  S   UNL d   1      52.879  33.153  53.348  0.00  0.00     0.275 S 
ATOM      2  O   UNL d   1      53.028  33.228  52.468  0.00  0.00    -0.199 OA
ATOM      3  O   UNL d   1      52.729  33.078  54.233  0.00  0.00    -0.199 OA
ENDROOT
BRANCH   1   4
ATOM      4  N   UNL d   1      53.579  32.600  53.404  0.00  0.00    -0.212 N 
ATOM      5  C   UNL d   1      53.471  31.799  53.415  0.00  0.00     0.094 A 
ATOM      6  C   UNL d   1      54.110  31.294  53.467  0.00  0.00     0.100 A 
ATOM      7  C   UNL d   1      52.714  31.502  53.374  0.00  0.00     0.020 A 
ATOM      8  C   UNL d   1      53.991  30.488  53.477  0.00  0.00     0.021 A 
ATOM      9  N   UNL d   1      54.979  32.398  53.498  0.00  0.00    -0.223 NA
ATOM     10  C   UNL d   1      53.234  30.181  53.435  0.00  0.00     0.002 A 
ATOM     11  C   UNL d   1      52.595  30.686  53.384  0.00  0.00     0.002 A 
ATOM     12  C   UNL d   1      53.111  29.371  53.445  0.00  0.00     0.000 C 
ATOM     13  C   UNL d   1      51.834  30.389  53.342  0.00  0.00     0.000 C 
ATOM     14  C   UNL d   1      54.340  32.902  53.446  0.00  0.00     0.193 A 
ENDBRANCH   1   4
BRANCH   1  15
ATOM     15  C   UNL d   1      52.179  33.706  53.288  0.00  0.00     0.128 A 
ATOM     16  C   UNL d   1      51.438  33.464  52.831  0.00  0.00     0.039 A 
ATOM     17  C   UNL d   1      50.742  34.024  52.776  0.00  0.00     0.095 A 
ATOM     18  C   UNL d   1      50.778  34.821  53.173  0.00  0.00     0.026 A 
ATOM     19  C   UNL d   1      51.510  35.067  53.628  0.00  0.00     0.027 A 
ATOM     20  C   UNL d   1      52.203  34.505  53.681  0.00  0.00     0.106 A 
BRANCH  17  21
ATOM     21  O   UNL d   1      50.011  33.790  52.327  0.00  0.00    -0.328 OA
ATOM     22  C   UNL d   1      49.606  34.397  51.789  0.00  0.00     0.181 C 
ENDBRANCH  17  21
BRANCH  20  23
ATOM     23  O   UNL d   1      52.942  34.746  54.137  0.00  0.00    -0.327 OA
ATOM     24  C   UNL d   1      53.004  35.583  54.466  0.00  0.00     0.181 C 
ENDBRANCH  20  23
ENDBRANCH   1  15
TORSDOF 4
ENDMDL
MODEL 2
REMARK VINA RESULT:      -7.1      1.410      2.677
REMARK  4 active torsions:
REMARK  status: ('A' for Active; 'I' for Inactive)
REMARK    1  A    between atoms: N_2  and  S_1 
REMARK    2  A    between atoms: C_3  and  S_1 
REMARK    3  A    between atoms: O_19  and  C_14 
REMARK    4  A    between atoms: O_20  and  C_17 
ROOT
ATOM      1  S   UNL d   1      53.149  32.132  53.461  0.00  0.00     0.275 S 
ATOM      2  O   UNL d   1      53.977  32.189  53.123  0.00  0.00    -0.199 OA
ATOM      3  O   UNL d   1      52.316  32.077  53.801  0.00  0.00    -0.199 OA
ENDROOT
BRANCH   1   4
ATOM      4  N   UNL d   1      53.073  31.318  53.101  0.00  0.00    -0.212 N 
ATOM      5  C   UNL d   1      53.142  30.657  53.561  0.00  0.00     0.094 A 
ATOM      6  C   UNL d   1      53.073  29.913  53.232  0.00  0.00     0.100 A 
ATOM      7  C   UNL d   1      53.283  30.743  54.358  0.00  0.00     0.020 A 
ATOM      8  C   UNL d   1      53.145  29.252  53.704  0.00  0.00     0.021 A 
ATOM      9  N   UNL d   1      52.861  30.491  51.969  0.00  0.00    -0.223 NA
ATOM     10  C   UNL d   1      53.286  29.330  54.506  0.00  0.00     0.002 A 
ATOM     11  C   UNL d   1      53.356  30.074  54.834  0.00  0.00     0.002 A 
ATOM     12  C   UNL d   1      53.359  28.667  54.982  0.00  0.00     0.000 C 
ATOM     13  C   UNL d   1      53.497  30.162  55.634  0.00  0.00     0.000 C 
ATOM     14  C   UNL d   1      52.931  31.235  52.298  0.00  0.00     0.193 A 
ENDBRANCH   1   4
BRANCH   1  15
ATOM     15  C   UNL d   1      53.228  32.948  53.820  0.00  0.00     0.128 A 
ATOM     16  C   UNL d   1      53.815  33.101  54.489  0.00  0.00     0.039 A 
ATOM     17  C   UNL d   1      53.888  33.920  54.844  0.00  0.00     0.095 A 
ATOM     18  C   UNL d   1      53.381  34.586  54.536  0.00  0.00     0.026 A 
ATOM     19  C   UNL d   1      52.796  34.440  53.872  0.00  0.00     0.027 A 
ATOM     20  C   UNL d   1      52.727  33.621  53.522  0.00  0.00     0.106 A 
BRANCH  17  21
ATOM     21  O   UNL d   1      54.465  34.076  55.502  0.00  0.00    -0.328 OA
ATOM     22  C   UNL d   1      55.353  33.978  55.349  0.00  0.00     0.181 C 
ENDBRANCH  17  21
BRANCH  20  23
ATOM     23  O   UNL d   1      52.141  33.467  52.854  0.00  0.00    -0.327 OA
ATOM     24  C   UNL d   1      51.649  34.151  52.534  0.00  0.00     0.181 C 
ENDBRANCH  20  23
ENDBRANCH   1  15
TORSDOF 4
ENDMDL
MODEL 3
REMARK VINA RESULT:      -6.4      1.252      3.806
REMARK  4 active torsions:
REMARK  status: ('A' for Active; 'I' for Inactive)
REMARK    1  A    between atoms: N_2  and  S_1 
REMARK    2  A    between atoms: C_3  and  S_1 
REMARK    3  A    between atoms: O_19  and  C_14 
REMARK    4  A    between atoms: O_20  and  C_17 
ROOT
ATOM      1  S   UNL d   1      52.804  33.575  53.670  0.00  0.00     0.275 S 
ATOM      2  O   UNL d   1      52.462  33.351  54.467  0.00  0.00    -0.199 OA
ATOM      3  O   UNL d   1      53.149  33.799  52.868  0.00  0.00    -0.199 OA
ENDROOT
BRANCH   1   4
ATOM      4  N   UNL d   1      52.363  34.350  53.715  0.00  0.00    -0.212 N 
ATOM      5  C   UNL d   1      51.623  34.423  53.397  0.00  0.00     0.094 A 
ATOM      6  C   UNL d   1      51.220  35.131  53.438  0.00  0.00     0.100 A 
ATOM      7  C   UNL d   1      51.285  33.777  53.036  0.00  0.00     0.020 A 
ATOM      8  C   UNL d   1      50.474  35.193  53.115  0.00  0.00     0.021 A 
ATOM      9  N   UNL d   1      52.305  35.708  54.120  0.00  0.00    -0.223 NA
ATOM     10  C   UNL d   1      50.127  34.549  52.750  0.00  0.00     0.002 A 
ATOM     11  C   UNL d   1      50.529  33.841  52.709  0.00  0.00     0.002 A 
ATOM     12  C   UNL d   1      49.377  34.610  52.424  0.00  0.00     0.000 C 
ATOM     13  C   UNL d   1      50.191  33.191  52.346  0.00  0.00     0.000 C 
ATOM     14  C   UNL d   1      52.707  34.999  54.080  0.00  0.00     0.193 A 
ENDBRANCH   1   4
BRANCH   1  15
ATOM     15  C   UNL d   1      53.244  32.797  53.628  0.00  0.00     0.128 A 
ATOM     16  C   UNL d   1      52.871  32.078  53.228  0.00  0.00     0.039 A 
ATOM     17  C   UNL d   1      53.318  31.303  53.190  0.00  0.00     0.095 A 
ATOM     18  C   UNL d   1      54.133  31.241  53.547  0.00  0.00     0.026 A 
ATOM     19  C   UNL d   1      54.508  31.951  53.945  0.00  0.00     0.027 A 
ATOM     20  C   UNL d   1      54.058  32.722  53.981  0.00  0.00     0.106 A 
BRANCH  17  21
ATOM     21  O   UNL d   1      52.955  30.593  52.797  0.00  0.00    -0.328 OA
ATOM     22  C   UNL d   1      52.827  29.836  53.278  0.00  0.00     0.181 C 
ENDBRANCH  17  21
BRANCH  20  23
ATOM     23  O   UNL d   1      54.430  33.440  54.380  0.00  0.00    -0.327 OA
ATOM     24  C   UNL d   1      55.213  33.345  54.815  0.00  0.00     0.181 C 
ENDBRANCH  20  23
ENDBRANCH   1  15
TORSDOF 4
ENDMDL
MODEL 4
REMARK VINA RESULT:      -5.5      2.006      3.398
REMARK  4 active torsions:
REMARK  status: ('A' for Active; 'I' for Inactive)
REMARK    1  A    between atoms: N_2  and  S_1 
REMARK    2  A    between atoms: C_3  and  S_1 
REMARK    3  A    between atoms: O_19  and  C_14 
REMARK    4  A    between atoms: O_20  and  C_17 
ROOT
ATOM      1  S   UNL d   1      50.760  34.015  52.934  0.00  0.00     0.275 S 
ATOM      2  O   UNL d   1      50.360  33.532  53.573  0.00  0.00    -0.199 OA
ATOM      3  O   UNL d   1      51.161  34.503  52.291  0.00  0.00    -0.199 OA
ENDROOT
BRANCH   1   4
ATOM      4  N   UNL d   1      51.472  33.480  52.995  0.00  0.00    -0.212 N 
ATOM      5  C   UNL d   1      52.134  33.719  53.393  0.00  0.00     0.094 A 
ATOM      6  C   UNL d   1      52.785  33.230  53.448  0.00  0.00     0.100 A 
ATOM      7  C   UNL d   1      52.142  34.456  53.738  0.00  0.00     0.020 A 
ATOM      8  C   UNL d   1      53.448  33.480  53.852  0.00  0.00     0.021 A 
ATOM      9  N   UNL d   1      52.112  32.249  52.701  0.00  0.00    -0.223 NA
ATOM     10  C   UNL d   1      53.464  34.219  54.202  0.00  0.00     0.002 A 
ATOM     11  C   UNL d   1      52.814  34.708  54.147  0.00  0.00     0.002 A 
ATOM     12  C   UNL d   1      54.129  34.473  54.609  0.00  0.00     0.000 C 
ATOM     13  C   UNL d   1      52.820  35.448  54.493  0.00  0.00     0.000 C 
ATOM     14  C   UNL d   1      51.461  32.738  52.645  0.00  0.00     0.193 A 
ENDBRANCH   1   4
BRANCH   1  15
ATOM     15  C   UNL d   1      50.045  34.550  52.875  0.00  0.00     0.128 A 
ATOM     16  C   UNL d   1      49.801  35.071  53.572  0.00  0.00     0.039 A 
ATOM     17  C   UNL d   1      49.085  35.604  53.506  0.00  0.00     0.095 A 
ATOM     18  C   UNL d   1      48.610  35.620  52.751  0.00  0.00     0.026 A 
ATOM     19  C   UNL d   1      48.847  35.106  52.056  0.00  0.00     0.027 A 
ATOM     20  C   UNL d   1      49.563  34.576  52.127  0.00  0.00     0.106 A 
BRANCH  17  21
ATOM     21  O   UNL d   1      48.841  36.118  54.189  0.00  0.00    -0.328 OA
ATOM     22  C   UNL d   1      48.021  36.505  54.184  0.00  0.00     0.181 C 
ENDBRANCH  17  21
BRANCH  20  23
ATOM     23  O   UNL d   1      49.807  34.056  51.432  0.00  0.00    -0.327 OA
ATOM     24  C   UNL d   1      49.324  34.083  50.672  0.00  0.00     0.181 C 
ENDBRANCH  20  23
ENDBRANCH   1  15
TORSDOF 4
ENDMDL
MODEL 5
REMARK VINA RESULT:      -5.4      9.309     10.263
REMARK  4 active torsions:
REMARK  status: ('A' for Active; 'I' for Inactive)
REMARK    1  A    between atoms: N_2  and  S_1 
REMARK    2  A    between atoms: C_3  and  S_1 
REMARK    3  A    between atoms: O_19  and  C_14 
REMARK    4  A    between atoms: O_20  and  C_17 
ROOT
ATOM      1  S   UNL d   1      45.159  28.799  57.946  0.00  0.00     0.275 S 
ATOM      2  O   UNL d   1      44.314  28.842  57.650  0.00  0.00    -0.199 OA
ATOM      3  O   UNL d   1      46.008  28.757  58.244  0.00  0.00    -0.199 OA
ENDROOT
BRANCH   1   4
ATOM      4  N   UNL d   1      45.260  28.030  57.503  0.00  0.00    -0.212 N 
ATOM      5  C   UNL d   1      45.073  27.325  57.853  0.00  0.00     0.094 A 
ATOM      6  C   UNL d   1      45.166  26.623  57.448  0.00  0.00     0.100 A 
ATOM      7  C   UNL d   1      44.791  27.327  58.616  0.00  0.00     0.020 A 
ATOM      8  C   UNL d   1      44.974  25.918  57.810  0.00  0.00     0.021 A 
ATOM      9  N   UNL d   1      45.637  27.330  56.329  0.00  0.00    -0.223 NA
ATOM     10  C   UNL d   1      44.690  25.910  58.576  0.00  0.00     0.002 A 
ATOM     11  C   UNL d   1      44.597  26.612  58.981  0.00  0.00     0.002 A 
ATOM     12  C   UNL d   1      44.497  25.202  58.942  0.00  0.00     0.000 C 
ATOM     13  C   UNL d   1      44.314  26.616  59.748  0.00  0.00     0.000 C 
ATOM     14  C   UNL d   1      45.545  28.032  56.734  0.00  0.00     0.193 A 
ENDBRANCH   1   4
BRANCH   1  15
ATOM     15  C   UNL d   1      45.055  29.570  58.389  0.00  0.00     0.128 A 
ATOM     16  C   UNL d   1      45.161  29.603  59.285  0.00  0.00     0.039 A 
ATOM     17  C   UNL d   1      45.056  30.378  59.721  0.00  0.00     0.095 A 
ATOM     18  C   UNL d   1      44.844  31.118  59.271  0.00  0.00     0.026 A 
ATOM     19  C   UNL d   1      44.737  31.090  58.381  0.00  0.00     0.027 A 
ATOM     20  C   UNL d   1      44.844  30.315  57.950  0.00  0.00     0.106 A 
BRANCH  17  21
ATOM     21  O   UNL d   1      45.160  30.416  60.604  0.00  0.00    -0.328 OA
ATOM     22  C   UNL d   1      44.433  30.536  61.132  0.00  0.00     0.181 C 
ENDBRANCH  17  21
BRANCH  20  23
ATOM     23  O   UNL d   1      44.737  30.280  57.055  0.00  0.00    -0.327 OA
ATOM     24  C   UNL d   1      44.659  31.049  56.592  0.00  0.00     0.181 C 
ENDBRANCH  20  23
ENDBRANCH   1  15
TORSDOF 4
ENDMDL
MODEL 6
REMARK VINA RESULT:      -4.6      1.819      4.408
REMARK  4 active torsions:
REMARK  status: ('A' for Active; 'I' for Inactive)
REMARK    1  A    between atoms: N_2  and  S_1 
REMARK    2  A    between atoms: C_3  and  S_1 
REMARK    3  A    between atoms: O_19  and  C_14 
REMARK    4  A    between atoms: O_20  and  C_17 
ROOT
ATOM      1  S   UNL d   1      50.868  34.366  53.272  0.00  0.00     0.275 S 
ATOM      2  O   UNL d   1      50.464  33.710  53.730  0.00  0.00    -0.199 OA
ATOM      3  O   UNL d   1      51.276  35.024  52.811  0.00  0.00    -0.199 OA
ENDROOT
BRANCH   1   4
ATOM      4  N   UNL d   1      50.104  34.828  53.287  0.00  0.00    -0.212 N 
ATOM      5  C   UNL d   1      49.608  34.824  52.648  0.00  0.00     0.094 A 
ATOM      6  C   UNL d   1      48.909  35.246  52.662  0.00  0.00     0.100 A 
ATOM      7  C   UNL d   1      49.815  34.392  51.990  0.00  0.00     0.020 A 
ATOM      8  C   UNL d   1      48.416  35.236  52.013  0.00  0.00     0.021 A 
ATOM      9  N   UNL d   1      49.200  35.684  53.965  0.00  0.00    -0.223 NA
ATOM     10  C   UNL d   1      48.617  34.805  51.348  0.00  0.00     0.002 A 
ATOM     11  C   UNL d   1      49.315  34.383  51.334  0.00  0.00     0.002 A 
ATOM     12  C   UNL d   1      48.122  34.793  50.694  0.00  0.00     0.000 C 
ATOM     13  C   UNL d   1      49.524  33.949  50.674  0.00  0.00     0.000 C 
ATOM     14  C   UNL d   1      49.898  35.262  53.952  0.00  0.00     0.193 A 
ENDBRANCH   1   4
BRANCH   1  15
ATOM     15  C   UNL d   1      51.632  33.901  53.259  0.00  0.00     0.128 A 
ATOM     16  C   UNL d   1      51.658  33.067  52.910  0.00  0.00     0.039 A 
ATOM     17  C   UNL d   1      52.426  32.608  52.900  0.00  0.00     0.095 A 
ATOM     18  C   UNL d   1      53.168  32.973  53.234  0.00  0.00     0.026 A 
ATOM     19  C   UNL d   1      53.149  33.800  53.581  0.00  0.00     0.027 A 
ATOM     20  C   UNL d   1      52.380  34.254  53.589  0.00  0.00     0.106 A 
BRANCH  17  21
ATOM     21  O   UNL d   1      52.456  31.787  52.559  0.00  0.00    -0.328 OA
ATOM     22  C   UNL d   1      52.831  31.118  53.042  0.00  0.00     0.181 C 
ENDBRANCH  17  21
BRANCH  20  23
ATOM     23  O   UNL d   1      52.353  35.086  53.936  0.00  0.00    -0.327 OA
ATOM     24  C   UNL d   1      53.088  35.418  54.338  0.00  0.00     0.181 C 
ENDBRANCH  20  23
ENDBRANCH   1  15
TORSDOF 4
ENDMDL
