MODEL 1
REMARK VINA RESULT:      -4.0      0.000      0.000
REMARK  3 active torsions:
REMARK  status: ('A' for Active; 'I' for Inactive)
REMARK    1  A    between atoms: C_2  and  S_1 
REMARK    2  A    between atoms: N_3  and  S_1 
REMARK    3  A    between atoms: C_9  and  N_3 
ROOT
ATOM      1  S   UNL d   1      58.667  -0.938  29.408  0.00  0.00     0.285 S 
ATOM      2  O   UNL d   1      57.958  -1.229  29.118  0.00  0.00    -0.198 OA
ATOM      3  O   UNL d   1      59.380  -0.643  29.703  0.00  0.00    -0.198 OA
ENDROOT
BRANCH   1   4
ATOM      4  C   UNL d   1      58.262  -0.580  30.034  0.00  0.00     0.105 A 
ATOM      5  C   UNL d   1      57.777  -1.029  30.523  0.00  0.00     0.013 A 
ATOM      6  C   UNL d   1      57.376  -0.677  31.143  0.00  0.00     0.001 A 
ATOM      7  C   UNL d   1      56.887  -1.128  31.637  0.00  0.00     0.000 C 
ATOM      8  C   UNL d   1      57.455   0.134  31.282  0.00  0.00     0.000 A 
ATOM      9  C   UNL d   1      57.942   0.586  30.791  0.00  0.00     0.001 A 
ATOM     10  C   UNL d   1      57.053   0.497  31.907  0.00  0.00     0.000 C 
ATOM     11  C   UNL d   1      58.348   0.230  30.165  0.00  0.00     0.012 A 
ATOM     12  C   UNL d   1      58.831   0.682  29.678  0.00  0.00     0.001 C 
ENDBRANCH   1   4
BRANCH   1  13
ATOM     13  N   UNL d   1      59.074  -1.296  28.783  0.00  0.00    -0.159 NA
BRANCH  13  14
ATOM     14  C   UNL d   1      59.356  -2.060  28.864  0.00  0.00     0.089 A 
ATOM     15  C   UNL d   1      60.121  -2.194  29.146  0.00  0.00     0.015 A 
ATOM     16  C   UNL d   1      60.407  -2.958  29.229  0.00  0.00     0.100 A 
ATOM     17  C   UNL d   1      61.013  -3.471  29.440  0.00  0.00     0.029 C 
ATOM     18  C   UNL d   1      61.121  -2.657  29.506  0.00  0.00     0.029 C 
ATOM     19  N   UNL d   1      59.930  -3.595  29.030  0.00  0.00    -0.295 NA
ATOM     20  C   UNL d   1      59.167  -3.471  28.749  0.00  0.00     0.100 A 
ATOM     21  C   UNL d   1      58.881  -2.706  28.666  0.00  0.00     0.015 A 
ATOM     22  C   UNL d   1      58.450  -3.767  28.471  0.00  0.00     0.029 C 
ATOM     23  C   UNL d   1      59.059  -4.288  28.682  0.00  0.00     0.029 C 
ENDBRANCH  13  14
ENDBRANCH   1  13
TORSDOF 3
ENDMDL
MODEL 2
REMARK VINA RESULT:      -3.1      1.917      4.275
REMARK  3 active torsions:
REMARK  status: ('A' for Active; 'I' for Inactive)
REMARK    1  A    between atoms: C_2  and  S_1 
REMARK    2  A    between atoms: N_3  and  S_1 
REMARK    3  A    between atoms: C_9  and  N_3 
ROOT
ATOM      1  S   UNL d   1      57.801   0.145  30.577  0.00  0.00     0.285 S 
ATOM      2  O   UNL d   1      58.511   0.236  30.975  0.00  0.00    -0.198 OA
ATOM      3  O   UNL d   1      57.086   0.051  30.174  0.00  0.00    -0.198 OA
ENDROOT
BRANCH   1   4
ATOM      4  C   UNL d   1      58.162  -0.385  30.056  0.00  0.00     0.105 A 
ATOM      5  C   UNL d   1      58.226  -1.181  30.255  0.00  0.00     0.013 A 
ATOM      6  C   UNL d   1      58.582  -1.708  29.741  0.00  0.00     0.001 A 
ATOM      7  C   UNL d   1      58.647  -2.510  29.939  0.00  0.00     0.000 C 
ATOM      8  C   UNL d   1      58.881  -1.445  29.017  0.00  0.00     0.000 A 
ATOM      9  C   UNL d   1      58.818  -0.646  28.816  0.00  0.00     0.001 A 
ATOM     10  C   UNL d   1      59.243  -1.972  28.492  0.00  0.00     0.000 C 
ATOM     11  C   UNL d   1      58.458  -0.113  29.336  0.00  0.00     0.012 A 
ATOM     12  C   UNL d   1      58.396   0.681  29.134  0.00  0.00     0.001 C 
ENDBRANCH   1   4
BRANCH   1  13
ATOM     13  N   UNL d   1      57.437   0.676  31.098  0.00  0.00    -0.159 NA
BRANCH  13  14
ATOM     14  C   UNL d   1      57.233   0.432  31.852  0.00  0.00     0.089 A 
ATOM     15  C   UNL d   1      57.732   0.591  32.490  0.00  0.00     0.015 A 
ATOM     16  C   UNL d   1      57.531   0.348  33.247  0.00  0.00     0.100 A 
ATOM     17  C   UNL d   1      57.706   0.302  34.049  0.00  0.00     0.029 C 
ATOM     18  C   UNL d   1      58.228   0.676  33.535  0.00  0.00     0.029 C 
ATOM     19  N   UNL d   1      56.828  -0.056  33.372  0.00  0.00    -0.295 NA
ATOM     20  C   UNL d   1      56.325  -0.218  32.742  0.00  0.00     0.100 A 
ATOM     21  C   UNL d   1      56.527   0.025  31.985  0.00  0.00     0.015 A 
ATOM     22  C   UNL d   1      55.627  -0.546  32.448  0.00  0.00     0.029 C 
ATOM     23  C   UNL d   1      55.799  -0.595  33.258  0.00  0.00     0.029 C 
ENDBRANCH  13  14
ENDBRANCH   1  13
TORSDOF 3
ENDMDL
MODEL 3
REMARK VINA RESULT:      -2.6      7.858      8.629
REMARK  3 active torsions:
REMARK  status: ('A' for Active; 'I' for Inactive)
REMARK    1  A    between atoms: C_2  and  S_1 
REMARK    2  A    between atoms: N_3  and  S_1 
REMARK    3  A    between atoms: C_9  and  N_3 
ROOT
ATOM      1  S   UNL d   1      59.633  -9.123  34.594  0.00  0.00     0.285 S 
ATOM      2  O   UNL d   1      60.146  -8.849  34.017  0.00  0.00    -0.198 OA
ATOM      3  O   UNL d   1      59.116  -9.396  35.177  0.00  0.00    -0.198 OA
ENDROOT
BRANCH   1   4
ATOM      4  C   UNL d   1      59.752  -8.429  35.028  0.00  0.00     0.105 A 
ATOM      5  C   UNL d   1      59.193  -7.826  35.004  0.00  0.00     0.013 A 
ATOM      6  C   UNL d   1      59.307  -7.139  35.432  0.00  0.00     0.001 A 
ATOM      7  C   UNL d   1      58.745  -6.530  35.409  0.00  0.00     0.000 C 
ATOM      8  C   UNL d   1      59.986  -7.045  35.893  0.00  0.00     0.000 A 
ATOM      9  C   UNL d   1      60.548  -7.650  35.919  0.00  0.00     0.001 A 
ATOM     10  C   UNL d   1      60.109  -6.354  36.329  0.00  0.00     0.000 C 
ATOM     11  C   UNL d   1      60.433  -8.345  35.486  0.00  0.00     0.012 A 
ATOM     12  C   UNL d   1      60.993  -8.946  35.512  0.00  0.00     0.001 C 
ENDBRANCH   1   4
BRANCH   1  13
ATOM     13  N   UNL d   1      59.513  -9.818  34.162  0.00  0.00    -0.159 NA
BRANCH  13  14
ATOM     14  C   UNL d   1      59.334  -9.776  33.363  0.00  0.00     0.089 A 
ATOM     15  C   UNL d   1      59.940  -9.730  32.804  0.00  0.00     0.015 A 
ATOM     16  C   UNL d   1      59.766  -9.688  32.004  0.00  0.00     0.100 A 
ATOM     17  C   UNL d   1      60.018  -9.638  31.223  0.00  0.00     0.029 C 
ATOM     18  C   UNL d   1      60.570  -9.660  31.833  0.00  0.00     0.029 C 
ATOM     19  N   UNL d   1      58.984  -9.691  31.756  0.00  0.00    -0.295 NA
ATOM     20  C   UNL d   1      58.374  -9.737  32.307  0.00  0.00     0.100 A 
ATOM     21  C   UNL d   1      58.550  -9.779  33.108  0.00  0.00     0.015 A 
ATOM     22  C   UNL d   1      57.570  -9.765  32.484  0.00  0.00     0.029 C 
ATOM     23  C   UNL d   1      57.819  -9.714  31.694  0.00  0.00     0.029 C 
ENDBRANCH  13  14
ENDBRANCH   1  13
TORSDOF 3
ENDMDL
MODEL 4
REMARK VINA RESULT:      -2.1      1.521      2.689
REMARK  3 active torsions:
REMARK  status: ('A' for Active; 'I' for Inactive)
REMARK    1  A    between atoms: C_2  and  S_1 
REMARK    2  A    between atoms: N_3  and  S_1 
REMARK    3  A    between atoms: C_9  and  N_3 
ROOT
ATOM      1  S   UNL d   1      57.270  -0.113  31.089  0.00  0.00     0.285 S 
ATOM      2  O   UNL d   1      57.459   0.682  31.036  0.00  0.00    -0.198 OA
ATOM      3  O   UNL d   1      57.080  -0.915  31.146  0.00  0.00    -0.198 OA
ENDROOT
BRANCH   1   4
ATOM      4  C   UNL d   1      57.173  -0.035  31.906  0.00  0.00     0.105 A 
ATOM      5  C   UNL d   1      57.777   0.283  32.366  0.00  0.00     0.013 A 
ATOM      6  C   UNL d   1      57.683   0.362  33.175  0.00  0.00     0.001 A 
ATOM      7  C   UNL d   1      58.290   0.682  33.639  0.00  0.00     0.000 C 
ATOM      8  C   UNL d   1      56.980   0.123  33.537  0.00  0.00     0.000 A 
ATOM      9  C   UNL d   1      56.373  -0.197  33.077  0.00  0.00     0.001 A 
ATOM     10  C   UNL d   1      56.878   0.199  34.354  0.00  0.00     0.000 C 
ATOM     11  C   UNL d   1      56.467  -0.276  32.259  0.00  0.00     0.012 A 
ATOM     12  C   UNL d   1      55.862  -0.594  31.803  0.00  0.00     0.001 C 
ENDBRANCH   1   4
BRANCH   1  13
ATOM     13  N   UNL d   1      57.367  -0.195  30.272  0.00  0.00    -0.159 NA
BRANCH  13  14
ATOM     14  C   UNL d   1      58.083  -0.452  29.969  0.00  0.00     0.089 A 
ATOM     15  C   UNL d   1      58.682   0.091  29.799  0.00  0.00     0.015 A 
ATOM     16  C   UNL d   1      59.400  -0.163  29.496  0.00  0.00     0.100 A 
ATOM     17  C   UNL d   1      60.157   0.007  29.224  0.00  0.00     0.029 C 
ATOM     18  C   UNL d   1      59.665   0.616  29.479  0.00  0.00     0.029 C 
ATOM     19  N   UNL d   1      59.527  -0.962  29.361  0.00  0.00    -0.295 NA
ATOM     20  C   UNL d   1      58.936  -1.510  29.529  0.00  0.00     0.100 A 
ATOM     21  C   UNL d   1      58.217  -1.255  29.832  0.00  0.00     0.015 A 
ATOM     22  C   UNL d   1      58.666  -2.289  29.548  0.00  0.00     0.029 C 
ATOM     23  C   UNL d   1      59.430  -2.122  29.273  0.00  0.00     0.029 C 
ENDBRANCH  13  14
ENDBRANCH   1  13
TORSDOF 3
ENDMDL
MODEL 5
REMARK VINA RESULT:      -1.4      2.697      4.503
REMARK  3 active torsions:
REMARK  status: ('A' for Active; 'I' for Inactive)
REMARK    1  A    between atoms: C_2  and  S_1 
REMARK    2  A    between atoms: N_3  and  S_1 
REMARK    3  A    between atoms: C_9  and  N_3 
ROOT
ATOM      1  S   UNL d   1      57.426  -0.114  30.977  0.00  0.00     0.285 S 
ATOM      2  O   UNL d   1      57.237   0.682  31.009  0.00  0.00    -0.198 OA
ATOM      3  O   UNL d   1      57.621  -0.916  30.943  0.00  0.00    -0.198 OA
ENDROOT
BRANCH   1   4
ATOM      4  C   UNL d   1      58.208   0.080  30.789  0.00  0.00     0.105 A 
ATOM      5  C   UNL d   1      58.738   0.282  31.385  0.00  0.00     0.013 A 
ATOM      6  C   UNL d   1      59.512   0.475  31.203  0.00  0.00     0.001 A 
ATOM      7  C   UNL d   1      60.047   0.678  31.802  0.00  0.00     0.000 C 
ATOM      8  C   UNL d   1      59.767   0.469  30.417  0.00  0.00     0.000 A 
ATOM      9  C   UNL d   1      59.236   0.267  29.817  0.00  0.00     0.001 A 
ATOM     10  C   UNL d   1      60.548   0.663  30.225  0.00  0.00     0.000 C 
ATOM     11  C   UNL d   1      58.454   0.072  30.002  0.00  0.00     0.012 A 
ATOM     12  C   UNL d   1      57.927  -0.129  29.404  0.00  0.00     0.001 C 
ENDBRANCH   1   4
BRANCH   1  13
ATOM     13  N   UNL d   1      56.646  -0.312  31.164  0.00  0.00    -0.159 NA
BRANCH  13  14
ATOM     14  C   UNL d   1      56.441  -0.475  31.940  0.00  0.00     0.089 A 
ATOM     15  C   UNL d   1      56.129  -1.213  32.141  0.00  0.00     0.015 A 
ATOM     16  C   UNL d   1      55.923  -1.381  32.917  0.00  0.00     0.100 A 
ATOM     17  C   UNL d   1      55.624  -1.904  33.475  0.00  0.00     0.029 C 
ATOM     18  C   UNL d   1      55.684  -2.134  32.687  0.00  0.00     0.029 C 
ATOM     19  N   UNL d   1      56.027  -0.812  33.498  0.00  0.00    -0.295 NA
ATOM     20  C   UNL d   1      56.338  -0.075  33.307  0.00  0.00     0.100 A 
ATOM     21  C   UNL d   1      56.544   0.093  32.530  0.00  0.00     0.015 A 
ATOM     22  C   UNL d   1      56.578   0.681  33.531  0.00  0.00     0.029 C 
ATOM     23  C   UNL d   1      56.278   0.156  34.098  0.00  0.00     0.029 C 
ENDBRANCH  13  14
ENDBRANCH   1  13
TORSDOF 3
ENDMDL
MODEL 6
REMARK VINA RESULT:      -1.1      1.600      4.296
REMARK  3 active torsions:
REMARK  status: ('A' for Active; 'I' for Inactive)
REMARK    1  A    between atoms: C_2  and  S_1 
REMARK    2  A    between atoms: N_3  and  S_1 
REMARK    3  A    between atoms: C_9  and  N_3 
ROOT
ATOM      1  S   UNL d   1      58.480   0.035  29.816  0.00  0.00     0.285 S 
ATOM      2  O   UNL d   1      59.145   0.474  30.007  0.00  0.00    -0.198 OA
ATOM      3  O   UNL d   1      57.812  -0.411  29.623  0.00  0.00    -0.198 OA
ENDROOT
BRANCH   1   4
ATOM      4  C   UNL d   1      58.963  -0.549  29.485  0.00  0.00     0.105 A 
ATOM      5  C   UNL d   1      58.888  -1.333  29.725  0.00  0.00     0.013 A 
ATOM      6  C   UNL d   1      59.363  -1.913  29.398  0.00  0.00     0.001 A 
ATOM      7  C   UNL d   1      59.289  -2.702  29.639  0.00  0.00     0.000 C 
ATOM      8  C   UNL d   1      59.924  -1.715  28.825  0.00  0.00     0.000 A 
ATOM      9  C   UNL d   1      60.001  -0.929  28.582  0.00  0.00     0.001 A 
ATOM     10  C   UNL d   1      60.408  -2.296  28.490  0.00  0.00     0.000 C 
ATOM     11  C   UNL d   1      59.520  -0.343  28.912  0.00  0.00     0.012 A 
ATOM     12  C   UNL d   1      59.597   0.438  28.670  0.00  0.00     0.001 C 
ENDBRANCH   1   4
BRANCH   1  13
ATOM     13  N   UNL d   1      57.995   0.617  30.147  0.00  0.00    -0.159 NA
BRANCH  13  14
ATOM     14  C   UNL d   1      57.857   0.623  30.954  0.00  0.00     0.089 A 
ATOM     15  C   UNL d   1      57.083   0.613  31.244  0.00  0.00     0.015 A 
ATOM     16  C   UNL d   1      56.941   0.619  32.051  0.00  0.00     0.100 A 
ATOM     17  C   UNL d   1      56.411   0.616  32.679  0.00  0.00     0.029 C 
ATOM     18  C   UNL d   1      56.131   0.605  31.905  0.00  0.00     0.029 C 
ATOM     19  N   UNL d   1      57.570   0.633  32.576  0.00  0.00    -0.295 NA
ATOM     20  C   UNL d   1      58.344   0.642  32.297  0.00  0.00     0.100 A 
ATOM     21  C   UNL d   1      58.486   0.637  31.488  0.00  0.00     0.015 A 
ATOM     22  C   UNL d   1      59.156   0.656  32.438  0.00  0.00     0.029 C 
ATOM     23  C   UNL d   1      58.625   0.653  33.074  0.00  0.00     0.029 C 
ENDBRANCH  13  14
ENDBRANCH   1  13
TORSDOF 3
ENDMDL
