MODEL 1
REMARK VINA RESULT:      -3.3      0.000      0.000
REMARK  7 active torsions:
REMARK  status: ('A' for Active; 'I' for Inactive)
REMARK    1  A    between atoms: C_25  and  N_5 
REMARK    2  A    between atoms: C_11  and  C_6 
REMARK       I    between atoms: N_19  and  C_11 
REMARK    3  A    between atoms: N_15  and  C_28 
REMARK    4  A    between atoms: C_27  and  N_19 
REMARK    5  A    between atoms: C_26  and  C_25 
REMARK    6  A    between atoms: C_28  and  C_26 
REMARK    7  A    between atoms: C_29  and  C_27 
ROOT
ATOM      1  C   UNL d   1     -39.482  14.649  19.463  0.00  0.00     0.155 A 
ATOM      2  C   UNL d   1     -40.180  14.555  19.034  0.00  0.00     0.091 A 
ATOM      3  N   UNL d   1     -38.755  14.590  19.079  0.00  0.00    -0.210 NA
ATOM      4  N   UNL d   1     -39.423  14.345  17.847  0.00  0.00    -0.258 N 
ATOM      5  N   UNL d   1     -39.509  14.801  20.272  0.00  0.00    -0.274 N 
ATOM      6  C   UNL d   1     -40.946  14.766  20.226  0.00  0.00     0.094 A 
ATOM      7  C   UNL d   1     -40.150  14.402  18.221  0.00  0.00     0.269 A 
ATOM      8  C   UNL d   1     -40.239  14.861  20.661  0.00  0.00     0.175 A 
ATOM      9  C   UNL d   1     -38.729  14.439  18.280  0.00  0.00     0.152 A 
ATOM     10  C   UNL d   1     -40.916  14.613  19.413  0.00  0.00     0.016 A 
ATOM     11  C   UNL d   1     -39.383  14.192  17.035  0.00  0.00     0.084 A 
ATOM     12  C   UNL d   1     -37.993  14.382  17.902  0.00  0.00     0.038 A 
ATOM     13  N   UNL d   1     -40.267  15.014  21.470  0.00  0.00    -0.128 N 
ATOM     14  C   UNL d   1     -38.656  14.135  16.661  0.00  0.00     0.018 A 
ATOM     15  C   UNL d   1     -37.961  14.230  17.094  0.00  0.00     0.005 A 
ATOM     16  O   UNL d   1     -40.848  14.308  17.791  0.00  0.00    -0.266 OA
ATOM     17  C   UNL d   1     -38.617  13.984  15.860  0.00  0.00     0.002 C 
ENDROOT
BRANCH   6  18
ATOM     18  C   UNL d   1     -41.669  14.824  20.602  0.00  0.00     0.282 C 
ATOM     19  N   UNL d   1     -42.075  14.134  20.830  0.00  0.00    -0.206 NA
ATOM     20  O   UNL d   1     -42.004  15.561  20.761  0.00  0.00    -0.265 OA
BRANCH  19  21
ATOM     21  C   UNL d   1     -42.802  14.190  21.209  0.00  0.00     0.102 C 
BRANCH  21  22
ATOM     22  C   UNL d   1     -43.205  13.501  21.442  0.00  0.00     0.019 A 
ATOM     23  C   UNL d   1     -44.029  13.504  21.471  0.00  0.00     0.002 A 
ATOM     24  C   UNL d   1     -44.441  12.824  21.703  0.00  0.00     0.000 A 
ATOM     25  C   UNL d   1     -44.019  12.138  21.905  0.00  0.00     0.000 A 
ATOM     26  C   UNL d   1     -43.185  12.145  21.873  0.00  0.00     0.000 A 
ATOM     27  C   UNL d   1     -42.783  12.826  21.642  0.00  0.00     0.002 A 
ENDBRANCH  21  22
ENDBRANCH  19  21
ENDBRANCH   6  18
BRANCH   5  28
ATOM     28  C   UNL d   1     -38.808  14.895  20.698  0.00  0.00     0.085 C 
BRANCH  28  29
ATOM     29  C   UNL d   1     -38.752  14.604  21.466  0.00  0.00     0.038 C 
BRANCH  29  30
ATOM     30  C   UNL d   1     -38.024  14.334  21.758  0.00  0.00     0.083 C 
BRANCH  30  31
ATOM     31  N   UNL d   1     -37.999  13.857  22.430  0.00  0.00    -0.285 N 
ATOM     32  C   UNL d   1     -38.016  14.122  23.204  0.00  0.00     0.183 A 
ATOM     33  N   UNL d   1     -37.978  13.439  23.698  0.00  0.00    -0.222 NA
ATOM     34  C   UNL d   1     -37.940  12.786  23.223  0.00  0.00     0.120 A 
ATOM     35  C   UNL d   1     -37.952  13.038  22.436  0.00  0.00     0.102 A 
ENDBRANCH  30  31
ENDBRANCH  29  30
ENDBRANCH  28  29
ENDBRANCH   5  28
TORSDOF 7
ENDMDL
MODEL 2
REMARK VINA RESULT:      -3.2      1.270      5.156
REMARK  7 active torsions:
REMARK  status: ('A' for Active; 'I' for Inactive)
REMARK    1  A    between atoms: C_25  and  N_5 
REMARK    2  A    between atoms: C_11  and  C_6 
REMARK       I    between atoms: N_19  and  C_11 
REMARK    3  A    between atoms: N_15  and  C_28 
REMARK    4  A    between atoms: C_27  and  N_19 
REMARK    5  A    between atoms: C_26  and  C_25 
REMARK    6  A    between atoms: C_28  and  C_26 
REMARK    7  A    between atoms: C_29  and  C_27 
ROOT
ATOM      1  C   UNL d   1     -40.217  14.397  20.998  0.00  0.00     0.155 A 
ATOM      2  C   UNL d   1     -39.443  14.386  20.712  0.00  0.00     0.091 A 
ATOM      3  N   UNL d   1     -40.373  14.143  21.767  0.00  0.00    -0.210 NA
ATOM      4  N   UNL d   1     -38.990  13.869  21.957  0.00  0.00    -0.258 N 
ATOM      5  N   UNL d   1     -40.834  14.662  20.519  0.00  0.00    -0.274 N 
ATOM      6  C   UNL d   1     -39.897  14.906  19.456  0.00  0.00     0.094 A 
ATOM      7  C   UNL d   1     -38.826  14.120  21.195  0.00  0.00     0.269 A 
ATOM      8  C   UNL d   1     -40.680  14.918  19.745  0.00  0.00     0.175 A 
ATOM      9  C   UNL d   1     -39.764  13.882  22.239  0.00  0.00     0.152 A 
ATOM     10  C   UNL d   1     -39.279  14.640  19.939  0.00  0.00     0.016 A 
ATOM     11  C   UNL d   1     -38.380  13.602  22.447  0.00  0.00     0.084 A 
ATOM     12  C   UNL d   1     -39.929  13.629  23.011  0.00  0.00     0.038 A 
ATOM     13  N   UNL d   1     -41.295  15.182  19.266  0.00  0.00    -0.128 N 
ATOM     14  C   UNL d   1     -38.543  13.351  23.211  0.00  0.00     0.018 A 
ATOM     15  C   UNL d   1     -39.317  13.364  23.492  0.00  0.00     0.005 A 
ATOM     16  O   UNL d   1     -38.053  14.108  20.909  0.00  0.00    -0.266 OA
ATOM     17  C   UNL d   1     -37.940  13.087  23.694  0.00  0.00     0.002 C 
ENDROOT
BRANCH   6  18
ATOM     18  C   UNL d   1     -39.738  15.157  18.695  0.00  0.00     0.282 C 
ATOM     19  N   UNL d   1     -39.222  14.717  18.211  0.00  0.00    -0.206 NA
ATOM     20  O   UNL d   1     -40.083  15.844  18.396  0.00  0.00    -0.265 OA
BRANCH  19  21
ATOM     21  C   UNL d   1     -39.062  14.968  17.446  0.00  0.00     0.102 C 
BRANCH  21  22
ATOM     22  C   UNL d   1     -38.687  14.455  16.909  0.00  0.00     0.019 A 
ATOM     23  C   UNL d   1     -38.393  14.756  16.199  0.00  0.00     0.002 A 
ATOM     24  C   UNL d   1     -38.018  14.254  15.657  0.00  0.00     0.000 A 
ATOM     25  C   UNL d   1     -37.940  13.447  15.832  0.00  0.00     0.000 A 
ATOM     26  C   UNL d   1     -38.240  13.152  16.553  0.00  0.00     0.000 A 
ATOM     27  C   UNL d   1     -38.612  13.657  17.086  0.00  0.00     0.002 A 
ENDBRANCH  21  22
ENDBRANCH  19  21
ENDBRANCH   6  18
BRANCH   5  28
ATOM     28  C   UNL d   1     -41.606  14.672  20.809  0.00  0.00     0.085 C 
BRANCH  28  29
ATOM     29  C   UNL d   1     -42.026  13.968  20.884  0.00  0.00     0.038 C 
BRANCH  29  30
ATOM     30  C   UNL d   1     -42.842  13.983  21.034  0.00  0.00     0.083 C 
BRANCH  30  31
ATOM     31  N   UNL d   1     -43.220  13.313  21.331  0.00  0.00    -0.285 N 
ATOM     32  C   UNL d   1     -42.890  12.568  21.396  0.00  0.00     0.183 A 
ATOM     33  N   UNL d   1     -43.481  12.065  21.728  0.00  0.00    -0.222 NA
ATOM     34  C   UNL d   1     -44.145  12.508  21.855  0.00  0.00     0.120 A 
ATOM     35  C   UNL d   1     -43.991  13.282  21.612  0.00  0.00     0.102 A 
ENDBRANCH  30  31
ENDBRANCH  29  30
ENDBRANCH  28  29
ENDBRANCH   5  28
TORSDOF 7
ENDMDL
