MODEL 1
REMARK VINA RESULT:      42.8      0.000      0.000
REMARK  4 active torsions:
REMARK  status: ('A' for Active; 'I' for Inactive)
REMARK    1  A    between atoms: C_15  and  C_2 
REMARK    2  A    between atoms: C_6  and  S_16 
REMARK    3  A    between atoms: N_8  and  C_11 
REMARK    4  A    between atoms: S_16  and  C_15 
ROOT
ATOM      1  C   UNL d   1      46.235 -17.951  40.207  0.00  0.00     0.141 A 
ATOM      2  N   UNL d   1      46.115 -17.726  40.977  0.00  0.00    -0.232 NA
ATOM      3  S   UNL d   1      46.455 -18.748  40.196  0.00  0.00    -0.060 SA
ATOM      4  C   UNL d   1      46.259 -18.384  41.465  0.00  0.00     0.090 A 
ATOM      5  C   UNL d   1      46.402 -19.223  42.627  0.00  0.00     0.128 A 
ATOM      6  C   UNL d   1      46.469 -19.016  40.994  0.00  0.00     0.049 A 
ATOM      7  C   UNL d   1      46.221 -18.474  42.288  0.00  0.00     0.043 A 
ATOM      8  C   UNL d   1      46.610 -19.847  42.153  0.00  0.00     0.024 A 
ATOM      9  C   UNL d   1      46.646 -19.751  41.335  0.00  0.00     0.010 A 
ENDROOT
BRANCH   1  10
ATOM     10  S   UNL d   1      46.149 -17.456  39.546  0.00  0.00    -0.059 SA
BRANCH  10  11
ATOM     11  C   UNL d   1      45.401 -17.279  39.262  0.00  0.00     0.059 C 
BRANCH  11  12
ATOM     12  C   UNL d   1      45.314 -16.774  38.604  0.00  0.00     0.112 A 
ATOM     13  C   UNL d   1      44.595 -16.663  38.184  0.00  0.00     0.119 A 
ATOM     14  N   UNL d   1      44.777 -16.118  37.583  0.00  0.00    -0.284 N 
ATOM     15 BR   UNL d   1      43.871 -17.027  38.346  0.00  0.00    -0.028 Br
ATOM     16  C   UNL d   1      45.567 -15.909  37.639  0.00  0.00     0.148 A 
ATOM     17  C   UNL d   1      44.301 -15.796  36.999  0.00  0.00     0.082 A 
ATOM     18  N   UNL d   1      45.894 -16.320  38.275  0.00  0.00    -0.226 NA
ATOM     19  C   UNL d   1      45.899 -15.375  37.111  0.00  0.00     0.037 A 
ATOM     20  C   UNL d   1      45.419 -15.052  36.524  0.00  0.00     0.005 A 
ATOM     21  C   UNL d   1      44.629 -15.260  36.468  0.00  0.00     0.019 A 
ENDBRANCH  11  12
ENDBRANCH  10  11
ENDBRANCH   1  10
BRANCH   5  22
ATOM     22  N   UNL d   1      46.361 -19.307  43.475  0.00  0.00    -0.114 N 
ATOM     23  O   UNL d   1      46.514 -18.662  43.967  0.00  0.00    -0.532 OA
ATOM     24  O   UNL d   1      46.167 -20.040  43.802  0.00  0.00    -0.532 OA
ENDBRANCH   5  22
TORSDOF 4
ENDMDL
MODEL 2
REMARK VINA RESULT:      45.1      2.743      5.703
REMARK  4 active torsions:
REMARK  status: ('A' for Active; 'I' for Inactive)
REMARK    1  A    between atoms: C_15  and  C_2 
REMARK    2  A    between atoms: C_6  and  S_16 
REMARK    3  A    between atoms: N_8  and  C_11 
REMARK    4  A    between atoms: S_16  and  C_15 
ROOT
ATOM      1  C   UNL d   1      45.445 -17.543  39.515  0.00  0.00     0.141 A 
ATOM      2  N   UNL d   1      44.733 -17.328  39.192  0.00  0.00    -0.232 NA
ATOM      3  S   UNL d   1      46.051 -17.178  39.088  0.00  0.00    -0.060 SA
ATOM      4  C   UNL d   1      44.883 -16.820  38.550  0.00  0.00     0.090 A 
ATOM      5  C   UNL d   1      44.693 -15.949  37.419  0.00  0.00     0.128 A 
ATOM      6  C   UNL d   1      45.689 -16.723  38.479  0.00  0.00     0.049 A 
ATOM      7  C   UNL d   1      44.370 -16.437  38.024  0.00  0.00     0.043 A 
ATOM      8  C   UNL d   1      45.496 -15.856  37.354  0.00  0.00     0.024 A 
ATOM      9  C   UNL d   1      46.001 -16.240  37.881  0.00  0.00     0.010 A 
ENDROOT
BRANCH   1  10
ATOM     10  S   UNL d   1      45.539 -18.047  40.169  0.00  0.00    -0.059 SA
BRANCH  10  11
ATOM     11  C   UNL d   1      46.265 -18.099  40.544  0.00  0.00     0.059 C 
BRANCH  11  12
ATOM     12  C   UNL d   1      46.328 -18.491  41.278  0.00  0.00     0.112 A 
ATOM     13  C   UNL d   1      46.505 -19.308  41.365  0.00  0.00     0.119 A 
ATOM     14  N   UNL d   1      46.509 -19.443  42.185  0.00  0.00    -0.284 N 
ATOM     15 BR   UNL d   1      46.643 -19.847  40.754  0.00  0.00    -0.028 Br
ATOM     16  C   UNL d   1      46.343 -18.741  42.574  0.00  0.00     0.148 A 
ATOM     17  C   UNL d   1      46.647 -20.131  42.607  0.00  0.00     0.082 A 
ATOM     18  N   UNL d   1      46.232 -18.155  42.004  0.00  0.00    -0.226 NA
ATOM     19  C   UNL d   1      46.311 -18.712  43.394  0.00  0.00     0.037 A 
ATOM     20  C   UNL d   1      46.450 -19.406  43.818  0.00  0.00     0.005 A 
ATOM     21  C   UNL d   1      46.616 -20.107  43.429  0.00  0.00     0.019 A 
ENDBRANCH  11  12
ENDBRANCH  10  11
ENDBRANCH   1  10
BRANCH   5  22
ATOM     22  N   UNL d   1      44.159 -15.558  36.881  0.00  0.00    -0.114 N 
ATOM     23  O   UNL d   1      43.373 -15.805  36.820  0.00  0.00    -0.532 OA
ATOM     24  O   UNL d   1      44.433 -14.930  36.420  0.00  0.00    -0.532 OA
ENDBRANCH   5  22
TORSDOF 4
ENDMDL
