MODEL 1
REMARK VINA RESULT:      61.7      0.000      0.000
REMARK  4 active torsions:
REMARK  status: ('A' for Active; 'I' for Inactive)
REMARK    1  A    between atoms: C_2  and  N_1 
REMARK       I    between atoms: C_4  and  N_1 
REMARK    2  A    between atoms: C_3  and  C_2 
REMARK    3  A    between atoms: N_5  and  C_2 
REMARK    4  A    between atoms: C_6  and  C_4 
ROOT
ATOM      1  C   UNL d   1     -47.065  31.240  35.105  0.00  0.00     0.170 C 
ENDROOT
BRANCH   1   2
ATOM      2  N   UNL d   1     -46.425  31.271  34.560  0.00  0.00    -0.191 NA
ATOM      3  C   UNL d   1     -46.468  31.776  33.878  0.00  0.00     0.280 C 
ATOM      4  O   UNL d   1     -45.813  31.818  33.306  0.00  0.00    -0.265 OA
BRANCH   3   5
ATOM      5  C   UNL d   1     -47.153  32.236  33.766  0.00  0.00     0.058 A 
ATOM      6  C   UNL d   1     -47.894  31.887  33.602  0.00  0.00     0.007 A 
ATOM      7  C   UNL d   1     -48.563  32.363  33.494  0.00  0.00     0.030 A 
ATOM      8  C   UNL d   1     -48.515  33.186  33.543  0.00  0.00     0.140 A 
ATOM      9  C   UNL d   1     -47.774  33.535  33.706  0.00  0.00     0.030 A 
ATOM     10  F   UNL d   1     -49.112  33.631  33.447  0.00  0.00    -0.204 F 
ATOM     11  C   UNL d   1     -47.080  33.050  33.820  0.00  0.00     0.007 A 
ENDBRANCH   3   5
ENDBRANCH   1   2
BRANCH   1  12
ATOM     12  C   UNL d   1     -47.419  31.820  35.503  0.00  0.00     0.249 C 
ATOM     13 CL   UNL d   1     -47.691  32.591  36.076  0.00  0.00    -0.075 Cl
ATOM     14 CL   UNL d   1     -46.877  32.254  35.987  0.00  0.00    -0.075 Cl
ATOM     15 CL   UNL d   1     -47.968  31.811  35.367  0.00  0.00    -0.075 Cl
ENDBRANCH   1  12
BRANCH   1  16
ATOM     16  N   UNL d   1     -47.398  30.524  35.277  0.00  0.00    -0.286 N 
ATOM     17  C   UNL d   1     -47.852  30.133  34.738  0.00  0.00     0.108 A 
ATOM     18  C   UNL d   1     -48.185  29.410  34.917  0.00  0.00     0.142 A 
ATOM     19  O   UNL d   1     -48.056  29.087  35.648  0.00  0.00    -0.300 OA
ATOM     20  C   UNL d   1     -47.609  29.470  36.182  0.00  0.00     0.142 A 
ATOM     21  C   UNL d   1     -47.282  30.189  35.993  0.00  0.00     0.108 A 
ENDBRANCH   1  16
TORSDOF 4
ENDMDL
MODEL 2
REMARK VINA RESULT:      62.1      1.566      3.037
REMARK  4 active torsions:
REMARK  status: ('A' for Active; 'I' for Inactive)
REMARK    1  A    between atoms: C_2  and  N_1 
REMARK       I    between atoms: C_4  and  N_1 
REMARK    2  A    between atoms: C_3  and  C_2 
REMARK    3  A    between atoms: N_5  and  C_2 
REMARK    4  A    between atoms: C_6  and  C_4 
ROOT
ATOM      1  C   UNL d   1     -47.095  31.871  34.583  0.00  0.00     0.170 C 
ENDROOT
BRANCH   1   2
ATOM      2  N   UNL d   1     -46.527  31.409  34.167  0.00  0.00    -0.191 NA
ATOM      3  C   UNL d   1     -46.451  30.579  34.329  0.00  0.00     0.280 C 
ATOM      4  O   UNL d   1     -45.868  30.088  33.907  0.00  0.00    -0.265 OA
BRANCH   3   5
ATOM      5  C   UNL d   1     -46.946  30.238  34.905  0.00  0.00     0.058 A 
ATOM      6  C   UNL d   1     -46.769  30.283  35.720  0.00  0.00     0.007 A 
ATOM      7  C   UNL d   1     -47.276  29.936  36.275  0.00  0.00     0.030 A 
ATOM      8  C   UNL d   1     -47.962  29.542  36.041  0.00  0.00     0.140 A 
ATOM      9  C   UNL d   1     -48.139  29.497  35.226  0.00  0.00     0.030 A 
ATOM     10  F   UNL d   1     -48.432  29.223  36.532  0.00  0.00    -0.204 F 
ATOM     11  C   UNL d   1     -47.621  29.851  34.648  0.00  0.00     0.007 A 
ENDBRANCH   3   5
ENDBRANCH   1   2
BRANCH   1  12
ATOM     12  C   UNL d   1     -47.190  31.978  35.357  0.00  0.00     0.249 C 
ATOM     13 CL   UNL d   1     -47.144  32.211  36.326  0.00  0.00    -0.075 Cl
ATOM     14 CL   UNL d   1     -46.561  32.431  35.698  0.00  0.00    -0.075 Cl
ATOM     15 CL   UNL d   1     -47.670  31.720  35.508  0.00  0.00    -0.075 Cl
ENDBRANCH   1  12
BRANCH   1  16
ATOM     16  N   UNL d   1     -47.645  32.286  34.161  0.00  0.00    -0.286 N 
ATOM     17  C   UNL d   1     -48.422  32.069  34.159  0.00  0.00     0.108 A 
ATOM     18  C   UNL d   1     -48.973  32.492  33.731  0.00  0.00     0.142 A 
ATOM     19  O   UNL d   1     -48.731  33.137  33.306  0.00  0.00    -0.300 OA
ATOM     20  C   UNL d   1     -47.966  33.353  33.306  0.00  0.00     0.142 A 
ATOM     21  C   UNL d   1     -47.426  32.926  33.735  0.00  0.00     0.108 A 
ENDBRANCH   1  16
TORSDOF 4
ENDMDL
MODEL 3
REMARK VINA RESULT:      63.0      5.616      7.305
REMARK  4 active torsions:
REMARK  status: ('A' for Active; 'I' for Inactive)
REMARK    1  A    between atoms: C_2  and  N_1 
REMARK       I    between atoms: C_4  and  N_1 
REMARK    2  A    between atoms: C_3  and  C_2 
REMARK    3  A    between atoms: N_5  and  C_2 
REMARK    4  A    between atoms: C_6  and  C_4 
ROOT
ATOM      1  C   UNL d   1     -51.212  26.577  34.580  0.00  0.00     0.170 C 
ENDROOT
BRANCH   1   2
ATOM      2  N   UNL d   1     -51.943  26.646  34.168  0.00  0.00    -0.191 NA
ATOM      3  C   UNL d   1     -52.254  25.985  33.736  0.00  0.00     0.280 C 
ATOM      4  O   UNL d   1     -53.009  26.042  33.306  0.00  0.00    -0.265 OA
BRANCH   3   5
ATOM      5  C   UNL d   1     -51.821  25.273  33.730  0.00  0.00     0.058 A 
ATOM      6  C   UNL d   1     -52.094  24.590  34.124  0.00  0.00     0.007 A 
ATOM      7  C   UNL d   1     -51.647  23.893  34.105  0.00  0.00     0.030 A 
ATOM      8  C   UNL d   1     -50.929  23.856  33.700  0.00  0.00     0.140 A 
ATOM      9  C   UNL d   1     -50.656  24.539  33.306  0.00  0.00     0.030 A 
ATOM     10  F   UNL d   1     -50.513  23.232  33.673  0.00  0.00    -0.204 F 
ATOM     11  C   UNL d   1     -51.112  25.261  33.321  0.00  0.00     0.007 A 
ENDBRANCH   3   5
ENDBRANCH   1   2
BRANCH   1  12
ATOM     12  C   UNL d   1     -51.054  26.251  35.278  0.00  0.00     0.249 C 
ATOM     13 CL   UNL d   1     -50.948  25.989  36.236  0.00  0.00    -0.075 Cl
ATOM     14 CL   UNL d   1     -51.355  26.709  35.923  0.00  0.00    -0.075 Cl
ATOM     15 CL   UNL d   1     -50.768  25.771  35.183  0.00  0.00    -0.075 Cl
ENDBRANCH   1  12
BRANCH   1  16
ATOM     16  N   UNL d   1     -50.543  26.880  34.242  0.00  0.00    -0.286 N 
ATOM     17  C   UNL d   1     -50.583  27.421  33.647  0.00  0.00     0.108 A 
ATOM     18  C   UNL d   1     -49.903  27.723  33.310  0.00  0.00     0.142 A 
ATOM     19  O   UNL d   1     -49.183  27.471  33.581  0.00  0.00    -0.300 OA
ATOM     20  C   UNL d   1     -49.141  26.936  34.168  0.00  0.00     0.142 A 
ATOM     21  C   UNL d   1     -49.823  26.643  34.497  0.00  0.00     0.108 A 
ENDBRANCH   1  16
TORSDOF 4
ENDMDL
MODEL 4
REMARK VINA RESULT:      64.4      1.914      3.274
REMARK  4 active torsions:
REMARK  status: ('A' for Active; 'I' for Inactive)
REMARK    1  A    between atoms: C_2  and  N_1 
REMARK       I    between atoms: C_4  and  N_1 
REMARK    2  A    between atoms: C_3  and  C_2 
REMARK    3  A    between atoms: N_5  and  C_2 
REMARK    4  A    between atoms: C_6  and  C_4 
ROOT
ATOM      1  C   UNL d   1     -47.070  32.204  34.490  0.00  0.00     0.170 C 
ENDROOT
BRANCH   1   2
ATOM      2  N   UNL d   1     -46.913  32.375  35.299  0.00  0.00    -0.191 NA
ATOM      3  C   UNL d   1     -47.021  31.776  35.891  0.00  0.00     0.280 C 
ATOM      4  O   UNL d   1     -46.862  31.940  36.732  0.00  0.00    -0.265 OA
BRANCH   3   5
ATOM      5  C   UNL d   1     -47.284  31.023  35.653  0.00  0.00     0.058 A 
ATOM      6  C   UNL d   1     -48.060  30.897  35.373  0.00  0.00     0.007 A 
ATOM      7  C   UNL d   1     -48.301  30.139  35.141  0.00  0.00     0.030 A 
ATOM      8  C   UNL d   1     -47.786  29.496  35.182  0.00  0.00     0.140 A 
ATOM      9  C   UNL d   1     -47.010  29.622  35.462  0.00  0.00     0.030 A 
ATOM     10  F   UNL d   1     -47.989  28.803  34.976  0.00  0.00    -0.204 F 
ATOM     11  C   UNL d   1     -46.755  30.400  35.703  0.00  0.00     0.007 A 
ENDBRANCH   3   5
ENDBRANCH   1   2
BRANCH   1  12
ATOM     12  C   UNL d   1     -46.725  31.687  34.007  0.00  0.00     0.249 C 
ATOM     13 CL   UNL d   1     -46.142  31.157  33.393  0.00  0.00    -0.075 Cl
ATOM     14 CL   UNL d   1     -45.956  31.941  33.760  0.00  0.00    -0.075 Cl
ATOM     15 CL   UNL d   1     -47.082  31.254  33.935  0.00  0.00    -0.075 Cl
ENDBRANCH   1  12
BRANCH   1  16
ATOM     16  N   UNL d   1     -47.657  32.609  34.111  0.00  0.00    -0.286 N 
ATOM     17  C   UNL d   1     -48.424  32.364  34.144  0.00  0.00     0.108 A 
ATOM     18  C   UNL d   1     -49.013  32.779  33.760  0.00  0.00     0.142 A 
ATOM     19  O   UNL d   1     -48.818  33.444  33.341  0.00  0.00    -0.300 OA
ATOM     20  C   UNL d   1     -48.062  33.688  33.306  0.00  0.00     0.142 A 
ATOM     21  C   UNL d   1     -47.484  33.268  33.693  0.00  0.00     0.108 A 
ENDBRANCH   1  16
TORSDOF 4
ENDMDL
