MODEL 1
REMARK VINA RESULT:      50.2      0.000      0.000
REMARK  5 active torsions:
REMARK  status: ('A' for Active; 'I' for Inactive)
REMARK    1  A    between atoms: O_2  and  S_1 
REMARK    2  A    between atoms: C_3  and  S_1 
REMARK    3  A    between atoms: C_6  and  O_2 
REMARK    4  A    between atoms: O_17  and  C_14 
REMARK    5  A    between atoms: C_20  and  O_17 
ROOT
ATOM      1  S   UNL d   1     -55.392-100.414 -43.973  0.00  0.00     0.304 S 
ATOM      2  O   UNL d   1     -55.659-100.469 -43.196  0.00  0.00    -0.193 OA
ATOM      3  O   UNL d   1     -55.125-100.359 -44.748  0.00  0.00    -0.193 OA
ENDROOT
BRANCH   1   4
ATOM      4  O   UNL d   1     -54.711-100.827 -43.768  0.00  0.00    -0.227 OA
BRANCH   4   5
ATOM      5  C   UNL d   1     -54.714-101.328 -43.113  0.00  0.00     0.114 A 
ATOM      6  C   UNL d   1     -54.711-101.012 -42.347  0.00  0.00     0.026 A 
ATOM      7  C   UNL d   1     -54.714-101.512 -41.696  0.00  0.00     0.002 A 
ATOM      8  C   UNL d   1     -54.711-101.196 -40.934  0.00  0.00     0.000 A 
ATOM      9  C   UNL d   1     -54.720-102.335 -41.803  0.00  0.00     0.000 A 
ATOM     10  C   UNL d   1     -54.715-101.697 -40.275  0.00  0.00     0.000 A 
ATOM     11  C   UNL d   1     -54.721-102.520 -40.382  0.00  0.00     0.000 A 
ATOM     12  C   UNL d   1     -54.724-102.836 -41.147  0.00  0.00     0.000 A 
ATOM     13  C   UNL d   1     -54.723-102.652 -42.560  0.00  0.00     0.002 A 
ATOM     14  C   UNL d   1     -54.720-102.151 -43.220  0.00  0.00     0.026 A 
ENDBRANCH   4   5
ENDBRANCH   1   4
BRANCH   1  15
ATOM     15  C   UNL d   1     -56.073-100.001 -44.178  0.00  0.00     0.111 A 
ATOM     16  C   UNL d   1     -56.817-100.336 -44.046  0.00  0.00     0.015 A 
ATOM     17  C   UNL d   1     -57.498 -99.922 -44.252  0.00  0.00     0.025 A 
ATOM     18  C   UNL d   1     -57.446 -99.169 -44.591  0.00  0.00     0.100 A 
ATOM     19  C   UNL d   1     -56.700 -98.839 -44.720  0.00  0.00     0.025 A 
ATOM     20  C   UNL d   1     -56.019 -99.252 -44.515  0.00  0.00     0.015 A 
BRANCH  18  21
ATOM     21  O   UNL d   1     -58.127 -98.756 -44.796  0.00  0.00    -0.305 OA
BRANCH  21  22
ATOM     22  C   UNL d   1     -58.798 -99.163 -45.038  0.00  0.00     0.123 C 
ATOM     23  C   UNL d   1     -59.532 -98.791 -45.028  0.00  0.00     0.029 C 
ENDBRANCH  21  22
ENDBRANCH  18  21
ENDBRANCH   1  15
TORSDOF 5
ENDMDL
