MODEL 1
REMARK VINA RESULT:     -10.5      0.000      0.000
REMARK  3 active torsions:
REMARK  status: ('A' for Active; 'I' for Inactive)
REMARK    1  A    between atoms: N_12  and  C_6 
REMARK    2  A    between atoms: C_18  and  N_12 
REMARK    3  A    between atoms: C_19  and  C_18 
ROOT
ATOM      1  N   UNL d   1      52.987  32.834  53.516  0.00  0.00    -0.175 N 
ATOM      2  C   UNL d   1      52.298  32.633  53.176  0.00  0.00     0.167 A 
ATOM      3  N   UNL d   1      53.137  33.626  53.696  0.00  0.00    -0.142 NA
ATOM      4  C   UNL d   1      53.534  32.283  53.687  0.00  0.00     0.283 A 
ATOM      5  N   UNL d   1      52.139  31.875  52.997  0.00  0.00    -0.227 NA
ATOM      6  C   UNL d   1      52.580  34.210  53.526  0.00  0.00     0.182 A 
ATOM      7  C   UNL d   1      53.384  31.492  53.507  0.00  0.00     0.076 A 
ATOM      8  C   UNL d   1      51.741  33.218  53.006  0.00  0.00     0.039 A 
ATOM      9  C   UNL d   1      52.695  31.290  53.167  0.00  0.00     0.088 A 
ATOM     10  C   UNL d   1      51.891  34.009  53.185  0.00  0.00     0.041 A 
ATOM     11  O   UNL d   1      54.255  32.494  54.043  0.00  0.00    -0.265 OA
ATOM     12  C   UNL d   1      53.941  30.906  53.677  0.00  0.00     0.006 A 
ATOM     13  C   UNL d   1      51.021  33.007  52.649  0.00  0.00     0.003 A 
ATOM     14  C   UNL d   1      51.334  34.594  53.015  0.00  0.00     0.003 A 
ATOM     15  C   UNL d   1      52.546  30.498  52.987  0.00  0.00     0.019 A 
ATOM     16  C   UNL d   1      53.771  30.110  53.488  0.00  0.00     0.000 A 
ATOM     17  C   UNL d   1      50.465  33.591  52.479  0.00  0.00     0.000 A 
ATOM     18  C   UNL d   1      50.614  34.383  52.658  0.00  0.00     0.000 A 
ATOM     19  C   UNL d   1      53.123  29.920  53.168  0.00  0.00     0.002 A 
ENDROOT
BRANCH   6  20
ATOM     20  N   UNL d   1      52.693  35.029  53.692  0.00  0.00    -0.220 NA
BRANCH  20  21
ATOM     21  C   UNL d   1      53.058  35.265  54.397  0.00  0.00     0.146 C 
BRANCH  21  22
ATOM     22  C   UNL d   1      53.353  36.015  54.488  0.00  0.00     0.255 C 
ATOM     23  O   UNL d   1      52.948  36.551  54.989  0.00  0.00    -0.281 OA
ENDBRANCH  21  22
ENDBRANCH  20  21
ENDBRANCH   6  20
TORSDOF 3
ENDMDL
MODEL 2
REMARK VINA RESULT:     -10.1      1.175      3.278
REMARK  3 active torsions:
REMARK  status: ('A' for Active; 'I' for Inactive)
REMARK    1  A    between atoms: N_12  and  C_6 
REMARK    2  A    between atoms: C_18  and  N_12 
REMARK    3  A    between atoms: C_19  and  C_18 
ROOT
ATOM      1  N   UNL d   1      52.480  33.533  53.543  0.00  0.00    -0.175 N 
ATOM      2  C   UNL d   1      52.240  32.849  53.217  0.00  0.00     0.167 A 
ATOM      3  N   UNL d   1      53.203  33.564  53.938  0.00  0.00    -0.142 NA
ATOM      4  C   UNL d   1      52.031  34.187  53.493  0.00  0.00     0.283 A 
ATOM      5  N   UNL d   1      51.546  32.802  52.833  0.00  0.00    -0.227 NA
ATOM      6  C   UNL d   1      53.681  32.895  53.999  0.00  0.00     0.182 A 
ATOM      7  C   UNL d   1      51.307  34.156  53.098  0.00  0.00     0.076 A 
ATOM      8  C   UNL d   1      52.719  32.180  53.278  0.00  0.00     0.039 A 
ATOM      9  C   UNL d   1      51.068  33.472  52.771  0.00  0.00     0.088 A 
ATOM     10  C   UNL d   1      53.442  32.211  53.673  0.00  0.00     0.041 A 
ATOM     11  O   UNL d   1      52.282  34.903  53.834  0.00  0.00    -0.265 OA
ATOM     12  C   UNL d   1      50.829  34.826  53.036  0.00  0.00     0.006 A 
ATOM     13  C   UNL d   1      52.468  31.464  52.937  0.00  0.00     0.003 A 
ATOM     14  C   UNL d   1      53.920  31.541  53.734  0.00  0.00     0.003 A 
ATOM     15  C   UNL d   1      50.344  33.441  52.376  0.00  0.00     0.019 A 
ATOM     16  C   UNL d   1      50.098  34.773  52.631  0.00  0.00     0.000 A 
ATOM     17  C   UNL d   1      52.946  30.795  52.998  0.00  0.00     0.000 A 
ATOM     18  C   UNL d   1      53.670  30.826  53.393  0.00  0.00     0.000 A 
ATOM     19  C   UNL d   1      49.873  34.130  52.325  0.00  0.00     0.002 A 
ENDROOT
BRANCH   6  20
ATOM     20  N   UNL d   1      54.426  32.885  54.393  0.00  0.00    -0.220 NA
BRANCH  20  21
ATOM     21  C   UNL d   1      54.645  33.510  54.890  0.00  0.00     0.146 C 
BRANCH  21  22
ATOM     22  C   UNL d   1      55.422  33.655  55.068  0.00  0.00     0.255 C 
ATOM     23  O   UNL d   1      55.604  34.235  55.645  0.00  0.00    -0.281 OA
ENDBRANCH  21  22
ENDBRANCH  20  21
ENDBRANCH   6  20
TORSDOF 3
ENDMDL
MODEL 3
REMARK VINA RESULT:     -10.0      1.428      2.324
REMARK  3 active torsions:
REMARK  status: ('A' for Active; 'I' for Inactive)
REMARK    1  A    between atoms: N_12  and  C_6 
REMARK    2  A    between atoms: C_18  and  N_12 
REMARK    3  A    between atoms: C_19  and  C_18 
ROOT
ATOM      1  N   UNL d   1      52.382  32.565  53.221  0.00  0.00    -0.175 N 
ATOM      2  C   UNL d   1      52.988  32.795  53.681  0.00  0.00     0.167 A 
ATOM      3  N   UNL d   1      51.815  33.117  52.988  0.00  0.00    -0.142 NA
ATOM      4  C   UNL d   1      52.316  31.810  52.982  0.00  0.00     0.283 A 
ATOM      5  N   UNL d   1      53.542  32.276  53.914  0.00  0.00    -0.227 NA
ATOM      6  C   UNL d   1      51.869  33.904  53.227  0.00  0.00     0.182 A 
ATOM      7  C   UNL d   1      52.883  31.257  53.215  0.00  0.00     0.076 A 
ATOM      8  C   UNL d   1      53.041  33.583  53.920  0.00  0.00     0.039 A 
ATOM      9  C   UNL d   1      53.489  31.487  53.675  0.00  0.00     0.088 A 
ATOM     10  C   UNL d   1      52.474  34.135  53.687  0.00  0.00     0.041 A 
ATOM     11  O   UNL d   1      51.682  31.569  52.501  0.00  0.00    -0.265 OA
ATOM     12  C   UNL d   1      52.830  30.469  52.976  0.00  0.00     0.006 A 
ATOM     13  C   UNL d   1      53.675  33.823  54.401  0.00  0.00     0.003 A 
ATOM     14  C   UNL d   1      52.528  34.923  53.926  0.00  0.00     0.003 A 
ATOM     15  C   UNL d   1      54.056  30.935  53.908  0.00  0.00     0.019 A 
ATOM     16  C   UNL d   1      53.415  29.924  53.223  0.00  0.00     0.000 A 
ATOM     17  C   UNL d   1      53.728  34.611  54.639  0.00  0.00     0.000 A 
ATOM     18  C   UNL d   1      53.161  35.163  54.407  0.00  0.00     0.000 A 
ATOM     19  C   UNL d   1      53.984  30.140  53.655  0.00  0.00     0.002 A 
ENDROOT
BRANCH   6  20
ATOM     20  N   UNL d   1      51.311  34.499  53.012  0.00  0.00    -0.220 NA
BRANCH  20  21
ATOM     21  C   UNL d   1      50.592  34.290  52.659  0.00  0.00     0.146 C 
BRANCH  21  22
ATOM     22  C   UNL d   1      49.958  34.795  52.663  0.00  0.00     0.255 C 
ATOM     23  O   UNL d   1      49.325  34.653  52.132  0.00  0.00    -0.281 OA
ENDBRANCH  21  22
ENDBRANCH  20  21
ENDBRANCH   6  20
TORSDOF 3
ENDMDL
MODEL 4
REMARK VINA RESULT:      -9.5      1.552      4.047
REMARK  3 active torsions:
REMARK  status: ('A' for Active; 'I' for Inactive)
REMARK    1  A    between atoms: N_12  and  C_6 
REMARK    2  A    between atoms: C_18  and  N_12 
REMARK    3  A    between atoms: C_19  and  C_18 
ROOT
ATOM      1  N   UNL d   1      52.252  32.771  53.449  0.00  0.00    -0.175 N 
ATOM      2  C   UNL d   1      52.594  33.407  53.780  0.00  0.00     0.167 A 
ATOM      3  N   UNL d   1      52.632  32.039  53.486  0.00  0.00    -0.142 NA
ATOM      4  C   UNL d   1      51.549  32.830  53.084  0.00  0.00     0.283 A 
ATOM      5  N   UNL d   1      52.242  34.119  53.753  0.00  0.00    -0.227 NA
ATOM      6  C   UNL d   1      53.362  31.960  53.861  0.00  0.00     0.182 A 
ATOM      7  C   UNL d   1      51.169  33.561  53.047  0.00  0.00     0.076 A 
ATOM      8  C   UNL d   1      53.325  33.328  54.156  0.00  0.00     0.039 A 
ATOM      9  C   UNL d   1      51.511  34.198  53.378  0.00  0.00     0.088 A 
ATOM     10  C   UNL d   1      53.704  32.597  54.192  0.00  0.00     0.041 A 
ATOM     11  O   UNL d   1      51.191  32.163  52.737  0.00  0.00    -0.265 OA
ATOM     12  C   UNL d   1      50.438  33.641  52.671  0.00  0.00     0.006 A 
ATOM     13  C   UNL d   1      53.682  33.993  54.502  0.00  0.00     0.003 A 
ATOM     14  C   UNL d   1      54.435  32.517  54.568  0.00  0.00     0.003 A 
ATOM     15  C   UNL d   1      51.131  34.930  53.341  0.00  0.00     0.019 A 
ATOM     16  C   UNL d   1      50.069  34.391  52.644  0.00  0.00     0.000 A 
ATOM     17  C   UNL d   1      54.412  33.914  54.877  0.00  0.00     0.000 A 
ATOM     18  C   UNL d   1      54.792  33.183  54.914  0.00  0.00     0.000 A 
ATOM     19  C   UNL d   1      50.391  34.990  52.955  0.00  0.00     0.002 A 
ENDROOT
BRANCH   6  20
ATOM     20  N   UNL d   1      53.783  31.232  53.921  0.00  0.00    -0.220 NA
BRANCH  20  21
ATOM     21  C   UNL d   1      53.412  30.518  53.726  0.00  0.00     0.146 C 
BRANCH  21  22
ATOM     22  C   UNL d   1      53.778  29.805  53.849  0.00  0.00     0.255 C 
ATOM     23  O   UNL d   1      53.310  29.138  54.046  0.00  0.00    -0.281 OA
ENDBRANCH  21  22
ENDBRANCH  20  21
ENDBRANCH   6  20
TORSDOF 3
ENDMDL
MODEL 5
REMARK VINA RESULT:      -8.5      1.640      3.141
REMARK  3 active torsions:
REMARK  status: ('A' for Active; 'I' for Inactive)
REMARK    1  A    between atoms: N_12  and  C_6 
REMARK    2  A    between atoms: C_18  and  N_12 
REMARK    3  A    between atoms: C_19  and  C_18 
ROOT
ATOM      1  N   UNL d   1      52.959  33.650  54.008  0.00  0.00    -0.175 N 
ATOM      2  C   UNL d   1      53.298  32.936  53.920  0.00  0.00     0.167 A 
ATOM      3  N   UNL d   1      52.213  33.790  53.684  0.00  0.00    -0.142 NA
ATOM      4  C   UNL d   1      53.330  34.230  54.405  0.00  0.00     0.283 A 
ATOM      5  N   UNL d   1      54.015  32.785  54.226  0.00  0.00    -0.227 NA
ATOM      6  C   UNL d   1      51.815  33.200  53.269  0.00  0.00     0.182 A 
ATOM      7  C   UNL d   1      54.075  34.090  54.730  0.00  0.00     0.076 A 
ATOM      8  C   UNL d   1      52.899  32.345  53.504  0.00  0.00     0.039 A 
ATOM      9  C   UNL d   1      54.414  33.376  54.641  0.00  0.00     0.088 A 
ATOM     10  C   UNL d   1      52.154  32.486  53.180  0.00  0.00     0.041 A 
ATOM     11  O   UNL d   1      52.975  34.977  54.498  0.00  0.00    -0.265 OA
ATOM     12  C   UNL d   1      54.475  34.681  55.146  0.00  0.00     0.006 A 
ATOM     13  C   UNL d   1      53.252  31.599  53.411  0.00  0.00     0.003 A 
ATOM     14  C   UNL d   1      51.754  31.895  52.764  0.00  0.00     0.003 A 
ATOM     15  C   UNL d   1      55.160  33.236  54.966  0.00  0.00     0.019 A 
ATOM     16  C   UNL d   1      55.230  34.519  55.467  0.00  0.00     0.000 A 
ATOM     17  C   UNL d   1      52.854  31.009  52.996  0.00  0.00     0.000 A 
ATOM     18  C   UNL d   1      52.108  31.149  52.672  0.00  0.00     0.000 A 
ATOM     19  C   UNL d   1      55.548  33.848  55.384  0.00  0.00     0.002 A 
ENDROOT
BRANCH   6  20
ATOM     20  N   UNL d   1      51.053  33.301  52.922  0.00  0.00    -0.220 NA
BRANCH  20  21
ATOM     21  C   UNL d   1      50.685  34.042  52.933  0.00  0.00     0.146 C 
BRANCH  21  22
ATOM     22  C   UNL d   1      49.979  34.169  52.555  0.00  0.00     0.255 C 
ATOM     23  O   UNL d   1      49.536  34.854  52.745  0.00  0.00    -0.281 OA
ENDBRANCH  21  22
ENDBRANCH  20  21
ENDBRANCH   6  20
TORSDOF 3
ENDMDL
MODEL 6
REMARK VINA RESULT:      -8.0      1.430      3.492
REMARK  3 active torsions:
REMARK  status: ('A' for Active; 'I' for Inactive)
REMARK    1  A    between atoms: N_12  and  C_6 
REMARK    2  A    between atoms: C_18  and  N_12 
REMARK    3  A    between atoms: C_19  and  C_18 
ROOT
ATOM      1  N   UNL d   1      53.486  32.686  53.936  0.00  0.00    -0.175 N 
ATOM      2  C   UNL d   1      52.994  33.310  53.901  0.00  0.00     0.167 A 
ATOM      3  N   UNL d   1      53.270  31.977  53.574  0.00  0.00    -0.142 NA
ATOM      4  C   UNL d   1      54.181  32.737  54.316  0.00  0.00     0.283 A 
ATOM      5  N   UNL d   1      53.187  34.000  54.244  0.00  0.00    -0.227 NA
ATOM      6  C   UNL d   1      52.551  31.907  53.176  0.00  0.00     0.182 A 
ATOM      7  C   UNL d   1      54.397  33.446  54.678  0.00  0.00     0.076 A 
ATOM      8  C   UNL d   1      52.275  33.239  53.502  0.00  0.00     0.039 A 
ATOM      9  C   UNL d   1      53.906  34.070  54.643  0.00  0.00     0.088 A 
ATOM     10  C   UNL d   1      52.060  32.531  53.140  0.00  0.00     0.041 A 
ATOM     11  O   UNL d   1      54.696  32.084  54.353  0.00  0.00    -0.265 OA
ATOM     12  C   UNL d   1      55.117  33.517  55.077  0.00  0.00     0.006 A 
ATOM     13  C   UNL d   1      51.762  33.892  53.465  0.00  0.00     0.003 A 
ATOM     14  C   UNL d   1      51.341  32.460  52.741  0.00  0.00     0.003 A 
ATOM     15  C   UNL d   1      54.122  34.780  55.005  0.00  0.00     0.019 A 
ATOM     16  C   UNL d   1      55.317  34.244  55.438  0.00  0.00     0.000 A 
ATOM     17  C   UNL d   1      51.043  33.822  53.067  0.00  0.00     0.000 A 
ATOM     18  C   UNL d   1      50.827  33.112  52.704  0.00  0.00     0.000 A 
ATOM     19  C   UNL d   1      54.855  34.831  55.405  0.00  0.00     0.002 A 
ENDROOT
BRANCH   6  20
ATOM     20  N   UNL d   1      52.293  31.201  52.793  0.00  0.00    -0.220 NA
BRANCH  20  21
ATOM     21  C   UNL d   1      52.700  30.490  52.910  0.00  0.00     0.146 C 
BRANCH  21  22
ATOM     22  C   UNL d   1      52.331  29.774  52.824  0.00  0.00     0.255 C 
ATOM     23  O   UNL d   1      52.612  29.118  53.265  0.00  0.00    -0.281 OA
ENDBRANCH  21  22
ENDBRANCH  20  21
ENDBRANCH   6  20
TORSDOF 3
ENDMDL
