MODEL 1
REMARK VINA RESULT:      58.1      0.000      0.000
REMARK  5 active torsions:
REMARK  status: ('A' for Active; 'I' for Inactive)
REMARK       I    between atoms: N_2  and  C_1 
REMARK    1  A    between atoms: C_11  and  C_1 
REMARK    2  A    between atoms: C_4  and  N_2 
REMARK    3  A    between atoms: C_3  and  C_4 
REMARK    4  A    between atoms: C_5  and  C_3 
REMARK    5  A    between atoms: N_6  and  C_3 
ROOT
ATOM      1  C   UNL d   1      58.174  49.599  50.441  0.00  0.00     0.088 C 
ENDROOT
BRANCH   1   2
ATOM      2  C   UNL d   1      58.934  49.581  50.123  0.00  0.00     0.101 C 
ATOM      3  C   UNL d   1      59.043  49.692  49.317  0.00  0.00     0.022 C 
BRANCH   2   4
ATOM      4  N   UNL d   1      59.578  49.450  50.619  0.00  0.00    -0.206 NA
ATOM      5  C   UNL d   1      60.311  49.227  50.296  0.00  0.00     0.279 C 
ATOM      6  O   UNL d   1      60.385  49.140  49.480  0.00  0.00    -0.265 OA
BRANCH   5   7
ATOM      7  C   UNL d   1      60.955  49.097  50.792  0.00  0.00     0.058 A 
ATOM      8  C   UNL d   1      61.510  49.701  50.932  0.00  0.00     0.005 A 
ATOM      9  C   UNL d   1      62.147  49.559  51.428  0.00  0.00     0.000 A 
ATOM     10  C   UNL d   1      62.244  48.819  51.792  0.00  0.00     0.000 A 
ATOM     11  C   UNL d   1      61.692  48.224  51.650  0.00  0.00     0.000 A 
ATOM     12  C   UNL d   1      61.047  48.360  51.151  0.00  0.00     0.005 A 
ENDBRANCH   5   7
ENDBRANCH   2   4
ENDBRANCH   1   2
BRANCH   1  13
ATOM     13  C   UNL d   1      57.516  49.599  49.943  0.00  0.00     0.047 A 
ATOM     14  S   UNL d   1      56.722  49.530  50.171  0.00  0.00    -0.085 SA
ATOM     15  C   UNL d   1      56.254  49.556  49.493  0.00  0.00     0.035 A 
ATOM     16  C   UNL d   1      56.748  49.640  48.834  0.00  0.00     0.007 A 
ATOM     17  C   UNL d   1      57.536  49.667  49.109  0.00  0.00     0.009 A 
ENDBRANCH   1  13
BRANCH   1  18
ATOM     18  N   UNL d   1      58.064  49.619  51.265  0.00  0.00    -0.299 N 
ATOM     19  C   UNL d   1      58.710  49.686  51.762  0.00  0.00     0.107 A 
ATOM     20  C   UNL d   1      58.612  49.707  52.580  0.00  0.00     0.142 A 
ATOM     21  O   UNL d   1      57.849  49.659  52.913  0.00  0.00    -0.300 OA
ATOM     22  C   UNL d   1      57.194  49.591  52.404  0.00  0.00     0.142 A 
ATOM     23  C   UNL d   1      57.302  49.571  51.584  0.00  0.00     0.107 A 
ENDBRANCH   1  18
TORSDOF 5
ENDMDL
MODEL 2
REMARK VINA RESULT:      61.0      1.348      2.489
REMARK  5 active torsions:
REMARK  status: ('A' for Active; 'I' for Inactive)
REMARK       I    between atoms: N_2  and  C_1 
REMARK    1  A    between atoms: C_11  and  C_1 
REMARK    2  A    between atoms: C_4  and  N_2 
REMARK    3  A    between atoms: C_3  and  C_4 
REMARK    4  A    between atoms: C_5  and  C_3 
REMARK    5  A    between atoms: N_6  and  C_3 
ROOT
ATOM      1  C   UNL d   1      57.747  49.282  51.427  0.00  0.00     0.088 C 
ENDROOT
BRANCH   1   2
ATOM      2  C   UNL d   1      58.551  49.248  51.606  0.00  0.00     0.101 C 
ATOM      3  C   UNL d   1      58.793  49.146  52.382  0.00  0.00     0.022 C 
BRANCH   2   4
ATOM      4  N   UNL d   1      59.104  49.319  51.000  0.00  0.00    -0.206 NA
ATOM      5  C   UNL d   1      59.914  49.349  51.181  0.00  0.00     0.279 C 
ATOM      6  O   UNL d   1      60.157  49.309  51.967  0.00  0.00    -0.265 OA
BRANCH   5   7
ATOM      7  C   UNL d   1      60.468  49.420  50.574  0.00  0.00     0.058 A 
ATOM      8  C   UNL d   1      61.274  49.276  50.720  0.00  0.00     0.005 A 
ATOM      9  C   UNL d   1      61.815  49.349  50.108  0.00  0.00     0.000 A 
ATOM     10  C   UNL d   1      61.567  49.565  49.346  0.00  0.00     0.000 A 
ATOM     11  C   UNL d   1      60.768  49.707  49.207  0.00  0.00     0.000 A 
ATOM     12  C   UNL d   1      60.216  49.635  49.819  0.00  0.00     0.005 A 
ENDBRANCH   5   7
ENDBRANCH   2   4
ENDBRANCH   1   2
BRANCH   1  13
ATOM     13  C   UNL d   1      57.197  49.445  52.021  0.00  0.00     0.047 A 
ATOM     14  S   UNL d   1      57.358  49.556  52.827  0.00  0.00    -0.085 SA
ATOM     15  C   UNL d   1      56.647  49.706  53.214  0.00  0.00     0.035 A 
ATOM     16  C   UNL d   1      56.033  49.690  52.658  0.00  0.00     0.007 A 
ATOM     17  C   UNL d   1      56.372  49.528  51.913  0.00  0.00     0.009 A 
ENDBRANCH   1  13
BRANCH   1  18
ATOM     18  N   UNL d   1      57.484  49.152  50.649  0.00  0.00    -0.299 N 
ATOM     19  C   UNL d   1      57.062  48.475  50.467  0.00  0.00     0.107 A 
ATOM     20  C   UNL d   1      56.797  48.337  49.699  0.00  0.00     0.142 A 
ATOM     21  O   UNL d   1      56.956  48.888  49.095  0.00  0.00    -0.300 OA
ATOM     22  C   UNL d   1      57.386  49.577  49.283  0.00  0.00     0.142 A 
ATOM     23  C   UNL d   1      57.648  49.707  50.057  0.00  0.00     0.107 A 
ENDBRANCH   1  18
TORSDOF 5
ENDMDL
