MODEL 1
REMARK VINA RESULT:      -3.9      0.000      0.000
REMARK  6 active torsions:
REMARK  status: ('A' for Active; 'I' for Inactive)
REMARK    1  A    between atoms: N_2  and  S_1 
REMARK    2  A    between atoms: C_16  and  S_1 
REMARK    3  A    between atoms: C_4  and  C_3 
REMARK       I    between atoms: N_6  and  C_4 
REMARK    4  A    between atoms: C_15  and  N_6 
REMARK    5  A    between atoms: C_9  and  C_15 
REMARK    6  A    between atoms: C_20  and  C_16 
ROOT
ATOM      1  N   UNL d   1      57.777   0.307  31.142  0.00  0.00    -0.229 N 
ATOM      2  C   UNL d   1      58.359   0.167  29.849  0.00  0.00     0.076 A 
ATOM      3  C   UNL d   1      57.716   0.089  30.347  0.00  0.00     0.096 A 
ATOM      4  C   UNL d   1      58.480   0.602  31.436  0.00  0.00     0.092 A 
ATOM      5  C   UNL d   1      59.067   0.464  30.141  0.00  0.00     0.008 A 
ATOM      6  C   UNL d   1      59.128   0.682  30.937  0.00  0.00     0.020 A 
ENDROOT
BRANCH   2   7
ATOM      7  C   UNL d   1      58.307  -0.049  29.052  0.00  0.00     0.281 C 
ATOM      8  N   UNL d   1      58.538  -0.800  28.803  0.00  0.00    -0.204 NA
ATOM      9  O   UNL d   1      58.018   0.504  28.500  0.00  0.00    -0.265 OA
BRANCH   8  10
ATOM     10  C   UNL d   1      58.823  -1.343  29.353  0.00  0.00     0.127 C 
BRANCH  10  11
ATOM     11  C   UNL d   1      59.076  -2.087  29.101  0.00  0.00     0.119 A 
ATOM     12  O   UNL d   1      59.839  -2.276  28.848  0.00  0.00    -0.304 OA
ATOM     13  C   UNL d   1      59.849  -3.078  28.647  0.00  0.00     0.123 A 
ATOM     14  C   UNL d   1      59.090  -3.380  28.778  0.00  0.00     0.029 A 
ATOM     15  C   UNL d   1      58.620  -2.763  29.057  0.00  0.00     0.028 A 
ENDBRANCH  10  11
ENDBRANCH   8  10
ENDBRANCH   2   7
BRANCH   1  16
ATOM     16  S   UNL d   1      57.117   0.224  31.643  0.00  0.00     0.272 S 
ATOM     17  O   UNL d   1      56.674   0.678  31.143  0.00  0.00    -0.200 OA
ATOM     18  O   UNL d   1      57.579  -0.242  32.152  0.00  0.00    -0.200 OA
BRANCH  16  19
ATOM     19  C   UNL d   1      56.457   0.146  32.137  0.00  0.00     0.116 C 
BRANCH  19  20
ATOM     20  C   UNL d   1      56.348  -0.534  32.596  0.00  0.00     0.014 C 
ATOM     21  C   UNL d   1      55.647  -0.635  33.015  0.00  0.00     0.001 C 
ENDBRANCH  19  20
ENDBRANCH  16  19
ENDBRANCH   1  16
TORSDOF 6
ENDMDL
MODEL 2
REMARK VINA RESULT:      -3.7      1.286      3.880
REMARK  6 active torsions:
REMARK  status: ('A' for Active; 'I' for Inactive)
REMARK    1  A    between atoms: N_2  and  S_1 
REMARK    2  A    between atoms: C_16  and  S_1 
REMARK    3  A    between atoms: C_4  and  C_3 
REMARK       I    between atoms: N_6  and  C_4 
REMARK    4  A    between atoms: C_15  and  N_6 
REMARK    5  A    between atoms: C_9  and  C_15 
REMARK    6  A    between atoms: C_20  and  C_16 
ROOT
ATOM      1  N   UNL d   1      59.478  -1.040  29.410  0.00  0.00    -0.229 N 
ATOM      2  C   UNL d   1      58.526  -0.046  29.778  0.00  0.00     0.076 A 
ATOM      3  C   UNL d   1      58.707  -0.742  29.390  0.00  0.00     0.096 A 
ATOM      4  C   UNL d   1      60.064  -0.641  29.817  0.00  0.00     0.092 A 
ATOM      5  C   UNL d   1      59.112   0.357  30.188  0.00  0.00     0.008 A 
ATOM      6  C   UNL d   1      59.883   0.059  30.207  0.00  0.00     0.020 A 
ENDROOT
BRANCH   2   7
ATOM      7  C   UNL d   1      57.757   0.260  29.764  0.00  0.00     0.281 C 
ATOM      8  N   UNL d   1      57.248   0.151  30.403  0.00  0.00    -0.204 NA
ATOM      9  O   UNL d   1      57.501   0.682  29.093  0.00  0.00    -0.265 OA
BRANCH   8  10
ATOM     10  C   UNL d   1      57.507  -0.267  31.064  0.00  0.00     0.127 C 
BRANCH  10  11
ATOM     11  C   UNL d   1      56.971  -0.460  31.663  0.00  0.00     0.119 A 
ATOM     12  O   UNL d   1      56.792  -1.224  31.921  0.00  0.00    -0.304 OA
ATOM     13  C   UNL d   1      56.232  -1.162  32.525  0.00  0.00     0.123 A 
ATOM     14  C   UNL d   1      56.068  -0.360  32.636  0.00  0.00     0.029 A 
ATOM     15  C   UNL d   1      56.528   0.067  32.101  0.00  0.00     0.028 A 
ENDBRANCH  10  11
ENDBRANCH   8  10
ENDBRANCH   2   7
BRANCH   1  16
ATOM     16  S   UNL d   1      59.655  -1.750  29.012  0.00  0.00     0.272 S 
ATOM     17  O   UNL d   1      60.072  -1.338  28.455  0.00  0.00    -0.200 OA
ATOM     18  O   UNL d   1      59.226  -2.165  29.589  0.00  0.00    -0.200 OA
BRANCH  16  19
ATOM     19  C   UNL d   1      59.836  -2.452  28.611  0.00  0.00     0.116 C 
BRANCH  19  20
ATOM     20  C   UNL d   1      59.835  -3.178  29.007  0.00  0.00     0.014 C 
ATOM     21  C   UNL d   1      60.054  -3.862  28.604  0.00  0.00     0.001 C 
ENDBRANCH  19  20
ENDBRANCH  16  19
ENDBRANCH   1  16
TORSDOF 6
ENDMDL
MODEL 3
REMARK VINA RESULT:      -2.6      2.005      3.313
REMARK  6 active torsions:
REMARK  status: ('A' for Active; 'I' for Inactive)
REMARK    1  A    between atoms: N_2  and  S_1 
REMARK    2  A    between atoms: C_16  and  S_1 
REMARK    3  A    between atoms: C_4  and  C_3 
REMARK       I    between atoms: N_6  and  C_4 
REMARK    4  A    between atoms: C_15  and  N_6 
REMARK    5  A    between atoms: C_9  and  C_15 
REMARK    6  A    between atoms: C_20  and  C_16 
ROOT
ATOM      1  N   UNL d   1      55.750  -0.147  33.280  0.00  0.00    -0.229 N 
ATOM      2  C   UNL d   1      57.031  -0.076  32.660  0.00  0.00     0.076 A 
ATOM      3  C   UNL d   1      56.433   0.279  33.089  0.00  0.00     0.096 A 
ATOM      4  C   UNL d   1      55.668  -0.924  33.041  0.00  0.00     0.092 A 
ATOM      5  C   UNL d   1      56.952  -0.857  32.419  0.00  0.00     0.008 A 
ATOM      6  C   UNL d   1      56.269  -1.282  32.609  0.00  0.00     0.020 A 
ENDROOT
BRANCH   2   7
ATOM      7  C   UNL d   1      57.718   0.342  32.466  0.00  0.00     0.281 C 
ATOM      8  N   UNL d   1      57.950   0.428  31.679  0.00  0.00    -0.204 NA
ATOM      9  O   UNL d   1      58.175   0.679  33.075  0.00  0.00    -0.265 OA
BRANCH   8  10
ATOM     10  C   UNL d   1      57.495   0.093  31.080  0.00  0.00     0.127 C 
BRANCH  10  11
ATOM     11  C   UNL d   1      57.731   0.173  30.293  0.00  0.00     0.119 A 
ATOM     12  O   UNL d   1      57.392   0.682  29.737  0.00  0.00    -0.304 OA
ATOM     13  C   UNL d   1      57.796   0.583  29.023  0.00  0.00     0.123 A 
ATOM     14  C   UNL d   1      58.383   0.013  29.142  0.00  0.00     0.029 A 
ATOM     15  C   UNL d   1      58.336  -0.235  29.927  0.00  0.00     0.028 A 
ENDBRANCH  10  11
ENDBRANCH   8  10
ENDBRANCH   2   7
BRANCH   1  16
ATOM     16  S   UNL d   1      55.144   0.221  33.717  0.00  0.00     0.272 S 
ATOM     17  O   UNL d   1      54.756   0.405  33.033  0.00  0.00    -0.200 OA
ATOM     18  O   UNL d   1      55.549   0.028  34.416  0.00  0.00    -0.200 OA
BRANCH  16  19
ATOM     19  C   UNL d   1      54.537   0.588  34.145  0.00  0.00     0.116 C 
BRANCH  19  20
ATOM     20  C   UNL d   1      53.743   0.417  33.987  0.00  0.00     0.014 C 
ATOM     21  C   UNL d   1      53.159   0.682  34.503  0.00  0.00     0.001 C 
ENDBRANCH  19  20
ENDBRANCH  16  19
ENDBRANCH   1  16
TORSDOF 6
ENDMDL
MODEL 4
REMARK VINA RESULT:      -2.0      8.497     10.049
REMARK  6 active torsions:
REMARK  status: ('A' for Active; 'I' for Inactive)
REMARK    1  A    between atoms: N_2  and  S_1 
REMARK    2  A    between atoms: C_16  and  S_1 
REMARK    3  A    between atoms: C_4  and  C_3 
REMARK       I    between atoms: N_6  and  C_4 
REMARK    4  A    between atoms: C_15  and  N_6 
REMARK    5  A    between atoms: C_9  and  C_15 
REMARK    6  A    between atoms: C_20  and  C_16 
ROOT
ATOM      1  N   UNL d   1      59.770  -9.617  33.465  0.00  0.00    -0.229 N 
ATOM      2  C   UNL d   1      59.986  -9.354  34.849  0.00  0.00     0.076 A 
ATOM      3  C   UNL d   1      59.474  -9.453  34.220  0.00  0.00     0.096 A 
ATOM      4  C   UNL d   1      60.575  -9.681  33.343  0.00  0.00     0.092 A 
ATOM      5  C   UNL d   1      60.796  -9.418  34.730  0.00  0.00     0.008 A 
ATOM      6  C   UNL d   1      61.092  -9.582  33.975  0.00  0.00     0.020 A 
ENDROOT
BRANCH   2   7
ATOM      7  C   UNL d   1      59.699  -9.190  35.607  0.00  0.00     0.281 C 
ATOM      8  N   UNL d   1      59.841  -8.460  35.963  0.00  0.00    -0.204 NA
ATOM      9  O   UNL d   1      59.262  -9.773  36.011  0.00  0.00    -0.265 OA
BRANCH   8  10
ATOM     10  C   UNL d   1      60.274  -7.887  35.560  0.00  0.00     0.127 C 
BRANCH  10  11
ATOM     11  C   UNL d   1      60.256  -7.103  35.818  0.00  0.00     0.119 A 
ATOM     12  O   UNL d   1      59.604  -6.597  35.778  0.00  0.00    -0.304 OA
ATOM     13  C   UNL d   1      59.829  -5.868  36.095  0.00  0.00     0.123 A 
ATOM     14  C   UNL d   1      60.619  -5.928  36.330  0.00  0.00     0.029 A 
ATOM     15  C   UNL d   1      60.876  -6.691  36.156  0.00  0.00     0.028 A 
ENDBRANCH  10  11
ENDBRANCH   8  10
ENDBRANCH   2   7
BRANCH   1  16
ATOM     16  S   UNL d   1      59.243  -9.717  32.829  0.00  0.00     0.272 S 
ATOM     17  O   UNL d   1      59.849  -9.617  32.305  0.00  0.00    -0.200 OA
ATOM     18  O   UNL d   1      58.624  -9.818  33.374  0.00  0.00    -0.200 OA
BRANCH  16  19
ATOM     19  C   UNL d   1      58.724  -9.815  32.191  0.00  0.00     0.116 C 
BRANCH  19  20
ATOM     20  C   UNL d   1      58.938  -9.570  31.430  0.00  0.00     0.014 C 
ATOM     21  C   UNL d   1      58.438  -9.731  30.795  0.00  0.00     0.001 C 
ENDBRANCH  19  20
ENDBRANCH  16  19
ENDBRANCH   1  16
TORSDOF 6
ENDMDL
MODEL 5
REMARK VINA RESULT:      -1.4      1.291      4.348
REMARK  6 active torsions:
REMARK  status: ('A' for Active; 'I' for Inactive)
REMARK    1  A    between atoms: N_2  and  S_1 
REMARK    2  A    between atoms: C_16  and  S_1 
REMARK    3  A    between atoms: C_4  and  C_3 
REMARK       I    between atoms: N_6  and  C_4 
REMARK    4  A    between atoms: C_15  and  N_6 
REMARK    5  A    between atoms: C_9  and  C_15 
REMARK    6  A    between atoms: C_20  and  C_16 
ROOT
ATOM      1  N   UNL d   1      58.090  -0.411  30.075  0.00  0.00    -0.229 N 
ATOM      2  C   UNL d   1      57.855   0.281  31.299  0.00  0.00     0.076 A 
ATOM      3  C   UNL d   1      58.284  -0.264  30.865  0.00  0.00     0.096 A 
ATOM      4  C   UNL d   1      57.470  -0.013  29.722  0.00  0.00     0.092 A 
ATOM      5  C   UNL d   1      57.231   0.682  30.946  0.00  0.00     0.008 A 
ATOM      6  C   UNL d   1      57.038   0.534  30.156  0.00  0.00     0.020 A 
ENDROOT
BRANCH   2   7
ATOM      7  C   UNL d   1      58.042   0.434  32.090  0.00  0.00     0.281 C 
ATOM      8  N   UNL d   1      57.475   0.344  32.682  0.00  0.00    -0.204 NA
ATOM      9  O   UNL d   1      58.813   0.682  32.284  0.00  0.00    -0.265 OA
BRANCH   8  10
ATOM     10  C   UNL d   1      56.714   0.098  32.484  0.00  0.00     0.127 C 
BRANCH  10  11
ATOM     11  C   UNL d   1      56.125   0.085  33.063  0.00  0.00     0.119 A 
ATOM     12  O   UNL d   1      56.077   0.590  33.714  0.00  0.00    -0.304 OA
ATOM     13  C   UNL d   1      55.404   0.384  34.147  0.00  0.00     0.123 A 
ATOM     14  C   UNL d   1      55.039  -0.249  33.759  0.00  0.00     0.029 A 
ATOM     15  C   UNL d   1      55.489  -0.427  33.091  0.00  0.00     0.028 A 
ENDBRANCH  10  11
ENDBRANCH   8  10
ENDBRANCH   2   7
BRANCH   1  16
ATOM     16  S   UNL d   1      58.531  -0.967  29.640  0.00  0.00     0.272 S 
ATOM     17  O   UNL d   1      58.197  -1.569  30.063  0.00  0.00    -0.200 OA
ATOM     18  O   UNL d   1      58.870  -0.343  29.210  0.00  0.00    -0.200 OA
BRANCH  16  19
ATOM     19  C   UNL d   1      58.966  -1.527  29.211  0.00  0.00     0.116 C 
BRANCH  19  20
ATOM     20  C   UNL d   1      58.600  -2.201  28.900  0.00  0.00     0.014 C 
ATOM     21  C   UNL d   1      59.058  -2.850  28.685  0.00  0.00     0.001 C 
ENDBRANCH  19  20
ENDBRANCH  16  19
ENDBRANCH   1  16
TORSDOF 6
ENDMDL
