MODEL 1
REMARK VINA RESULT:      -5.8      0.000      0.000
REMARK  1 active torsions:
REMARK  status: ('A' for Active; 'I' for Inactive)
REMARK       I    between atoms: C_2  and  N_1 
REMARK    1  A    between atoms: C_4  and  C_2 
ROOT
ATOM      1  N   UNL d   1     -41.445-122.576 -53.063  0.00  0.00    -0.272 N 
ATOM      2  C   UNL d   1     -41.596-121.923 -53.548  0.00  0.00     0.287 C 
ATOM      3  C   UNL d   1     -41.373-122.571 -52.239  0.00  0.00     0.067 A 
ATOM      4  C   UNL d   1     -41.342-123.332 -53.332  0.00  0.00     0.083 A 
ATOM      5  O   UNL d   1     -41.691-121.175 -53.211  0.00  0.00    -0.264 OA
ATOM      6  C   UNL d   1     -41.223-123.335 -51.990  0.00  0.00     0.018 A 
ATOM      7  C   UNL d   1     -41.203-123.817 -52.664  0.00  0.00     0.021 A 
ATOM      8  C   UNL d   1     -41.424-121.972 -51.689  0.00  0.00     0.018 A 
ATOM      9  C   UNL d   1     -41.123-123.511 -51.190  0.00  0.00     0.002 A 
ATOM     10  C   UNL d   1     -41.326-122.132 -50.885  0.00  0.00     0.002 A 
ATOM     11  C   UNL d   1     -41.176-122.902 -50.638  0.00  0.00     0.000 A 
ENDROOT
BRANCH   2  12
ATOM     12  C   UNL d   1     -41.653-122.019 -54.369  0.00  0.00     0.156 A 
ATOM     13  O   UNL d   1     -41.132-122.319 -54.939  0.00  0.00    -0.300 OA
ATOM     14  C   UNL d   1     -41.499-122.272 -55.668  0.00  0.00     0.123 A 
ATOM     15  C   UNL d   1     -42.241-121.947 -55.566  0.00  0.00     0.029 A 
ATOM     16  C   UNL d   1     -42.344-121.787 -54.766  0.00  0.00     0.032 A 
ENDBRANCH   2  12
TORSDOF 1
ENDMDL
MODEL 2
REMARK VINA RESULT:      -5.6      0.954      3.277
REMARK  1 active torsions:
REMARK  status: ('A' for Active; 'I' for Inactive)
REMARK       I    between atoms: C_2  and  N_1 
REMARK    1  A    between atoms: C_4  and  C_2 
ROOT
ATOM      1  N   UNL d   1     -41.595-122.803 -53.208  0.00  0.00    -0.272 N 
ATOM      2  C   UNL d   1     -41.780-122.503 -52.459  0.00  0.00     0.287 C 
ATOM      3  C   UNL d   1     -41.785-122.460 -53.936  0.00  0.00     0.067 A 
ATOM      4  C   UNL d   1     -41.190-123.491 -53.338  0.00  0.00     0.083 A 
ATOM      5  O   UNL d   1     -42.197-121.793 -52.393  0.00  0.00    -0.264 OA
ATOM      6  C   UNL d   1     -41.495-122.942 -54.530  0.00  0.00     0.018 A 
ATOM      7  C   UNL d   1     -41.123-123.586 -54.167  0.00  0.00     0.021 A 
ATOM      8  C   UNL d   1     -42.182-121.776 -54.132  0.00  0.00     0.018 A 
ATOM      9  C   UNL d   1     -41.598-122.746 -55.325  0.00  0.00     0.002 A 
ATOM     10  C   UNL d   1     -42.293-121.567 -54.922  0.00  0.00     0.002 A 
ATOM     11  C   UNL d   1     -42.000-122.054 -55.517  0.00  0.00     0.000 A 
ENDROOT
BRANCH   2  12
ATOM     12  C   UNL d   1     -41.550-122.914 -51.778  0.00  0.00     0.156 A 
ATOM     13  O   UNL d   1     -41.490-123.721 -51.599  0.00  0.00    -0.300 OA
ATOM     14  C   UNL d   1     -41.228-123.792 -50.828  0.00  0.00     0.123 A 
ATOM     15  C   UNL d   1     -41.123-123.044 -50.519  0.00  0.00     0.029 A 
ATOM     16  C   UNL d   1     -41.319-122.495 -51.099  0.00  0.00     0.032 A 
ENDBRANCH   2  12
TORSDOF 1
ENDMDL
MODEL 3
REMARK VINA RESULT:      -4.7      1.956      2.993
REMARK  1 active torsions:
REMARK  status: ('A' for Active; 'I' for Inactive)
REMARK       I    between atoms: C_2  and  N_1 
REMARK    1  A    between atoms: C_4  and  C_2 
ROOT
ATOM      1  N   UNL d   1     -41.876-122.921 -50.230  0.00  0.00    -0.272 N 
ATOM      2  C   UNL d   1     -42.171-122.413 -50.813  0.00  0.00     0.287 C 
ATOM      3  C   UNL d   1     -42.180-123.025 -49.469  0.00  0.00     0.067 A 
ATOM      4  C   UNL d   1     -41.232-123.400 -50.324  0.00  0.00     0.083 A 
ATOM      5  O   UNL d   1     -42.834-121.948 -50.655  0.00  0.00    -0.264 OA
ATOM      6  C   UNL d   1     -41.718-123.577 -49.081  0.00  0.00     0.018 A 
ATOM      7  C   UNL d   1     -41.125-123.817 -49.606  0.00  0.00     0.021 A 
ATOM      8  C   UNL d   1     -42.814-122.688 -49.082  0.00  0.00     0.018 A 
ATOM      9  C   UNL d   1     -41.884-123.801 -48.305  0.00  0.00     0.002 A 
ATOM     10  C   UNL d   1     -42.992-122.902 -48.305  0.00  0.00     0.002 A 
ATOM     11  C   UNL d   1     -42.525-123.458 -47.918  0.00  0.00     0.000 A 
ENDROOT
BRANCH   2  12
ATOM     12  C   UNL d   1     -41.802-122.371 -51.554  0.00  0.00     0.156 A 
ATOM     13  O   UNL d   1     -41.703-122.921 -52.167  0.00  0.00    -0.300 OA
ATOM     14  C   UNL d   1     -41.287-122.557 -52.769  0.00  0.00     0.123 A 
ATOM     15  C   UNL d   1     -41.123-121.789 -52.546  0.00  0.00     0.029 A 
ATOM     16  C   UNL d   1     -41.438-121.666 -51.796  0.00  0.00     0.032 A 
ENDBRANCH   2  12
TORSDOF 1
ENDMDL
MODEL 4
REMARK VINA RESULT:      -4.2      1.818      3.842
REMARK  1 active torsions:
REMARK  status: ('A' for Active; 'I' for Inactive)
REMARK       I    between atoms: C_2  and  N_1 
REMARK    1  A    between atoms: C_4  and  C_2 
ROOT
ATOM      1  N   UNL d   1     -41.738-122.856 -51.079  0.00  0.00    -0.272 N 
ATOM      2  C   UNL d   1     -42.076-122.438 -50.450  0.00  0.00     0.287 C 
ATOM      3  C   UNL d   1     -41.648-122.587 -51.856  0.00  0.00     0.067 A 
ATOM      4  C   UNL d   1     -41.441-123.606 -51.024  0.00  0.00     0.083 A 
ATOM      5  O   UNL d   1     -42.362-121.673 -50.572  0.00  0.00    -0.264 OA
ATOM      6  C   UNL d   1     -41.288-123.179 -52.292  0.00  0.00     0.018 A 
ATOM      7  C   UNL d   1     -41.156-123.817 -51.782  0.00  0.00     0.021 A 
ATOM      8  C   UNL d   1     -41.846-121.885 -52.219  0.00  0.00     0.018 A 
ATOM      9  C   UNL d   1     -41.123-123.076 -53.093  0.00  0.00     0.002 A 
ATOM     10  C   UNL d   1     -41.686-121.767 -53.020  0.00  0.00     0.002 A 
ATOM     11  C   UNL d   1     -41.325-122.364 -53.455  0.00  0.00     0.000 A 
ENDROOT
BRANCH   2  12
ATOM     12  C   UNL d   1     -42.127-122.785 -49.700  0.00  0.00     0.156 A 
ATOM     13  O   UNL d   1     -41.557-123.079 -49.175  0.00  0.00    -0.300 OA
ATOM     14  C   UNL d   1     -41.944-123.358 -48.511  0.00  0.00     0.123 A 
ATOM     15  C   UNL d   1     -42.746-123.244 -48.609  0.00  0.00     0.029 A 
ATOM     16  C   UNL d   1     -42.868-122.891 -49.341  0.00  0.00     0.032 A 
ENDBRANCH   2  12
TORSDOF 1
ENDMDL
