MODEL 1
REMARK VINA RESULT:      61.2      0.000      0.000
REMARK  6 active torsions:
REMARK  status: ('A' for Active; 'I' for Inactive)
REMARK    1  A    between atoms: N_4  and  C_2 
REMARK    2  A    between atoms: C_9  and  N_4 
REMARK    3  A    between atoms: O_16  and  C_8 
REMARK    4  A    between atoms: O_24  and  C_10 
REMARK    5  A    between atoms: C_22  and  O_16 
REMARK    6  A    between atoms: C_26  and  C_22 
ROOT
ATOM      1  C   UNL d   1      13.296  13.210  -3.582  0.00  0.00     0.056 A 
ATOM      2  C   UNL d   1      13.264  12.474  -3.216  0.00  0.00     0.166 A 
ATOM      3  C   UNL d   1      13.336  13.261  -4.405  0.00  0.00     0.088 A 
ATOM      4  C   UNL d   1      13.287  13.896  -3.126  0.00  0.00     0.031 A 
ATOM      5  N   UNL d   1      13.272  11.780  -3.673  0.00  0.00    -0.205 NA
ATOM      6  C   UNL d   1      13.368  13.999  -4.771  0.00  0.00     0.046 A 
ATOM      7  C   UNL d   1      13.359  14.683  -4.315  0.00  0.00     0.124 A 
ATOM      8  C   UNL d   1      13.319  14.632  -3.492  0.00  0.00     0.117 A 
ATOM      9  N   UNL d   1      13.345  12.577  -4.861  0.00  0.00    -0.224 NA
ATOM     10  C   UNL d   1      13.313  11.831  -4.496  0.00  0.00     0.200 A 
ENDROOT
BRANCH   2  11
ATOM     11  N   UNL d   1      13.223  12.422  -2.386  0.00  0.00    -0.224 NA
BRANCH  11  12
ATOM     12  C   UNL d   1      13.903  12.262  -1.957  0.00  0.00     0.110 A 
ATOM     13  C   UNL d   1      13.864  11.979  -1.183  0.00  0.00     0.158 A 
ATOM     14  C   UNL d   1      14.546  11.818  -0.751  0.00  0.00     0.038 A 
ATOM     15  F   UNL d   1      13.119  11.853  -0.833  0.00  0.00    -0.203 F 
ATOM     16  C   UNL d   1      15.292  11.943  -1.102  0.00  0.00     0.037 A 
ATOM     17  C   UNL d   1      15.336  12.230  -1.884  0.00  0.00     0.008 A 
ATOM     18 BR   UNL d   1      15.984  11.781  -0.667  0.00  0.00    -0.049 Br
ATOM     19  C   UNL d   1      14.650  12.388  -2.308  0.00  0.00     0.022 A 
ENDBRANCH  11  12
ENDBRANCH   2  11
BRANCH   8  20
ATOM     20  O   UNL d   1      13.311  15.330  -3.035  0.00  0.00    -0.326 OA
ATOM     21  C   UNL d   1      14.002  15.592  -2.668  0.00  0.00     0.181 C 
ENDBRANCH   8  20
BRANCH   7  22
ATOM     22  O   UNL d   1      13.392  15.433  -4.684  0.00  0.00    -0.303 OA
BRANCH  22  23
ATOM     23  C   UNL d   1      14.049  15.646  -5.137  0.00  0.00     0.123 C 
BRANCH  23  24
ATOM     24  C   UNL d   1      14.100  16.411  -5.449  0.00  0.00     0.028 A 
ATOM     25  C   UNL d   1      13.520  16.686  -5.976  0.00  0.00     0.021 A 
ATOM     26  C   UNL d   1      13.577  17.449  -6.282  0.00  0.00     0.080 A 
ATOM     27  N   UNL d   1      14.207  17.946  -6.072  0.00  0.00    -0.301 N 
ATOM     28  C   UNL d   1      14.783  17.672  -5.549  0.00  0.00     0.080 A 
ATOM     29  C   UNL d   1      14.260  18.723  -6.388  0.00  0.00     0.100 C 
ATOM     30  C   UNL d   1      14.731  16.903  -5.236  0.00  0.00     0.021 A 
ENDBRANCH  23  24
ENDBRANCH  22  23
ENDBRANCH   7  22
TORSDOF 6
ENDMDL
MODEL 2
REMARK VINA RESULT:      63.2      1.797      2.761
REMARK  6 active torsions:
REMARK  status: ('A' for Active; 'I' for Inactive)
REMARK    1  A    between atoms: N_4  and  C_2 
REMARK    2  A    between atoms: C_9  and  N_4 
REMARK    3  A    between atoms: O_16  and  C_8 
REMARK    4  A    between atoms: O_24  and  C_10 
REMARK    5  A    between atoms: C_22  and  O_16 
REMARK    6  A    between atoms: C_26  and  C_22 
ROOT
ATOM      1  C   UNL d   1      14.630  15.697  -2.413  0.00  0.00     0.056 A 
ATOM      2  C   UNL d   1      14.599  15.225  -1.740  0.00  0.00     0.166 A 
ATOM      3  C   UNL d   1      15.025  16.422  -2.392  0.00  0.00     0.088 A 
ATOM      4  C   UNL d   1      14.267  15.446  -3.108  0.00  0.00     0.031 A 
ATOM      5  N   UNL d   1      14.964  15.474  -1.038  0.00  0.00    -0.205 NA
ATOM      6  C   UNL d   1      15.056  16.894  -3.066  0.00  0.00     0.046 A 
ATOM      7  C   UNL d   1      14.693  16.643  -3.760  0.00  0.00     0.124 A 
ATOM      8  C   UNL d   1      14.298  15.918  -3.781  0.00  0.00     0.117 A 
ATOM      9  N   UNL d   1      15.389  16.673  -1.698  0.00  0.00    -0.224 NA
ATOM     10  C   UNL d   1      15.360  16.199  -1.016  0.00  0.00     0.200 A 
ENDROOT
BRANCH   2  11
ATOM     11  N   UNL d   1      14.200  14.494  -1.762  0.00  0.00    -0.224 NA
BRANCH  11  12
ATOM     12  C   UNL d   1      14.494  13.860  -1.333  0.00  0.00     0.110 A 
ATOM     13  C   UNL d   1      14.536  13.104  -1.662  0.00  0.00     0.158 A 
ATOM     14  C   UNL d   1      14.831  12.467  -1.234  0.00  0.00     0.038 A 
ATOM     15  F   UNL d   1      14.274  12.985  -2.444  0.00  0.00    -0.203 F 
ATOM     16  C   UNL d   1      15.094  12.586  -0.451  0.00  0.00     0.037 A 
ATOM     17  C   UNL d   1      15.054  13.348  -0.115  0.00  0.00     0.008 A 
ATOM     18 BR   UNL d   1      15.394  11.942  -0.014  0.00  0.00    -0.049 Br
ATOM     19  C   UNL d   1      14.757  13.980  -0.551  0.00  0.00     0.022 A 
ENDBRANCH  11  12
ENDBRANCH   2  11
BRANCH   8  20
ATOM     20  O   UNL d   1      13.932  15.669  -4.488  0.00  0.00    -0.326 OA
ATOM     21  C   UNL d   1      13.310  15.126  -4.462  0.00  0.00     0.181 C 
ENDBRANCH   8  20
BRANCH   7  22
ATOM     22  O   UNL d   1      14.723  17.121  -4.445  0.00  0.00    -0.303 OA
BRANCH  22  23
ATOM     23  C   UNL d   1      15.054  17.878  -4.411  0.00  0.00     0.123 C 
BRANCH  23  24
ATOM     24  C   UNL d   1      14.760  18.475  -4.903  0.00  0.00     0.028 A 
ATOM     25  C   UNL d   1      14.709  18.354  -5.722  0.00  0.00     0.021 A 
ATOM     26  C   UNL d   1      14.415  18.952  -6.205  0.00  0.00     0.080 A 
ATOM     27  N   UNL d   1      14.168  19.676  -5.884  0.00  0.00    -0.301 N 
ATOM     28  C   UNL d   1      14.219  19.796  -5.069  0.00  0.00     0.080 A 
ATOM     29  C   UNL d   1      13.869  20.284  -6.381  0.00  0.00     0.100 C 
ATOM     30  C   UNL d   1      14.515  19.195  -4.576  0.00  0.00     0.021 A 
ENDBRANCH  23  24
ENDBRANCH  22  23
ENDBRANCH   7  22
TORSDOF 6
ENDMDL
