MODEL 1
REMARK VINA RESULT:       2.3      0.000      0.000
REMARK  5 active torsions:
REMARK  status: ('A' for Active; 'I' for Inactive)
REMARK    1  A    between atoms: C_4  and  C_1 
REMARK    2  A    between atoms: S_2  and  C_4 
REMARK    3  A    between atoms: C_8  and  S_2 
REMARK    4  A    between atoms: N_5  and  C_3 
REMARK    5  A    between atoms: C_9  and  C_4 
ROOT
ATOM      1  C   UNL d   1      32.854  21.202 -21.777  0.00  0.00     0.128 A 
ATOM      2  C   UNL d   1      32.810  21.098 -22.588  0.00  0.00     0.166 A 
ATOM      3  N   UNL d   1      32.973  20.556 -21.282  0.00  0.00    -0.240 NA
ATOM      4  N   UNL d   1      32.885  20.348 -22.911  0.00  0.00    -0.225 NA
ATOM      5  C   UNL d   1      33.046  19.810 -21.609  0.00  0.00     0.099 A 
ATOM      6  C   UNL d   1      33.004  19.699 -22.419  0.00  0.00     0.101 A 
ATOM      7  C   UNL d   1      33.079  18.949 -22.734  0.00  0.00     0.021 A 
ATOM      8  C   UNL d   1      33.166  19.161 -21.113  0.00  0.00     0.021 A 
ATOM      9  C   UNL d   1      33.196  18.307 -22.246  0.00  0.00     0.002 A 
ATOM     10  C   UNL d   1      33.240  18.415 -21.437  0.00  0.00     0.002 A 
ENDROOT
BRANCH   1  11
ATOM     11  C   UNL d   1      32.780  21.948 -21.450  0.00  0.00     0.129 C 
BRANCH  11  12
ATOM     12  S   UNL d   1      32.421  22.015 -20.642  0.00  0.00     0.213 S 
ATOM     13  O   UNL d   1      31.603  21.695 -20.531  0.00  0.00    -0.217 OA
ATOM     14  O   UNL d   1      31.851  21.642 -21.114  0.00  0.00    -0.217 OA
BRANCH  12  15
ATOM     15  C   UNL d   1      32.695  22.328 -19.923  0.00  0.00     0.088 A 
ATOM     16  C   UNL d   1      32.814  21.820 -19.277  0.00  0.00     0.011 A 
ATOM     17  C   UNL d   1      33.086  22.137 -18.565  0.00  0.00     0.001 A 
ATOM     18  C   UNL d   1      33.207  21.643 -17.921  0.00  0.00     0.000 C 
ATOM     19  C   UNL d   1      33.239  22.944 -18.494  0.00  0.00     0.000 A 
ATOM     20  C   UNL d   1      33.117  23.443 -19.149  0.00  0.00     0.001 A 
ATOM     21  C   UNL d   1      32.845  23.125 -19.856  0.00  0.00     0.011 A 
ENDBRANCH  12  15
ENDBRANCH  11  12
BRANCH  11  22
ATOM     22  C   UNL d   1      33.002  22.719 -21.770  0.00  0.00     0.135 C 
ATOM     23  N   UNL d   1      33.239  23.446 -21.330  0.00  0.00    -0.146 N 
ENDBRANCH  11  22
ENDBRANCH   1  11
BRANCH   2  24
ATOM     24  N   UNL d   1      32.691  21.751 -23.081  0.00  0.00    -0.284 N 
ATOM     25  C   UNL d   1      32.242  22.398 -22.805  0.00  0.00     0.106 A 
ATOM     26  C   UNL d   1      32.128  23.052 -23.309  0.00  0.00     0.118 A 
ATOM     27  C   UNL d   1      31.680  23.699 -23.034  0.00  0.00     0.028 C 
ATOM     28  O   UNL d   1      32.454  23.059 -24.074  0.00  0.00    -0.304 OA
ATOM     29  C   UNL d   1      32.896  22.412 -24.333  0.00  0.00     0.118 A 
ATOM     30  C   UNL d   1      33.017  21.758 -23.845  0.00  0.00     0.106 A 
ATOM     31  C   UNL d   1      33.224  22.415 -25.097  0.00  0.00     0.028 C 
ENDBRANCH   2  24
TORSDOF 5
ENDMDL
MODEL 2
REMARK VINA RESULT:       2.9      3.007      4.866
REMARK  5 active torsions:
REMARK  status: ('A' for Active; 'I' for Inactive)
REMARK    1  A    between atoms: C_4  and  C_1 
REMARK    2  A    between atoms: S_2  and  C_4 
REMARK    3  A    between atoms: C_8  and  S_2 
REMARK    4  A    between atoms: N_5  and  C_3 
REMARK    5  A    between atoms: C_9  and  C_4 
ROOT
ATOM      1  C   UNL d   1      32.192  17.923 -23.291  0.00  0.00     0.128 A 
ATOM      2  C   UNL d   1      32.480  18.325 -22.639  0.00  0.00     0.166 A 
ATOM      3  N   UNL d   1      32.235  17.103 -23.326  0.00  0.00    -0.240 NA
ATOM      4  N   UNL d   1      32.815  17.910 -22.015  0.00  0.00    -0.225 NA
ATOM      5  C   UNL d   1      32.569  16.694 -22.701  0.00  0.00     0.099 A 
ATOM      6  C   UNL d   1      32.860  17.089 -22.045  0.00  0.00     0.101 A 
ATOM      7  C   UNL d   1      33.192  16.670 -21.428  0.00  0.00     0.021 A 
ATOM      8  C   UNL d   1      32.614  15.870 -22.734  0.00  0.00     0.021 A 
ATOM      9  C   UNL d   1      33.236  15.857 -21.459  0.00  0.00     0.002 A 
ATOM     10  C   UNL d   1      32.947  15.459 -22.112  0.00  0.00     0.002 A 
ENDROOT
BRANCH   1  11
ATOM     11  C   UNL d   1      31.857  18.332 -23.916  0.00  0.00     0.129 C 
BRANCH  11  12
ATOM     12  S   UNL d   1      31.142  17.983 -24.307  0.00  0.00     0.213 S 
ATOM     13  O   UNL d   1      31.256  17.594 -25.094  0.00  0.00    -0.217 OA
ATOM     14  O   UNL d   1      31.774  17.841 -24.823  0.00  0.00    -0.217 OA
BRANCH  12  15
ATOM     15  C   UNL d   1      30.342  17.937 -24.088  0.00  0.00     0.088 A 
ATOM     16  C   UNL d   1      30.081  17.289 -23.637  0.00  0.00     0.011 A 
ATOM     17  C   UNL d   1      29.285  17.248 -23.422  0.00  0.00     0.001 A 
ATOM     18  C   UNL d   1      29.017  16.614 -22.977  0.00  0.00     0.000 C 
ATOM     19  C   UNL d   1      28.756  17.839 -23.651  0.00  0.00     0.000 A 
ATOM     20  C   UNL d   1      29.029  18.481 -24.102  0.00  0.00     0.001 A 
ATOM     21  C   UNL d   1      29.822  18.520 -24.315  0.00  0.00     0.011 A 
ENDBRANCH  12  15
ENDBRANCH  11  12
BRANCH  11  22
ATOM     22  C   UNL d   1      32.092  19.080 -24.279  0.00  0.00     0.135 C 
ATOM     23  N   UNL d   1      31.624  19.594 -24.823  0.00  0.00    -0.146 N 
ENDBRANCH  11  22
ENDBRANCH   1  11
BRANCH   2  24
ATOM     24  N   UNL d   1      32.434  19.150 -22.610  0.00  0.00    -0.284 N 
ATOM     25  C   UNL d   1      31.966  19.516 -22.025  0.00  0.00     0.106 A 
ATOM     26  C   UNL d   1      31.925  20.349 -22.005  0.00  0.00     0.118 A 
ATOM     27  C   UNL d   1      31.458  20.715 -21.420  0.00  0.00     0.028 C 
ATOM     28  O   UNL d   1      32.344  20.806 -22.559  0.00  0.00    -0.304 OA
ATOM     29  C   UNL d   1      32.803  20.430 -23.132  0.00  0.00     0.118 A 
ATOM     30  C   UNL d   1      32.852  19.607 -23.164  0.00  0.00     0.106 A 
ATOM     31  C   UNL d   1      33.223  20.884 -23.688  0.00  0.00     0.028 C 
ENDBRANCH   2  24
TORSDOF 5
ENDMDL
