MODEL 1
REMARK VINA RESULT:      -2.5      0.000      0.000
REMARK  4 active torsions:
REMARK  status: ('A' for Active; 'I' for Inactive)
REMARK    1  A    between atoms: C_6  and  N_1 
REMARK    2  A    between atoms: C_11  and  C_6 
REMARK    3  A    between atoms: O_14  and  C_8 
REMARK    4  A    between atoms: O_15  and  C_9 
ROOT
ATOM      1  C   UNL d   1      32.621  17.355 -24.223  0.00  0.00     0.084 C 
ENDROOT
BRANCH   1   2
ATOM      2  N   UNL d   1      32.061  16.795 -23.991  0.00  0.00    -0.268 N 
ATOM      3  C   UNL d   1      32.189  16.172 -23.461  0.00  0.00     0.296 A 
ATOM      4  S   UNL d   1      31.476  15.751 -23.391  0.00  0.00    -0.025 SA
ATOM      5  O   UNL d   1      32.898  16.001 -23.074  0.00  0.00    -0.259 OA
ATOM      6  C   UNL d   1      30.917  16.116 -23.875  0.00  0.00     0.050 A 
ATOM      7  C   UNL d   1      31.274  16.761 -24.247  0.00  0.00     0.073 A 
ATOM      8  C   UNL d   1      30.117  15.951 -24.035  0.00  0.00     0.008 A 
ATOM      9  C   UNL d   1      30.848  17.236 -24.768  0.00  0.00     0.018 A 
ATOM     10  C   UNL d   1      30.056  17.068 -24.922  0.00  0.00     0.002 A 
ATOM     11  C   UNL d   1      29.689  16.422 -24.554  0.00  0.00     0.001 A 
ENDBRANCH   1   2
BRANCH   1  12
ATOM     12  C   UNL d   1      32.777  18.010 -23.739  0.00  0.00     0.020 A 
ATOM     13  C   UNL d   1      32.843  18.751 -24.076  0.00  0.00     0.028 A 
ATOM     14  C   UNL d   1      32.997  19.402 -23.600  0.00  0.00     0.116 A 
ATOM     15  C   UNL d   1      33.087  19.307 -22.776  0.00  0.00     0.116 A 
ATOM     16  C   UNL d   1      33.018  18.552 -22.446  0.00  0.00     0.026 A 
ATOM     17  C   UNL d   1      32.862  17.901 -22.933  0.00  0.00     0.004 A 
BRANCH  14  18
ATOM     18  O   UNL d   1      33.065  20.152 -23.934  0.00  0.00    -0.326 OA
ATOM     19  C   UNL d   1      33.241  20.237 -24.743  0.00  0.00     0.181 C 
ENDBRANCH  14  18
BRANCH  15  20
ATOM     20  O   UNL d   1      33.241  19.979 -22.326  0.00  0.00    -0.326 OA
ATOM     21  C   UNL d   1      32.900  20.067 -21.585  0.00  0.00     0.181 C 
ENDBRANCH  15  20
ENDBRANCH   1  12
TORSDOF 4
ENDMDL
MODEL 2
REMARK VINA RESULT:      -1.2      1.704      3.771
REMARK  4 active torsions:
REMARK  status: ('A' for Active; 'I' for Inactive)
REMARK    1  A    between atoms: C_6  and  N_1 
REMARK    2  A    between atoms: C_11  and  C_6 
REMARK    3  A    between atoms: O_14  and  C_8 
REMARK    4  A    between atoms: O_15  and  C_9 
ROOT
ATOM      1  C   UNL d   1      33.228  18.242 -23.383  0.00  0.00     0.084 C 
ENDROOT
BRANCH   1   2
ATOM      2  N   UNL d   1      33.228  18.856 -22.832  0.00  0.00    -0.268 N 
ATOM      3  C   UNL d   1      33.229  18.769 -22.009  0.00  0.00     0.296 A 
ATOM      4  S   UNL d   1      33.228  19.530 -21.675  0.00  0.00    -0.025 SA
ATOM      5  O   UNL d   1      33.231  18.055 -21.596  0.00  0.00    -0.259 OA
ATOM      6  C   UNL d   1      33.226  20.078 -22.293  0.00  0.00     0.050 A 
ATOM      7  C   UNL d   1      33.226  19.666 -23.008  0.00  0.00     0.073 A 
ATOM      8  C   UNL d   1      33.224  20.910 -22.307  0.00  0.00     0.008 A 
ATOM      9  C   UNL d   1      33.224  20.069 -23.726  0.00  0.00     0.018 A 
ATOM     10  C   UNL d   1      33.222  20.893 -23.735  0.00  0.00     0.002 A 
ATOM     11  C   UNL d   1      33.222  21.316 -23.021  0.00  0.00     0.001 A 
ENDBRANCH   1   2
BRANCH   1  12
ATOM     12  C   UNL d   1      32.568  17.744 -23.449  0.00  0.00     0.020 A 
ATOM     13  C   UNL d   1      31.907  18.006 -23.851  0.00  0.00     0.028 A 
ATOM     14  C   UNL d   1      31.252  17.516 -23.918  0.00  0.00     0.116 A 
ATOM     15  C   UNL d   1      31.261  16.754 -23.577  0.00  0.00     0.116 A 
ATOM     16  C   UNL d   1      31.935  16.500 -23.173  0.00  0.00     0.026 A 
ATOM     17  C   UNL d   1      32.593  17.000 -23.109  0.00  0.00     0.004 A 
BRANCH  14  18
ATOM     18  O   UNL d   1      30.582  17.774 -24.322  0.00  0.00    -0.326 OA
ATOM     19  C   UNL d   1      30.651  18.094 -25.087  0.00  0.00     0.181 C 
ENDBRANCH  14  18
BRANCH  15  20
ATOM     20  O   UNL d   1      30.589  16.287 -23.662  0.00  0.00    -0.326 OA
ATOM     21  C   UNL d   1      30.398  15.729 -23.091  0.00  0.00     0.181 C 
ENDBRANCH  15  20
ENDBRANCH   1  12
TORSDOF 4
ENDMDL
MODEL 3
REMARK VINA RESULT:      -1.0      1.817      4.107
REMARK  4 active torsions:
REMARK  status: ('A' for Active; 'I' for Inactive)
REMARK    1  A    between atoms: C_6  and  N_1 
REMARK    2  A    between atoms: C_11  and  C_6 
REMARK    3  A    between atoms: O_14  and  C_8 
REMARK    4  A    between atoms: O_15  and  C_9 
ROOT
ATOM      1  C   UNL d   1      33.241  19.057 -23.707  0.00  0.00     0.084 C 
ENDROOT
BRANCH   1   2
ATOM      2  N   UNL d   1      33.229  19.658 -23.142  0.00  0.00    -0.268 N 
ATOM      3  C   UNL d   1      33.215  19.551 -22.321  0.00  0.00     0.296 A 
ATOM      4  S   UNL d   1      33.206  20.305 -21.969  0.00  0.00    -0.025 SA
ATOM      5  O   UNL d   1      33.210  18.828 -21.925  0.00  0.00    -0.259 OA
ATOM      6  C   UNL d   1      33.215  20.867 -22.574  0.00  0.00     0.050 A 
ATOM      7  C   UNL d   1      33.229  20.472 -23.298  0.00  0.00     0.073 A 
ATOM      8  C   UNL d   1      33.212  21.699 -22.568  0.00  0.00     0.008 A 
ATOM      9  C   UNL d   1      33.240  20.891 -24.007  0.00  0.00     0.018 A 
ATOM     10  C   UNL d   1      33.237  21.715 -23.996  0.00  0.00     0.002 A 
ATOM     11  C   UNL d   1      33.223  22.121 -23.273  0.00  0.00     0.001 A 
ENDBRANCH   1   2
BRANCH   1  12
ATOM     12  C   UNL d   1      32.564  18.594 -23.833  0.00  0.00     0.020 A 
ATOM     13  C   UNL d   1      32.590  17.794 -23.671  0.00  0.00     0.028 A 
ATOM     14  C   UNL d   1      31.922  17.333 -23.794  0.00  0.00     0.116 A 
ATOM     15  C   UNL d   1      31.220  17.679 -24.084  0.00  0.00     0.116 A 
ATOM     16  C   UNL d   1      31.206  18.490 -24.245  0.00  0.00     0.026 A 
ATOM     17  C   UNL d   1      31.884  18.949 -24.117  0.00  0.00     0.004 A 
BRANCH  14  18
ATOM     18  O   UNL d   1      31.941  16.525 -23.633  0.00  0.00    -0.326 OA
ATOM     19  C   UNL d   1      32.656  16.156 -23.425  0.00  0.00     0.181 C 
ENDBRANCH  14  18
BRANCH  15  20
ATOM     20  O   UNL d   1      30.568  17.191 -24.198  0.00  0.00    -0.326 OA
ATOM     21  C   UNL d   1      29.819  17.514 -24.284  0.00  0.00     0.181 C 
ENDBRANCH  15  20
ENDBRANCH   1  12
TORSDOF 4
ENDMDL
MODEL 4
REMARK VINA RESULT:      -0.9      1.507      4.066
REMARK  4 active torsions:
REMARK  status: ('A' for Active; 'I' for Inactive)
REMARK    1  A    between atoms: C_6  and  N_1 
REMARK    2  A    between atoms: C_11  and  C_6 
REMARK    3  A    between atoms: O_14  and  C_8 
REMARK    4  A    between atoms: O_15  and  C_9 
ROOT
ATOM      1  C   UNL d   1      32.606  17.187 -24.015  0.00  0.00     0.084 C 
ENDROOT
BRANCH   1   2
ATOM      2  N   UNL d   1      32.627  17.985 -23.808  0.00  0.00    -0.268 N 
ATOM      3  C   UNL d   1      32.443  18.620 -24.308  0.00  0.00     0.296 A 
ATOM      4  S   UNL d   1      32.538  19.320 -23.870  0.00  0.00    -0.025 SA
ATOM      5  O   UNL d   1      32.208  18.565 -25.097  0.00  0.00    -0.259 OA
ATOM      6  C   UNL d   1      32.779  19.112 -23.108  0.00  0.00     0.050 A 
ATOM      7  C   UNL d   1      32.834  18.290 -23.066  0.00  0.00     0.073 A 
ATOM      8  C   UNL d   1      32.959  19.563 -22.432  0.00  0.00     0.008 A 
ATOM      9  C   UNL d   1      33.064  17.918 -22.368  0.00  0.00     0.018 A 
ATOM     10  C   UNL d   1      33.241  18.369 -21.702  0.00  0.00     0.002 A 
ATOM     11  C   UNL d   1      33.188  19.196 -21.734  0.00  0.00     0.001 A 
ENDBRANCH   1   2
BRANCH   1  12
ATOM     12  C   UNL d   1      31.877  16.801 -24.104  0.00  0.00     0.020 A 
ATOM     13  C   UNL d   1      31.516  16.470 -23.451  0.00  0.00     0.028 A 
ATOM     14  C   UNL d   1      30.795  16.087 -23.536  0.00  0.00     0.116 A 
ATOM     15  C   UNL d   1      30.432  16.036 -24.286  0.00  0.00     0.116 A 
ATOM     16  C   UNL d   1      30.807  16.374 -24.940  0.00  0.00     0.026 A 
ATOM     17  C   UNL d   1      31.535  16.759 -24.846  0.00  0.00     0.004 A 
BRANCH  14  18
ATOM     18  O   UNL d   1      30.425  15.752 -22.881  0.00  0.00    -0.326 OA
ATOM     19  C   UNL d   1      30.877  15.459 -22.247  0.00  0.00     0.181 C 
ENDBRANCH  14  18
BRANCH  15  20
ATOM     20  O   UNL d   1      29.709  15.646 -24.338  0.00  0.00    -0.326 OA
ATOM     21  C   UNL d   1      29.218  15.770 -24.983  0.00  0.00     0.181 C 
ENDBRANCH  15  20
ENDBRANCH   1  12
TORSDOF 4
ENDMDL
MODEL 5
REMARK VINA RESULT:      -0.9      1.569      2.423
REMARK  4 active torsions:
REMARK  status: ('A' for Active; 'I' for Inactive)
REMARK    1  A    between atoms: C_6  and  N_1 
REMARK    2  A    between atoms: C_11  and  C_6 
REMARK    3  A    between atoms: O_14  and  C_8 
REMARK    4  A    between atoms: O_15  and  C_9 
ROOT
ATOM      1  C   UNL d   1      30.279  17.359 -25.035  0.00  0.00     0.084 C 
ENDROOT
BRANCH   1   2
ATOM      2  N   UNL d   1      29.819  16.786 -24.660  0.00  0.00    -0.268 N 
ATOM      3  C   UNL d   1      29.945  15.968 -24.689  0.00  0.00     0.296 A 
ATOM      4  S   UNL d   1      29.351  15.606 -24.233  0.00  0.00    -0.025 SA
ATOM      5  O   UNL d   1      30.550  15.584 -25.097  0.00  0.00    -0.259 OA
ATOM      6  C   UNL d   1      28.867  16.201 -23.928  0.00  0.00     0.050 A 
ATOM      7  C   UNL d   1      29.153  16.930 -24.189  0.00  0.00     0.073 A 
ATOM      8  C   UNL d   1      28.193  16.184 -23.440  0.00  0.00     0.008 A 
ATOM      9  C   UNL d   1      28.779  17.632 -23.972  0.00  0.00     0.018 A 
ATOM     10  C   UNL d   1      28.112  17.608 -23.488  0.00  0.00     0.002 A 
ATOM     11  C   UNL d   1      27.818  16.881 -23.221  0.00  0.00     0.001 A 
ENDBRANCH   1   2
BRANCH   1  12
ATOM     12  C   UNL d   1      30.990  17.612 -24.690  0.00  0.00     0.020 A 
ATOM     13  C   UNL d   1      31.656  17.144 -24.754  0.00  0.00     0.028 A 
ATOM     14  C   UNL d   1      32.360  17.392 -24.413  0.00  0.00     0.116 A 
ATOM     15  C   UNL d   1      32.396  18.117 -24.003  0.00  0.00     0.116 A 
ATOM     16  C   UNL d   1      31.715  18.582 -23.944  0.00  0.00     0.026 A 
ATOM     17  C   UNL d   1      31.008  18.325 -24.290  0.00  0.00     0.004 A 
BRANCH  14  18
ATOM     18  O   UNL d   1      33.036  16.924 -24.475  0.00  0.00    -0.326 OA
ATOM     19  C   UNL d   1      33.113  16.377 -25.097  0.00  0.00     0.181 C 
ENDBRANCH  14  18
BRANCH  15  20
ATOM     20  O   UNL d   1      33.117  18.337 -23.672  0.00  0.00    -0.326 OA
ATOM     21  C   UNL d   1      33.138  18.817 -23.007  0.00  0.00     0.181 C 
ENDBRANCH  15  20
ENDBRANCH   1  12
TORSDOF 4
ENDMDL
