MODEL 1
REMARK VINA RESULT:      34.5      0.000      0.000
REMARK  5 active torsions:
REMARK  status: ('A' for Active; 'I' for Inactive)
REMARK    1  A    between atoms: C_6  and  C_1 
REMARK    2  A    between atoms: C_11  and  N_3 
REMARK    3  A    between atoms: C_14  and  C_11 
REMARK    4  A    between atoms: O_12  and  C_14 
REMARK    5  A    between atoms: C_13  and  O_12 
ROOT
ATOM      1  C   UNL d   1      13.877  12.339  -2.554  0.00  0.00     0.171 A 
ATOM      2  N   UNL d   1      13.909  11.781  -1.943  0.00  0.00    -0.225 NA
ATOM      3  N   UNL d   1      14.226  13.028  -2.252  0.00  0.00    -0.286 N 
ATOM      4  C   UNL d   1      14.458  12.893  -1.493  0.00  0.00     0.083 A 
ATOM      5  C   UNL d   1      14.260  12.114  -1.299  0.00  0.00     0.099 A 
ATOM      6  C   UNL d   1      14.828  13.374  -0.935  0.00  0.00     0.019 A 
ATOM      7  C   UNL d   1      14.440  11.846  -0.556  0.00  0.00     0.021 A 
ATOM      8  C   UNL d   1      14.992  13.075  -0.209  0.00  0.00     0.002 A 
ATOM      9  C   UNL d   1      14.794  12.297  -0.016  0.00  0.00     0.002 A 
ENDROOT
BRANCH   3  10
ATOM     10  C   UNL d   1      14.249  13.651  -2.774  0.00  0.00     0.108 C 
BRANCH  10  11
ATOM     11  C   UNL d   1      14.246  14.429  -2.537  0.00  0.00     0.142 C 
BRANCH  11  12
ATOM     12  O   UNL d   1      14.637  15.014  -2.939  0.00  0.00    -0.304 OA
BRANCH  12  13
ATOM     13  C   UNL d   1      14.665  15.635  -3.387  0.00  0.00     0.100 A 
ATOM     14  C   UNL d   1      14.894  16.114  -2.755  0.00  0.00     0.025 A 
ATOM     15  C   UNL d   1      15.028  16.919  -2.874  0.00  0.00     0.002 A 
ATOM     16  C   UNL d   1      14.934  17.250  -3.628  0.00  0.00     0.000 A 
ATOM     17  C   UNL d   1      14.705  16.772  -4.261  0.00  0.00     0.002 A 
ATOM     18  C   UNL d   1      14.571  15.963  -4.139  0.00  0.00     0.025 A 
ENDBRANCH  12  13
ENDBRANCH  11  12
ENDBRANCH  10  11
ENDBRANCH   3  10
BRANCH   1  19
ATOM     19  C   UNL d   1      13.563  12.231  -3.308  0.00  0.00     0.134 A 
ATOM     20  O   UNL d   1      13.877  12.530  -3.992  0.00  0.00    -0.302 OA
ATOM     21  C   UNL d   1      13.390  12.291  -4.624  0.00  0.00     0.123 A 
ATOM     22  C   UNL d   1      12.774  11.842  -4.304  0.00  0.00     0.029 A 
ATOM     23  C   UNL d   1      12.891  11.810  -3.479  0.00  0.00     0.030 A 
ENDBRANCH   1  19
TORSDOF 5
ENDMDL
