MODEL 1
REMARK VINA RESULT:      55.6      0.000      0.000
REMARK  5 active torsions:
REMARK  status: ('A' for Active; 'I' for Inactive)
REMARK       I    between atoms: C_8  and  N_1 
REMARK    1  A    between atoms: C_10  and  C_3 
REMARK    2  A    between atoms: C_4  and  S_14 
REMARK    3  A    between atoms: C_15  and  C_6 
REMARK    4  A    between atoms: C_16  and  C_8 
REMARK    5  A    between atoms: S_14  and  C_16 
ROOT
ATOM      1  N   UNL d   1      13.647  13.431  -2.912  0.00  0.00    -0.195 N 
ATOM      2  N   UNL d   1      13.831  13.368  -2.132  0.00  0.00    -0.162 NA
ATOM      3  C   UNL d   1      14.010  12.574  -1.967  0.00  0.00     0.109 A 
ATOM      4  C   UNL d   1      13.707  12.674  -3.253  0.00  0.00     0.088 A 
ATOM      5  C   UNL d   1      13.929  12.169  -2.660  0.00  0.00     0.041 A 
ATOM      6  C   UNL d   1      13.431  14.054  -3.381  0.00  0.00     0.275 C 
ATOM      7  O   UNL d   1      13.271  13.947  -4.192  0.00  0.00    -0.266 OA
ENDROOT
BRANCH   4   8
ATOM      8  C   UNL d   1      13.577  12.450  -4.022  0.00  0.00     0.018 A 
ATOM      9  C   UNL d   1      12.897  12.032  -4.222  0.00  0.00     0.004 A 
ATOM     10  C   UNL d   1      12.770  11.805  -5.014  0.00  0.00     0.030 A 
ATOM     11  C   UNL d   1      13.319  11.997  -5.592  0.00  0.00     0.140 A 
ATOM     12  C   UNL d   1      13.999  12.416  -5.389  0.00  0.00     0.030 A 
ATOM     13  F   UNL d   1      13.208  11.779  -6.387  0.00  0.00    -0.204 F 
ATOM     14  C   UNL d   1      14.134  12.646  -4.602  0.00  0.00     0.004 A 
ENDBRANCH   4   8
BRANCH   6  15
ATOM     15  C   UNL d   1      13.367  14.819  -3.054  0.00  0.00     0.128 C 
BRANCH  15  16
ATOM     16  S   UNL d   1      13.917  15.410  -3.255  0.00  0.00    -0.069 SA
BRANCH  16  17
ATOM     17  C   UNL d   1      14.354  15.798  -2.662  0.00  0.00     0.140 A 
ATOM     18  N   UNL d   1      14.496  15.495  -1.914  0.00  0.00    -0.232 NA
ATOM     19  C   UNL d   1      14.947  16.050  -1.504  0.00  0.00     0.088 A 
ATOM     20  C   UNL d   1      15.253  16.046  -0.732  0.00  0.00     0.020 A 
ATOM     21  C   UNL d   1      15.081  16.690  -1.995  0.00  0.00     0.049 A 
ATOM     22  C   UNL d   1      15.694  16.688  -0.459  0.00  0.00     0.002 A 
ATOM     23  C   UNL d   1      15.826  17.337  -0.968  0.00  0.00     0.001 A 
ATOM     24  C   UNL d   1      15.517  17.330  -1.730  0.00  0.00     0.008 A 
ATOM     25  S   UNL d   1      14.712  16.538  -2.722  0.00  0.00    -0.060 SA
ENDBRANCH  16  17
ENDBRANCH  15  16
ENDBRANCH   6  15
BRANCH   3  26
ATOM     26  C   UNL d   1      14.226  12.284  -1.224  0.00  0.00     0.049 A 
ATOM     27  S   UNL d   1      14.928  12.164  -0.831  0.00  0.00    -0.085 SA
ATOM     28  C   UNL d   1      14.748  11.853  -0.090  0.00  0.00     0.035 A 
ATOM     29  C   UNL d   1      13.946  11.780  -0.020  0.00  0.00     0.007 A 
ATOM     30  C   UNL d   1      13.605  12.048  -0.729  0.00  0.00     0.009 A 
ENDBRANCH   3  26
TORSDOF 5
ENDMDL
