MODEL 1
REMARK VINA RESULT:      67.3      0.000      0.000
REMARK  6 active torsions:
REMARK  status: ('A' for Active; 'I' for Inactive)
REMARK    1  A    between atoms: S_15  and  C_4 
REMARK    2  A    between atoms: C_7  and  N_13 
REMARK    3  A    between atoms: S_20  and  C_11 
REMARK       I    between atoms: N_13  and  C_16 
REMARK    4  A    between atoms: C_21  and  S_15 
REMARK    5  A    between atoms: C_16  and  C_21 
REMARK    6  A    between atoms: C_23  and  S_20 
ROOT
ATOM      1  S   UNL d   1     -50.845  26.971  35.350  0.00  0.00    -0.044 SA
ENDROOT
BRANCH   1   2
ATOM      2  C   UNL d   1     -51.108  26.715  36.098  0.00  0.00     0.182 A 
ATOM      3  N   UNL d   1     -51.795  26.246  36.158  0.00  0.00    -0.222 NA
ATOM      4  C   UNL d   1     -52.052  25.996  36.890  0.00  0.00     0.095 A 
ATOM      5  C   UNL d   1     -51.636  26.202  37.572  0.00  0.00     0.104 A 
ATOM      6  C   UNL d   1     -52.699  25.537  37.112  0.00  0.00     0.026 A 
ATOM      7  C   UNL d   1     -50.964  26.659  37.523  0.00  0.00     0.274 A 
ATOM      8  S   UNL d   1     -52.028  25.871  38.215  0.00  0.00    -0.081 SA
ATOM      9  N   UNL d   1     -50.693  26.921  36.780  0.00  0.00    -0.251 N 
ATOM     10  O   UNL d   1     -50.549  26.865  38.205  0.00  0.00    -0.266 OA
ATOM     11  C   UNL d   1     -50.007  27.387  36.726  0.00  0.00     0.104 C 
ATOM     12  C   UNL d   1     -52.686  25.459  37.925  0.00  0.00     0.031 A 
ATOM     13  C   UNL d   1     -53.239  25.040  38.372  0.00  0.00     0.007 C 
ENDBRANCH   1   2
BRANCH   1  14
ATOM     14  C   UNL d   1     -50.846  26.444  34.714  0.00  0.00     0.101 C 
BRANCH  14  15
ATOM     15  C   UNL d   1     -50.486  26.656  34.002  0.00  0.00     0.288 C 
ATOM     16  N   UNL d   1     -50.625  26.211  33.321  0.00  0.00    -0.181 NA
ATOM     17  O   UNL d   1     -49.987  27.313  33.971  0.00  0.00    -0.265 OA
BRANCH  16  18
ATOM     18  C   UNL d   1     -51.123  25.554  33.353  0.00  0.00     0.219 A 
ATOM     19  S   UNL d   1     -51.939  25.474  33.307  0.00  0.00    -0.019 SA
ATOM     20  C   UNL d   1     -52.126  24.678  33.373  0.00  0.00     0.165 A 
ATOM     21  N   UNL d   1     -51.431  24.271  33.459  0.00  0.00    -0.133 NA
ATOM     22  N   UNL d   1     -50.806  24.803  33.448  0.00  0.00    -0.120 NA
BRANCH  20  23
ATOM     23  S   UNL d   1     -52.880  24.342  33.356  0.00  0.00    -0.059 SA
BRANCH  23  24
ATOM     24  C   UNL d   1     -52.960  23.526  33.370  0.00  0.00     0.037 C 
ATOM     25  C   UNL d   1     -53.720  23.188  33.440  0.00  0.00     0.008 C 
ENDBRANCH  23  24
ENDBRANCH  20  23
ENDBRANCH  16  18
ENDBRANCH  14  15
ENDBRANCH   1  14
TORSDOF 6
ENDMDL
MODEL 2
REMARK VINA RESULT:      67.7      2.071      4.547
REMARK  6 active torsions:
REMARK  status: ('A' for Active; 'I' for Inactive)
REMARK    1  A    between atoms: S_15  and  C_4 
REMARK    2  A    between atoms: C_7  and  N_13 
REMARK    3  A    between atoms: S_20  and  C_11 
REMARK       I    between atoms: N_13  and  C_16 
REMARK    4  A    between atoms: C_21  and  S_15 
REMARK    5  A    between atoms: C_16  and  C_21 
REMARK    6  A    between atoms: C_23  and  S_20 
ROOT
ATOM      1  S   UNL d   1     -52.928  24.481  33.774  0.00  0.00    -0.044 SA
ENDROOT
BRANCH   1   2
ATOM      2  C   UNL d   1     -52.203  24.875  33.656  0.00  0.00     0.182 A 
ATOM      3  N   UNL d   1     -52.179  25.708  33.652  0.00  0.00    -0.222 NA
ATOM      4  C   UNL d   1     -51.470  26.092  33.536  0.00  0.00     0.095 A 
ATOM      5  C   UNL d   1     -50.775  25.662  33.423  0.00  0.00     0.104 A 
ATOM      6  C   UNL d   1     -51.284  26.894  33.506  0.00  0.00     0.026 A 
ATOM      7  C   UNL d   1     -50.789  24.848  33.426  0.00  0.00     0.274 A 
ATOM      8  S   UNL d   1     -50.160  26.199  33.323  0.00  0.00    -0.081 SA
ATOM      9  N   UNL d   1     -51.508  24.445  33.543  0.00  0.00    -0.251 N 
ATOM     10  O   UNL d   1     -50.094  24.418  33.313  0.00  0.00    -0.266 OA
ATOM     11  C   UNL d   1     -51.527  23.614  33.546  0.00  0.00     0.104 C 
ATOM     12  C   UNL d   1     -50.480  26.962  33.375  0.00  0.00     0.031 A 
ATOM     13  C   UNL d   1     -50.067  27.673  33.307  0.00  0.00     0.007 C 
ENDBRANCH   1   2
BRANCH   1  14
ATOM     14  C   UNL d   1     -53.145  24.246  34.536  0.00  0.00     0.101 C 
BRANCH  14  15
ATOM     15  C   UNL d   1     -53.666  23.614  34.640  0.00  0.00     0.288 C 
ATOM     16  N   UNL d   1     -53.917  23.406  35.398  0.00  0.00    -0.181 NA
ATOM     17  O   UNL d   1     -53.936  23.190  33.985  0.00  0.00    -0.265 OA
BRANCH  16  18
ATOM     18  C   UNL d   1     -53.646  23.831  36.052  0.00  0.00     0.219 A 
ATOM     19  S   UNL d   1     -53.269  23.602  36.744  0.00  0.00    -0.019 SA
ATOM     20  C   UNL d   1     -53.132  24.272  37.198  0.00  0.00     0.165 A 
ATOM     21  N   UNL d   1     -53.423  24.908  36.789  0.00  0.00    -0.133 NA
ATOM     22  N   UNL d   1     -53.742  24.646  36.080  0.00  0.00    -0.120 NA
BRANCH  20  23
ATOM     23  S   UNL d   1     -52.766  24.304  37.937  0.00  0.00    -0.059 SA
BRANCH  23  24
ATOM     24  C   UNL d   1     -52.226  24.899  38.096  0.00  0.00     0.037 C 
ATOM     25  C   UNL d   1     -52.200  25.241  38.857  0.00  0.00     0.008 C 
ENDBRANCH  23  24
ENDBRANCH  20  23
ENDBRANCH  16  18
ENDBRANCH  14  15
ENDBRANCH   1  14
TORSDOF 6
ENDMDL
