MODEL 1
REMARK VINA RESULT:      -8.7      0.000      0.000
REMARK  4 active torsions:
REMARK  status: ('A' for Active; 'I' for Inactive)
REMARK    1  A    between atoms: C_2  and  C_1 
REMARK       I    between atoms: N_7  and  C_2 
REMARK    2  A    between atoms: C_12  and  N_7 
REMARK    3  A    between atoms: C_13  and  N_7 
REMARK    4  A    between atoms: O_14  and  C_11 
ROOT
ATOM      1  C   UNL d   1     -48.586  14.341  23.071  0.00  0.00     0.120 A 
ATOM      2  C   UNL d   1     -48.038  14.707  22.573  0.00  0.00     0.305 A 
ATOM      3  O   UNL d   1     -47.298  14.352  22.452  0.00  0.00    -0.271 OA
ATOM      4  C   UNL d   1     -48.397  13.626  23.445  0.00  0.00     0.012 A 
ATOM      5  C   UNL d   1     -47.107  13.641  22.823  0.00  0.00     0.125 A 
ATOM      6  C   UNL d   1     -47.663  13.276  23.324  0.00  0.00     0.025 A 
ATOM      7  O   UNL d   1     -48.229  15.419  22.202  0.00  0.00    -0.259 OA
ATOM      8  C   UNL d   1     -46.377  13.292  22.702  0.00  0.00     0.117 A 
ATOM      9  C   UNL d   1     -47.477  12.566  23.695  0.00  0.00     0.002 A 
ATOM     10  C   UNL d   1     -46.743  12.216  23.574  0.00  0.00     0.002 A 
ATOM     11  C   UNL d   1     -46.187  12.581  23.073  0.00  0.00     0.026 A 
ENDROOT
BRANCH   1  12
ATOM     12  C   UNL d   1     -49.325  14.691  23.195  0.00  0.00     0.270 C 
ATOM     13  N   UNL d   1     -49.992  14.384  22.811  0.00  0.00    -0.273 N 
ATOM     14  O   UNL d   1     -49.397  15.341  23.697  0.00  0.00    -0.266 OA
BRANCH  13  15
ATOM     15  C   UNL d   1     -49.916  13.731  22.308  0.00  0.00     0.067 A 
ATOM     16  C   UNL d   1     -49.705  13.844  21.522  0.00  0.00     0.018 A 
ATOM     17  C   UNL d   1     -49.630  13.192  21.023  0.00  0.00     0.002 A 
ATOM     18  C   UNL d   1     -49.766  12.427  21.308  0.00  0.00     0.000 A 
ATOM     19  C   UNL d   1     -49.979  12.318  22.105  0.00  0.00     0.002 A 
ATOM     20  C   UNL d   1     -50.055  12.967  22.605  0.00  0.00     0.018 A 
ENDBRANCH  13  15
BRANCH  13  21
ATOM     21  C   UNL d   1     -50.736  14.729  22.930  0.00  0.00     0.083 C 
ATOM     22  C   UNL d   1     -51.037  14.803  23.693  0.00  0.00     0.021 C 
ENDBRANCH  13  21
ENDBRANCH   1  12
BRANCH   8  23
ATOM     23  O   UNL d   1     -45.821  13.657  22.202  0.00  0.00    -0.326 OA
ATOM     24  C   UNL d   1     -45.096  13.289  22.058  0.00  0.00     0.181 C 
ENDBRANCH   8  23
TORSDOF 4
ENDMDL
MODEL 2
REMARK VINA RESULT:      -6.3      8.866      9.957
REMARK  4 active torsions:
REMARK  status: ('A' for Active; 'I' for Inactive)
REMARK    1  A    between atoms: C_2  and  C_1 
REMARK       I    between atoms: N_7  and  C_2 
REMARK    2  A    between atoms: C_12  and  N_7 
REMARK    3  A    between atoms: C_13  and  N_7 
REMARK    4  A    between atoms: O_14  and  C_11 
ROOT
ATOM      1  C   UNL d   1     -40.218  15.050  18.946  0.00  0.00     0.120 A 
ATOM      2  C   UNL d   1     -40.483  14.400  19.379  0.00  0.00     0.305 A 
ATOM      3  O   UNL d   1     -40.122  14.221  20.105  0.00  0.00    -0.271 OA
ATOM      4  C   UNL d   1     -39.599  15.519  19.233  0.00  0.00     0.012 A 
ATOM      5  C   UNL d   1     -39.506  14.686  20.394  0.00  0.00     0.125 A 
ATOM      6  C   UNL d   1     -39.243  15.341  19.952  0.00  0.00     0.025 A 
ATOM      7  O   UNL d   1     -41.100  13.934  19.090  0.00  0.00    -0.259 OA
ATOM      8  C   UNL d   1     -39.152  14.509  21.110  0.00  0.00     0.117 A 
ATOM      9  C   UNL d   1     -38.629  15.808  20.237  0.00  0.00     0.002 A 
ATOM     10  C   UNL d   1     -38.272  15.630  20.957  0.00  0.00     0.002 A 
ATOM     11  C   UNL d   1     -38.535  14.974  21.398  0.00  0.00     0.026 A 
ENDROOT
BRANCH   1  12
ATOM     12  C   UNL d   1     -40.574  15.232  18.222  0.00  0.00     0.270 C 
ATOM     13  N   UNL d   1     -40.232  14.959  17.517  0.00  0.00    -0.273 N 
ATOM     14  O   UNL d   1     -41.266  15.681  18.200  0.00  0.00    -0.266 OA
BRANCH  13  15
ATOM     15  C   UNL d   1     -39.538  14.508  17.542  0.00  0.00     0.067 A 
ATOM     16  C   UNL d   1     -38.808  14.881  17.491  0.00  0.00     0.018 A 
ATOM     17  C   UNL d   1     -38.118  14.429  17.516  0.00  0.00     0.002 A 
ATOM     18  C   UNL d   1     -38.158  13.606  17.593  0.00  0.00     0.000 A 
ATOM     19  C   UNL d   1     -38.900  13.234  17.645  0.00  0.00     0.002 A 
ATOM     20  C   UNL d   1     -39.590  13.682  17.620  0.00  0.00     0.018 A 
ENDBRANCH  13  15
BRANCH  13  21
ATOM     21  C   UNL d   1     -40.583  15.137  16.788  0.00  0.00     0.083 C 
ATOM     22  C   UNL d   1     -40.732  15.922  16.584  0.00  0.00     0.021 C 
ENDBRANCH  13  21
ENDBRANCH   1  12
BRANCH   8  23
ATOM     23  O   UNL d   1     -39.415  13.854  21.551  0.00  0.00    -0.326 OA
ATOM     24  C   UNL d   1     -39.076  13.694  22.288  0.00  0.00     0.181 C 
ENDBRANCH   8  23
TORSDOF 4
ENDMDL
MODEL 3
REMARK VINA RESULT:      -6.0      1.340      3.386
REMARK  4 active torsions:
REMARK  status: ('A' for Active; 'I' for Inactive)
REMARK    1  A    between atoms: C_2  and  C_1 
REMARK       I    between atoms: N_7  and  C_2 
REMARK    2  A    between atoms: C_12  and  N_7 
REMARK    3  A    between atoms: C_13  and  N_7 
REMARK    4  A    between atoms: O_14  and  C_11 
ROOT
ATOM      1  C   UNL d   1     -48.006  13.784  22.543  0.00  0.00     0.120 A 
ATOM      2  C   UNL d   1     -48.302  13.857  21.776  0.00  0.00     0.305 A 
ATOM      3  O   UNL d   1     -49.021  14.255  21.654  0.00  0.00    -0.271 OA
ATOM      4  C   UNL d   1     -48.421  14.105  23.183  0.00  0.00     0.012 A 
ATOM      5  C   UNL d   1     -49.436  14.575  22.290  0.00  0.00     0.125 A 
ATOM      6  C   UNL d   1     -49.132  14.499  23.061  0.00  0.00     0.025 A 
ATOM      7  O   UNL d   1     -47.886  13.536  21.139  0.00  0.00    -0.259 OA
ATOM      8  C   UNL d   1     -50.144  14.968  22.168  0.00  0.00     0.117 A 
ATOM      9  C   UNL d   1     -49.544  14.817  23.697  0.00  0.00     0.002 A 
ATOM     10  C   UNL d   1     -50.256  15.211  23.575  0.00  0.00     0.002 A 
ATOM     11  C   UNL d   1     -50.560  15.288  22.804  0.00  0.00     0.026 A 
ENDROOT
BRANCH   1  12
ATOM     12  C   UNL d   1     -47.291  13.388  22.669  0.00  0.00     0.270 C 
ATOM     13  N   UNL d   1     -47.298  12.580  22.855  0.00  0.00    -0.273 N 
ATOM     14  O   UNL d   1     -46.575  13.794  22.610  0.00  0.00    -0.266 OA
BRANCH  13  15
ATOM     15  C   UNL d   1     -48.017  12.175  22.914  0.00  0.00     0.067 A 
ATOM     16  C   UNL d   1     -48.390  12.111  23.642  0.00  0.00     0.018 A 
ATOM     17  C   UNL d   1     -49.107  11.707  23.698  0.00  0.00     0.002 A 
ATOM     18  C   UNL d   1     -49.451  11.368  23.026  0.00  0.00     0.000 A 
ATOM     19  C   UNL d   1     -49.069  11.436  22.290  0.00  0.00     0.002 A 
ATOM     20  C   UNL d   1     -48.354  11.839  22.232  0.00  0.00     0.018 A 
ENDBRANCH  13  15
BRANCH  13  21
ATOM     21  C   UNL d   1     -46.585  12.177  22.983  0.00  0.00     0.083 C 
ATOM     22  C   UNL d   1     -46.183  12.268  23.696  0.00  0.00     0.021 C 
ENDBRANCH  13  21
ENDBRANCH   1  12
BRANCH   8  23
ATOM     23  O   UNL d   1     -50.448  15.044  21.397  0.00  0.00    -0.326 OA
ATOM     24  C   UNL d   1     -51.062  14.552  21.148  0.00  0.00     0.181 C 
ENDBRANCH   8  23
TORSDOF 4
ENDMDL
