MODEL 1
REMARK VINA RESULT:      35.4      0.000      0.000
REMARK  8 active torsions:
REMARK  status: ('A' for Active; 'I' for Inactive)
REMARK    1  A    between atoms: C_2  and  S_1 
REMARK    2  A    between atoms: N_3  and  S_1 
REMARK    3  A    between atoms: C_17  and  N_3 
REMARK    4  A    between atoms: O_21  and  C_8 
REMARK    5  A    between atoms: O_22  and  C_16 
REMARK    6  A    between atoms: C_18  and  C_17 
REMARK    7  A    between atoms: C_23  and  O_21 
REMARK    8  A    between atoms: C_24  and  O_22 
ROOT
ATOM      1  S   UNL d   1      13.310  13.948  -3.863  0.00  0.00     0.287 S 
ATOM      2  O   UNL d   1      12.776  13.611  -4.389  0.00  0.00    -0.198 OA
ATOM      3  O   UNL d   1      13.218  14.685  -4.260  0.00  0.00    -0.198 OA
ENDROOT
BRANCH   1   4
ATOM      4  C   UNL d   1      13.405  13.217  -3.464  0.00  0.00     0.130 A 
ATOM      5  C   UNL d   1      13.610  13.203  -2.664  0.00  0.00     0.040 A 
ATOM      6  C   UNL d   1      13.700  12.484  -2.284  0.00  0.00     0.101 A 
ATOM      7  C   UNL d   1      13.587  11.782  -2.692  0.00  0.00     0.027 A 
ATOM      8  C   UNL d   1      13.382  11.779  -3.492  0.00  0.00     0.028 A 
ATOM      9  C   UNL d   1      13.292  12.515  -3.872  0.00  0.00     0.112 A 
BRANCH   6  10
ATOM     10  O   UNL d   1      13.912  12.482  -1.461  0.00  0.00    -0.305 OA
BRANCH  10  11
ATOM     11  C   UNL d   1      14.713  12.430  -1.222  0.00  0.00     0.123 C 
ATOM     12  C   UNL d   1      14.917  11.911  -0.619  0.00  0.00     0.029 C 
ENDBRANCH  10  11
ENDBRANCH   6  10
BRANCH   9  13
ATOM     13  O   UNL d   1      13.077  12.523  -4.709  0.00  0.00    -0.304 OA
BRANCH  13  14
ATOM     14  C   UNL d   1      13.285  11.868  -5.195  0.00  0.00     0.123 C 
ATOM     15  C   UNL d   1      13.119  11.893  -6.006  0.00  0.00     0.029 C 
ENDBRANCH  13  14
ENDBRANCH   9  13
ENDBRANCH   1   4
BRANCH   1  16
ATOM     16  N   UNL d   1      13.854  14.305  -3.332  0.00  0.00    -0.157 NA
BRANCH  16  17
ATOM     17  C   UNL d   1      14.260  15.008  -3.549  0.00  0.00     0.112 C 
BRANCH  17  18
ATOM     18  C   UNL d   1      14.519  15.540  -2.937  0.00  0.00     0.022 A 
ATOM     19  C   UNL d   1      14.651  15.231  -2.178  0.00  0.00     0.028 A 
ATOM     20  C   UNL d   1      14.902  15.742  -1.580  0.00  0.00     0.119 A 
ATOM     21  O   UNL d   1      15.077  15.603  -0.784  0.00  0.00    -0.300 OA
ATOM     22  C   UNL d   1      15.020  16.539  -1.732  0.00  0.00     0.119 A 
ATOM     23  C   UNL d   1      15.300  16.323  -0.456  0.00  0.00     0.304 A 
ATOM     24  O   UNL d   1      15.267  16.894  -1.029  0.00  0.00    -0.300 OA
ATOM     25  C   UNL d   1      14.888  16.841  -2.485  0.00  0.00     0.026 A 
ATOM     26  C   UNL d   1      14.637  16.338  -3.088  0.00  0.00     0.004 A 
ENDBRANCH  17  18
ENDBRANCH  16  17
ENDBRANCH   1  16
TORSDOF 8
ENDMDL
