MODEL 1
REMARK VINA RESULT:      35.2      0.000      0.000
REMARK  3 active torsions:
REMARK  status: ('A' for Active; 'I' for Inactive)
REMARK    1  A    between atoms: C_4  and  C_1 
REMARK       I    between atoms: N_6  and  C_4 
REMARK    2  A    between atoms: C_8  and  C_5 
REMARK    3  A    between atoms: C_7  and  N_6 
ROOT
ATOM      1  C   UNL d   1      59.218  49.653  51.303  0.00  0.00     0.192 A 
ATOM      2  C   UNL d   1      60.514  49.579  50.680  0.00  0.00     0.296 A 
ATOM      3  O   UNL d   1      59.686  49.597  50.614  0.00  0.00    -0.290 OA
ATOM      4  C   UNL d   1      60.878  49.616  51.423  0.00  0.00     0.063 A 
ATOM      5  C   UNL d   1      60.403  49.671  52.107  0.00  0.00     0.004 A 
ATOM      6  C   UNL d   1      59.579  49.690  52.049  0.00  0.00     0.010 A 
ATOM      7  O   UNL d   1      60.975  49.524  50.001  0.00  0.00    -0.259 OA
ATOM      8  C   UNL d   1      58.763  49.708  51.986  0.00  0.00     0.045 C 
ATOM      9  C   UNL d   1      60.767  49.708  52.849  0.00  0.00    -0.000 A 
ATOM     10  C   UNL d   1      61.694  49.598  51.486  0.00  0.00     0.005 A 
ATOM     11  C   UNL d   1      61.590  49.689  52.902  0.00  0.00    -0.000 A 
ATOM     12  C   UNL d   1      62.051  49.634  52.224  0.00  0.00     0.000 A 
ENDROOT
BRANCH   1  13
ATOM     13  C   UNL d   1      58.684  49.628  50.685  0.00  0.00     0.285 C 
ATOM     14  N   UNL d   1      57.879  49.535  50.840  0.00  0.00    -0.209 NA
ATOM     15  O   UNL d   1      58.953  49.697  49.907  0.00  0.00    -0.267 OA
BRANCH  14  16
ATOM     16  C   UNL d   1      57.345  49.511  50.213  0.00  0.00     0.090 A 
ATOM     17  C   UNL d   1      56.571  49.290  50.350  0.00  0.00     0.082 A 
ATOM     18  C   UNL d   1      56.034  49.265  49.723  0.00  0.00     0.008 A 
ATOM     19  C   UNL d   1      56.280  49.463  48.962  0.00  0.00     0.000 A 
ATOM     20  C   UNL d   1      57.065  49.686  48.829  0.00  0.00     0.002 A 
ATOM     21  C   UNL d   1      57.592  49.707  49.459  0.00  0.00     0.019 A 
BRANCH  17  22
ATOM     22  C   UNL d   1      56.326  49.092  51.115  0.00  0.00     0.212 C 
ATOM     23  O   UNL d   1      56.372  48.306  51.368  0.00  0.00    -0.644 OA
ATOM     24  O   UNL d   1      56.042  49.672  51.616  0.00  0.00    -0.644 OA
ENDBRANCH  17  22
ENDBRANCH  14  16
ENDBRANCH   1  13
TORSDOF 3
ENDMDL
