MODEL 1
REMARK VINA RESULT:      -9.1      0.000      0.000
REMARK  2 active torsions:
REMARK  status: ('A' for Active; 'I' for Inactive)
REMARK    1  A    between atoms: C_6  and  C_1 
REMARK    2  A    between atoms: C_8  and  C_5 
ROOT
ATOM      1  C   UNL d   1      52.969  31.047  53.084  0.00  0.00     0.169 A 
ATOM      2  C   UNL d   1      53.545  31.306  53.631  0.00  0.00     0.048 A 
ATOM      3  N   UNL d   1      52.962  32.388  53.107  0.00  0.00    -0.148 NA
ATOM      4  N   UNL d   1      52.610  31.725  52.762  0.00  0.00    -0.142 NA
ATOM      5  C   UNL d   1      53.540  32.117  53.645  0.00  0.00     0.105 A 
ENDROOT
BRANCH   5   6
ATOM      6  C   UNL d   1      54.013  32.583  54.099  0.00  0.00     0.019 A 
ATOM      7  C   UNL d   1      54.663  32.962  53.762  0.00  0.00     0.002 A 
ATOM      8  C   UNL d   1      55.157  33.443  54.218  0.00  0.00     0.000 A 
ATOM      9  C   UNL d   1      54.987  33.538  55.020  0.00  0.00     0.000 A 
ATOM     10  C   UNL d   1      54.336  33.161  55.368  0.00  0.00     0.000 A 
ATOM     11  C   UNL d   1      53.855  32.687  54.903  0.00  0.00     0.002 A 
ENDBRANCH   5   6
BRANCH   1  12
ATOM     12  C   UNL d   1      52.812  30.267  52.919  0.00  0.00     0.231 C 
ATOM     13  O   UNL d   1      52.510  29.762  53.461  0.00  0.00    -0.643 OA
ATOM     14  O   UNL d   1      52.962  29.961  52.170  0.00  0.00    -0.643 OA
ENDBRANCH   1  12
TORSDOF 2
ENDMDL
MODEL 2
REMARK VINA RESULT:      -8.7      2.195      3.406
REMARK  2 active torsions:
REMARK  status: ('A' for Active; 'I' for Inactive)
REMARK    1  A    between atoms: C_6  and  C_1 
REMARK    2  A    between atoms: C_8  and  C_5 
ROOT
ATOM      1  C   UNL d   1      54.523  33.252  54.500  0.00  0.00     0.169 A 
ATOM      2  C   UNL d   1      53.948  32.646  54.476  0.00  0.00     0.048 A 
ATOM      3  N   UNL d   1      54.691  32.549  53.370  0.00  0.00    -0.148 NA
ATOM      4  N   UNL d   1      54.981  33.186  53.809  0.00  0.00    -0.142 NA
ATOM      5  C   UNL d   1      54.050  32.221  53.792  0.00  0.00     0.105 A 
ENDROOT
BRANCH   5   6
ATOM      6  C   UNL d   1      53.608  31.591  53.560  0.00  0.00     0.019 A 
ATOM      7  C   UNL d   1      53.824  30.829  53.792  0.00  0.00     0.002 A 
ATOM      8  C   UNL d   1      53.380  30.173  53.561  0.00  0.00     0.000 A 
ATOM      9  C   UNL d   1      52.712  30.293  53.090  0.00  0.00     0.000 A 
ATOM     10  C   UNL d   1      52.487  31.053  52.851  0.00  0.00     0.000 A 
ATOM     11  C   UNL d   1      52.939  31.696  53.089  0.00  0.00     0.002 A 
ENDBRANCH   5   6
BRANCH   1  12
ATOM     12  C   UNL d   1      54.594  33.791  55.103  0.00  0.00     0.231 C 
ATOM     13  O   UNL d   1      55.238  33.827  55.578  0.00  0.00    -0.643 OA
ATOM     14  O   UNL d   1      53.993  34.334  55.252  0.00  0.00    -0.643 OA
ENDBRANCH   1  12
TORSDOF 2
ENDMDL
MODEL 3
REMARK VINA RESULT:      -8.2      2.677      3.477
REMARK  2 active torsions:
REMARK  status: ('A' for Active; 'I' for Inactive)
REMARK    1  A    between atoms: C_6  and  C_1 
REMARK    2  A    between atoms: C_8  and  C_5 
ROOT
ATOM      1  C   UNL d   1      54.183  33.304  54.463  0.00  0.00     0.169 A 
ATOM      2  C   UNL d   1      53.424  33.641  54.378  0.00  0.00     0.048 A 
ATOM      3  N   UNL d   1      53.700  32.963  53.260  0.00  0.00    -0.148 NA
ATOM      4  N   UNL d   1      54.348  32.884  53.765  0.00  0.00    -0.142 NA
ATOM      5  C   UNL d   1      53.132  33.435  53.650  0.00  0.00     0.105 A 
ENDROOT
BRANCH   5   6
ATOM      6  C   UNL d   1      52.415  33.649  53.353  0.00  0.00     0.019 A 
ATOM      7  C   UNL d   1      51.755  33.174  53.490  0.00  0.00     0.002 A 
ATOM      8  C   UNL d   1      51.014  33.382  53.191  0.00  0.00     0.000 A 
ATOM      9  C   UNL d   1      50.945  34.076  52.749  0.00  0.00     0.000 A 
ATOM     10  C   UNL d   1      51.603  34.560  52.606  0.00  0.00     0.000 A 
ATOM     11  C   UNL d   1      52.332  34.341  52.910  0.00  0.00     0.002 A 
ENDBRANCH   5   6
BRANCH   1  12
ATOM     12  C   UNL d   1      54.651  33.389  55.123  0.00  0.00     0.231 C 
ATOM     13  O   UNL d   1      54.564  32.936  55.777  0.00  0.00    -0.643 OA
ATOM     14  O   UNL d   1      55.244  33.959  55.143  0.00  0.00    -0.643 OA
ENDBRANCH   1  12
TORSDOF 2
ENDMDL
MODEL 4
REMARK VINA RESULT:      -8.0      2.302      2.494
REMARK  2 active torsions:
REMARK  status: ('A' for Active; 'I' for Inactive)
REMARK    1  A    between atoms: C_6  and  C_1 
REMARK    2  A    between atoms: C_8  and  C_5 
ROOT
ATOM      1  C   UNL d   1      51.788  33.626  52.894  0.00  0.00     0.169 A 
ATOM      2  C   UNL d   1      52.453  33.918  53.306  0.00  0.00     0.048 A 
ATOM      3  N   UNL d   1      52.478  32.584  53.379  0.00  0.00    -0.148 NA
ATOM      4  N   UNL d   1      51.810  32.797  52.943  0.00  0.00    -0.142 NA
ATOM      5  C   UNL d   1      52.870  33.288  53.600  0.00  0.00     0.105 A 
ENDROOT
BRANCH   5   6
ATOM      6  C   UNL d   1      53.548  33.331  54.031  0.00  0.00     0.019 A 
ATOM      7  C   UNL d   1      54.254  33.043  53.717  0.00  0.00     0.002 A 
ATOM      8  C   UNL d   1      54.958  33.081  54.149  0.00  0.00     0.000 A 
ATOM      9  C   UNL d   1      54.941  33.415  54.904  0.00  0.00     0.000 A 
ATOM     10  C   UNL d   1      54.237  33.708  55.228  0.00  0.00     0.000 A 
ATOM     11  C   UNL d   1      53.546  33.662  54.787  0.00  0.00     0.002 A 
ENDBRANCH   5   6
BRANCH   1  12
ATOM     12  C   UNL d   1      51.238  34.095  52.523  0.00  0.00     0.231 C 
ATOM     13  O   UNL d   1      50.597  34.392  52.899  0.00  0.00    -0.643 OA
ATOM     14  O   UNL d   1      51.321  34.287  51.727  0.00  0.00    -0.643 OA
ENDBRANCH   1  12
TORSDOF 2
ENDMDL
MODEL 5
REMARK VINA RESULT:      -7.9      2.662      3.548
REMARK  2 active torsions:
REMARK  status: ('A' for Active; 'I' for Inactive)
REMARK    1  A    between atoms: C_6  and  C_1 
REMARK    2  A    between atoms: C_8  and  C_5 
ROOT
ATOM      1  C   UNL d   1      52.995  34.640  54.128  0.00  0.00     0.169 A 
ATOM      2  C   UNL d   1      53.178  33.835  54.257  0.00  0.00     0.048 A 
ATOM      3  N   UNL d   1      52.704  33.954  53.013  0.00  0.00    -0.148 NA
ATOM      4  N   UNL d   1      52.701  34.706  53.353  0.00  0.00    -0.142 NA
ATOM      5  C   UNL d   1      53.002  33.420  53.582  0.00  0.00     0.105 A 
ENDROOT
BRANCH   5   6
ATOM      6  C   UNL d   1      53.098  32.628  53.478  0.00  0.00     0.019 A 
ATOM      7  C   UNL d   1      52.542  32.201  53.043  0.00  0.00     0.002 A 
ATOM      8  C   UNL d   1      52.628  31.387  52.929  0.00  0.00     0.000 A 
ATOM      9  C   UNL d   1      53.283  31.008  53.258  0.00  0.00     0.000 A 
ATOM     10  C   UNL d   1      53.847  31.428  53.697  0.00  0.00     0.000 A 
ATOM     11  C   UNL d   1      53.747  32.236  53.802  0.00  0.00     0.002 A 
ENDBRANCH   5   6
BRANCH   1  12
ATOM     12  C   UNL d   1      53.098  35.226  54.681  0.00  0.00     0.231 C 
ATOM     13  O   UNL d   1      53.306  35.076  55.439  0.00  0.00    -0.643 OA
ATOM     14  O   UNL d   1      52.989  36.016  54.477  0.00  0.00    -0.643 OA
ENDBRANCH   1  12
TORSDOF 2
ENDMDL
