MODEL 1
REMARK VINA RESULT:      48.3      0.000      0.000
REMARK  5 active torsions:
REMARK  status: ('A' for Active; 'I' for Inactive)
REMARK       I    between atoms: C_2  and  N_1 
REMARK    1  A    between atoms: C_4  and  N_1 
REMARK    2  A    between atoms: C_14  and  C_2 
REMARK       I    between atoms: C_3  and  N_6 
REMARK    3  A    between atoms: C_5  and  C_3 
REMARK    4  A    between atoms: N_8  and  C_4 
REMARK    5  A    between atoms: N_6  and  N_8 
ROOT
ATOM      1  C   UNL d   1     -48.597  28.345  35.049  0.00  0.00     0.243 C 
ATOM      2  S   UNL d   1     -48.612  28.057  35.814  0.00  0.00    -0.035 SA
ENDROOT
BRANCH   1   3
ATOM      3  N   UNL d   1     -48.462  29.149  34.908  0.00  0.00    -0.177 NA
ATOM      4  C   UNL d   1     -47.847  29.536  35.298  0.00  0.00     0.281 C 
ATOM      5  O   UNL d   1     -47.368  29.118  35.830  0.00  0.00    -0.265 OA
BRANCH   4   6
ATOM      6  C   UNL d   1     -47.714  30.334  35.157  0.00  0.00     0.058 A 
ATOM      7  C   UNL d   1     -48.109  30.716  34.548  0.00  0.00     0.005 A 
ATOM      8  C   UNL d   1     -47.977  31.517  34.405  0.00  0.00     0.000 A 
ATOM      9  C   UNL d   1     -47.445  31.933  34.878  0.00  0.00     0.000 A 
ATOM     10  C   UNL d   1     -47.044  31.546  35.495  0.00  0.00     0.000 A 
ATOM     11  C   UNL d   1     -47.180  30.745  35.633  0.00  0.00     0.005 A 
ENDBRANCH   4   6
ENDBRANCH   1   3
BRANCH   1  12
ATOM     12  N   UNL d   1     -48.718  27.832  34.415  0.00  0.00    -0.114 NA
BRANCH  12  13
ATOM     13  N   UNL d   1     -49.469  27.540  34.250  0.00  0.00    -0.103 NA
ATOM     14  C   UNL d   1     -49.570  26.919  33.717  0.00  0.00     0.303 C 
ATOM     15  O   UNL d   1     -48.919  26.590  33.349  0.00  0.00    -0.263 OA
BRANCH  14  16
ATOM     16  C   UNL d   1     -50.325  26.637  33.560  0.00  0.00     0.089 A 
ATOM     17  S   UNL d   1     -51.034  27.120  33.464  0.00  0.00    -0.082 SA
ATOM     18  C   UNL d   1     -51.704  26.586  33.306  0.00  0.00     0.036 A 
ATOM     19  C   UNL d   1     -51.403  25.777  33.306  0.00  0.00     0.008 A 
ATOM     20  C   UNL d   1     -50.558  25.804  33.461  0.00  0.00     0.012 A 
ENDBRANCH  14  16
ENDBRANCH  12  13
ENDBRANCH   1  12
TORSDOF 5
ENDMDL
MODEL 2
REMARK VINA RESULT:      50.1      0.735      1.122
REMARK  5 active torsions:
REMARK  status: ('A' for Active; 'I' for Inactive)
REMARK       I    between atoms: C_2  and  N_1 
REMARK    1  A    between atoms: C_4  and  N_1 
REMARK    2  A    between atoms: C_14  and  C_2 
REMARK       I    between atoms: C_3  and  N_6 
REMARK    3  A    between atoms: C_5  and  C_3 
REMARK    4  A    between atoms: N_8  and  C_4 
REMARK    5  A    between atoms: N_6  and  N_8 
ROOT
ATOM      1  C   UNL d   1     -48.268  28.946  35.233  0.00  0.00     0.243 C 
ATOM      2  S   UNL d   1     -48.236  28.879  36.047  0.00  0.00    -0.035 SA
ENDROOT
BRANCH   1   3
ATOM      3  N   UNL d   1     -48.216  29.689  34.873  0.00  0.00    -0.177 NA
ATOM      4  C   UNL d   1     -47.795  30.295  35.241  0.00  0.00     0.281 C 
ATOM      5  O   UNL d   1     -47.426  30.157  35.971  0.00  0.00    -0.265 OA
BRANCH   4   6
ATOM      6  C   UNL d   1     -47.744  31.032  34.882  0.00  0.00     0.058 A 
ATOM      7  C   UNL d   1     -47.071  31.490  34.977  0.00  0.00     0.005 A 
ATOM      8  C   UNL d   1     -47.018  32.230  34.617  0.00  0.00     0.000 A 
ATOM      9  C   UNL d   1     -47.647  32.507  34.161  0.00  0.00     0.000 A 
ATOM     10  C   UNL d   1     -48.330  32.043  34.065  0.00  0.00     0.000 A 
ATOM     11  C   UNL d   1     -48.376  31.303  34.427  0.00  0.00     0.005 A 
ENDBRANCH   4   6
ENDBRANCH   1   3
BRANCH   1  12
ATOM     12  N   UNL d   1     -48.353  28.270  34.768  0.00  0.00    -0.114 NA
BRANCH  12  13
ATOM     13  N   UNL d   1     -49.094  28.042  34.493  0.00  0.00    -0.103 NA
ATOM     14  C   UNL d   1     -49.176  27.378  34.011  0.00  0.00     0.303 C 
ATOM     15  O   UNL d   1     -48.516  26.942  33.805  0.00  0.00    -0.263 OA
BRANCH  14  16
ATOM     16  C   UNL d   1     -49.921  27.160  33.743  0.00  0.00     0.089 A 
ATOM     17  S   UNL d   1     -50.180  26.353  33.577  0.00  0.00    -0.082 SA
ATOM     18  C   UNL d   1     -51.007  26.387  33.306  0.00  0.00     0.036 A 
ATOM     19  C   UNL d   1     -51.251  27.215  33.307  0.00  0.00     0.008 A 
ATOM     20  C   UNL d   1     -50.588  27.692  33.574  0.00  0.00     0.012 A 
ENDBRANCH  14  16
ENDBRANCH  12  13
ENDBRANCH   1  12
TORSDOF 5
ENDMDL
