MODEL 1
REMARK VINA RESULT:      15.7      0.000      0.000
REMARK  2 active torsions:
REMARK  status: ('A' for Active; 'I' for Inactive)
REMARK    1  A    between atoms: C_6  and  C_1 
REMARK    2  A    between atoms: C_8  and  C_6 
ROOT
ATOM      1  C   UNL d   1      13.680  11.933  -2.599  0.00  0.00     0.141 A 
ATOM      2  C   UNL d   1      14.207  12.116  -1.379  0.00  0.00     0.064 A 
ATOM      3  C   UNL d   1      13.512  11.940  -1.790  0.00  0.00     0.220 A 
ATOM      4  C   UNL d   1      14.807  12.219  -1.936  0.00  0.00     0.106 A 
ATOM      5  O   UNL d   1      14.487  12.107  -2.690  0.00  0.00    -0.304 OA
ATOM      6  C   UNL d   1      14.368  12.196  -0.569  0.00  0.00     0.008 A 
ATOM      7  C   UNL d   1      15.574  12.402  -1.688  0.00  0.00     0.067 A 
ATOM      8  C   UNL d   1      15.132  12.378  -0.322  0.00  0.00     0.042 A 
ATOM      9  C   UNL d   1      15.732  12.481  -0.879  0.00  0.00     0.198 A 
ATOM     10  O   UNL d   1      12.769  11.793  -1.452  0.00  0.00    -0.284 OA
ATOM     11  O   UNL d   1      16.496  12.663  -0.633  0.00  0.00    -0.286 OA
ATOM     12  C   UNL d   1      13.765  12.092  -0.014  0.00  0.00     0.000 C 
ENDROOT
BRANCH   1  13
ATOM     13  C   UNL d   1      13.148  11.782  -3.211  0.00  0.00     0.053 C 
BRANCH  13  14
ATOM     14  C   UNL d   1      13.217  12.178  -3.929  0.00  0.00     0.102 A 
ATOM     15  O   UNL d   1      13.497  11.847  -4.632  0.00  0.00    -0.305 OA
ATOM     16  C   UNL d   1      13.472  12.437  -5.209  0.00  0.00     0.123 A 
ATOM     17  C   UNL d   1      13.180  13.121  -4.865  0.00  0.00     0.029 A 
ATOM     18  C   UNL d   1      13.020  12.962  -4.067  0.00  0.00     0.027 A 
ENDBRANCH  13  14
ENDBRANCH   1  13
TORSDOF 2
ENDMDL
