MODEL 1
REMARK VINA RESULT:      -5.3      0.000      0.000
REMARK  4 active torsions:
REMARK  status: ('A' for Active; 'I' for Inactive)
REMARK    1  A    between atoms: S_4  and  C_1 
REMARK    2  A    between atoms: C_7  and  S_4 
REMARK       I    between atoms: C_5  and  N_6 
REMARK    3  A    between atoms: C_12  and  C_5 
REMARK    4  A    between atoms: N_6  and  C_7 
ROOT
ATOM      1  C   UNL d   1      57.481  -0.283  31.060  0.00  0.00     0.141 C 
ENDROOT
BRANCH   1   2
ATOM      2  N   UNL d   1      57.068   0.022  31.723  0.00  0.00    -0.199 NA
ATOM      3  C   UNL d   1      56.640  -0.482  32.215  0.00  0.00     0.280 C 
ATOM      4  O   UNL d   1      56.614  -1.305  32.055  0.00  0.00    -0.265 OA
BRANCH   3   5
ATOM      5  C   UNL d   1      56.239  -0.174  32.862  0.00  0.00     0.058 A 
ATOM      6  C   UNL d   1      56.626   0.340  33.389  0.00  0.00     0.005 A 
ATOM      7  C   UNL d   1      56.234   0.653  34.037  0.00  0.00     0.000 A 
ATOM      8  C   UNL d   1      55.437   0.458  34.178  0.00  0.00     0.000 A 
ATOM      9  C   UNL d   1      55.043  -0.060  33.648  0.00  0.00     0.000 A 
ATOM     10  C   UNL d   1      55.457  -0.375  32.986  0.00  0.00     0.005 A 
ENDBRANCH   3   5
ENDBRANCH   1   2
BRANCH   1  11
ATOM     11  S   UNL d   1      57.816   0.230  30.488  0.00  0.00    -0.027 SA
BRANCH  11  12
ATOM     12  C   UNL d   1      58.462  -0.038  30.009  0.00  0.00     0.196 A 
ATOM     13  N   UNL d   1      59.201   0.313  30.106  0.00  0.00    -0.221 NA
ATOM     14  C   UNL d   1      59.834   0.054  29.641  0.00  0.00     0.085 A 
ATOM     15  C   UNL d   1      60.494   0.353  29.713  0.00  0.00     0.021 C 
ATOM     16  C   UNL d   1      59.724  -0.561  29.075  0.00  0.00     0.038 A 
ATOM     17  C   UNL d   1      58.983  -0.898  28.993  0.00  0.00     0.085 A 
ATOM     18  N   UNL d   1      58.351  -0.653  29.443  0.00  0.00    -0.221 NA
ATOM     19  C   UNL d   1      58.886  -1.479  28.456  0.00  0.00     0.021 C 
ENDBRANCH  11  12
ENDBRANCH   1  11
TORSDOF 4
ENDMDL
MODEL 2
REMARK VINA RESULT:      -4.5      1.159      4.844
REMARK  4 active torsions:
REMARK  status: ('A' for Active; 'I' for Inactive)
REMARK    1  A    between atoms: S_4  and  C_1 
REMARK    2  A    between atoms: C_7  and  S_4 
REMARK       I    between atoms: C_5  and  N_6 
REMARK    3  A    between atoms: C_12  and  C_5 
REMARK    4  A    between atoms: N_6  and  C_7 
ROOT
ATOM      1  C   UNL d   1      57.460   0.240  31.227  0.00  0.00     0.141 C 
ENDROOT
BRANCH   1   2
ATOM      2  N   UNL d   1      58.107  -0.017  30.760  0.00  0.00    -0.199 NA
ATOM      3  C   UNL d   1      58.128   0.147  29.952  0.00  0.00     0.280 C 
ATOM      4  O   UNL d   1      57.502   0.573  29.592  0.00  0.00    -0.265 OA
BRANCH   3   5
ATOM      5  C   UNL d   1      58.766  -0.110  29.503  0.00  0.00     0.058 A 
ATOM      6  C   UNL d   1      59.420   0.390  29.379  0.00  0.00     0.005 A 
ATOM      7  C   UNL d   1      60.061   0.142  28.933  0.00  0.00     0.000 A 
ATOM      8  C   UNL d   1      60.065  -0.619  28.594  0.00  0.00     0.000 A 
ATOM      9  C   UNL d   1      59.407  -1.125  28.717  0.00  0.00     0.000 A 
ATOM     10  C   UNL d   1      58.756  -0.859  29.177  0.00  0.00     0.005 A 
ENDBRANCH   3   5
ENDBRANCH   1   2
BRANCH   1  11
ATOM     11  S   UNL d   1      57.477   0.168  32.062  0.00  0.00    -0.027 SA
BRANCH  11  12
ATOM     12  C   UNL d   1      56.787  -0.102  32.474  0.00  0.00     0.196 A 
ATOM     13  N   UNL d   1      56.633  -0.911  32.505  0.00  0.00    -0.221 NA
ATOM     14  C   UNL d   1      55.961  -1.179  32.906  0.00  0.00     0.085 A 
ATOM     15  C   UNL d   1      55.810  -1.890  32.944  0.00  0.00     0.021 C 
ATOM     16  C   UNL d   1      55.440  -0.630  33.279  0.00  0.00     0.038 A 
ATOM     17  C   UNL d   1      55.608   0.169  33.238  0.00  0.00     0.085 A 
ATOM     18  N   UNL d   1      56.266   0.447  32.846  0.00  0.00    -0.221 NA
ATOM     19  C   UNL d   1      55.112   0.682  33.591  0.00  0.00     0.021 C 
ENDBRANCH  11  12
ENDBRANCH   1  11
TORSDOF 4
ENDMDL
MODEL 3
REMARK VINA RESULT:      -4.0      1.137      4.920
REMARK  4 active torsions:
REMARK  status: ('A' for Active; 'I' for Inactive)
REMARK    1  A    between atoms: S_4  and  C_1 
REMARK    2  A    between atoms: C_7  and  S_4 
REMARK       I    between atoms: C_5  and  N_6 
REMARK    3  A    between atoms: C_12  and  C_5 
REMARK    4  A    between atoms: N_6  and  C_7 
ROOT
ATOM      1  C   UNL d   1      57.014  -0.151  31.409  0.00  0.00     0.141 C 
ENDROOT
BRANCH   1   2
ATOM      2  N   UNL d   1      57.676  -0.379  30.948  0.00  0.00    -0.199 NA
ATOM      3  C   UNL d   1      57.863   0.031  30.257  0.00  0.00     0.280 C 
ATOM      4  O   UNL d   1      57.391   0.679  30.011  0.00  0.00    -0.265 OA
BRANCH   3   5
ATOM      5  C   UNL d   1      58.514  -0.200  29.812  0.00  0.00     0.058 A 
ATOM      6  C   UNL d   1      58.497  -0.912  29.382  0.00  0.00     0.005 A 
ATOM      7  C   UNL d   1      59.142  -1.149  28.936  0.00  0.00     0.000 A 
ATOM      8  C   UNL d   1      59.827  -0.677  28.907  0.00  0.00     0.000 A 
ATOM      9  C   UNL d   1      59.847   0.041  29.340  0.00  0.00     0.000 A 
ATOM     10  C   UNL d   1      59.179   0.274  29.794  0.00  0.00     0.005 A 
ENDBRANCH   3   5
ENDBRANCH   1   2
BRANCH   1  11
ATOM     11  S   UNL d   1      56.794  -0.587  32.091  0.00  0.00    -0.027 SA
BRANCH  11  12
ATOM     12  C   UNL d   1      56.485  -0.180  32.768  0.00  0.00     0.196 A 
ATOM     13  N   UNL d   1      55.677  -0.025  32.802  0.00  0.00    -0.221 NA
ATOM     14  C   UNL d   1      55.370   0.371  33.461  0.00  0.00     0.085 A 
ATOM     15  C   UNL d   1      54.658   0.517  33.508  0.00  0.00     0.021 C 
ATOM     16  C   UNL d   1      55.880   0.613  34.088  0.00  0.00     0.038 A 
ATOM     17  C   UNL d   1      56.679   0.451  34.036  0.00  0.00     0.085 A 
ATOM     18  N   UNL d   1      56.995   0.061  33.394  0.00  0.00    -0.221 NA
ATOM     19  C   UNL d   1      57.155   0.682  34.632  0.00  0.00     0.021 C 
ENDBRANCH  11  12
ENDBRANCH   1  11
TORSDOF 4
ENDMDL
