MODEL 1
REMARK VINA RESULT:      66.1      0.000      0.000
REMARK  4 active torsions:
REMARK  status: ('A' for Active; 'I' for Inactive)
REMARK    1  A    between atoms: C_6  and  C_1 
REMARK    2  A    between atoms: C_7  and  N_3 
REMARK    3  A    between atoms: C_9  and  C_6 
REMARK    4  A    between atoms: N_8  and  C_9 
ROOT
ATOM      1  C   UNL d   1      59.690  49.071  50.886  0.00  0.00     0.058 A 
ATOM      2  C   UNL d   1      59.760  48.283  50.650  0.00  0.00     0.067 A 
ATOM      3  N   UNL d   1      60.562  48.086  50.594  0.00  0.00    -0.306 N 
ATOM      4  C   UNL d   1      60.978  48.767  50.801  0.00  0.00     0.064 A 
ATOM      5  C   UNL d   1      60.445  49.343  50.971  0.00  0.00     0.022 A 
ATOM      6  C   UNL d   1      59.129  47.769  50.493  0.00  0.00     0.019 C 
ATOM      7  C   UNL d   1      61.813  48.840  50.826  0.00  0.00     0.019 C 
ENDROOT
BRANCH   1   8
ATOM      8  C   UNL d   1      58.982  49.494  51.010  0.00  0.00     0.214 C 
ATOM      9  O   UNL d   1      58.739  49.698  51.765  0.00  0.00    -0.285 OA
BRANCH   8  10
ATOM     10  C   UNL d   1      58.522  49.708  50.359  0.00  0.00     0.123 C 
BRANCH  10  11
ATOM     11  N   UNL d   1      57.704  49.673  50.402  0.00  0.00    -0.300 N 
ATOM     12  C   UNL d   1      57.348  49.707  51.125  0.00  0.00     0.080 A 
ATOM     13  C   UNL d   1      56.515  49.672  51.182  0.00  0.00     0.019 A 
ATOM     14  C   UNL d   1      56.092  49.603  50.480  0.00  0.00     0.003 A 
ATOM     15  C   UNL d   1      56.448  49.569  49.757  0.00  0.00     0.019 A 
ATOM     16  C   UNL d   1      57.281  49.607  49.740  0.00  0.00     0.080 A 
ENDBRANCH  10  11
ENDBRANCH   8  10
ENDBRANCH   1   8
BRANCH   3  17
ATOM     17  C   UNL d   1      60.951  47.413  50.394  0.00  0.00     0.064 A 
ATOM     18  C   UNL d   1      61.507  47.431  49.778  0.00  0.00     0.020 A 
ATOM     19  C   UNL d   1      61.912  46.727  49.569  0.00  0.00     0.031 A 
ATOM     20  C   UNL d   1      61.758  46.047  49.966  0.00  0.00     0.140 A 
ATOM     21  C   UNL d   1      61.217  46.030  50.565  0.00  0.00     0.031 A 
ATOM     22  F   UNL d   1      62.151  45.365  49.763  0.00  0.00    -0.204 F 
ATOM     23  C   UNL d   1      60.796  46.719  50.796  0.00  0.00     0.020 A 
ENDBRANCH   3  17
TORSDOF 4
ENDMDL
MODEL 2
REMARK VINA RESULT:      66.5      1.686      2.372
REMARK  4 active torsions:
REMARK  status: ('A' for Active; 'I' for Inactive)
REMARK    1  A    between atoms: C_6  and  C_1 
REMARK    2  A    between atoms: C_7  and  N_3 
REMARK    3  A    between atoms: C_9  and  C_6 
REMARK    4  A    between atoms: N_8  and  C_9 
ROOT
ATOM      1  C   UNL d   1      59.614  49.010  50.337  0.00  0.00     0.058 A 
ATOM      2  C   UNL d   1      59.864  49.237  51.091  0.00  0.00     0.067 A 
ATOM      3  N   UNL d   1      60.623  48.936  51.228  0.00  0.00    -0.306 N 
ATOM      4  C   UNL d   1      60.830  48.523  50.546  0.00  0.00     0.064 A 
ATOM      5  C   UNL d   1      60.220  48.577  50.027  0.00  0.00     0.022 A 
ATOM      6  C   UNL d   1      59.425  49.693  51.627  0.00  0.00     0.019 C 
ATOM      7  C   UNL d   1      61.554  48.119  50.422  0.00  0.00     0.019 C 
ENDROOT
BRANCH   1   8
ATOM      8  C   UNL d   1      58.885  49.194  49.977  0.00  0.00     0.214 C 
ATOM      9  O   UNL d   1      58.857  49.522  49.227  0.00  0.00    -0.285 OA
BRANCH   8  10
ATOM     10  C   UNL d   1      58.184  49.041  50.385  0.00  0.00     0.123 C 
BRANCH  10  11
ATOM     11  N   UNL d   1      57.459  49.160  50.021  0.00  0.00    -0.300 N 
ATOM     12  C   UNL d   1      56.882  49.558  50.419  0.00  0.00     0.080 A 
ATOM     13  C   UNL d   1      56.139  49.686  50.059  0.00  0.00     0.019 A 
ATOM     14  C   UNL d   1      56.034  49.391  49.297  0.00  0.00     0.003 A 
ATOM     15  C   UNL d   1      56.612  48.994  48.899  0.00  0.00     0.019 A 
ATOM     16  C   UNL d   1      57.340  48.885  49.292  0.00  0.00     0.080 A 
ENDBRANCH  10  11
ENDBRANCH   8  10
ENDBRANCH   1   8
BRANCH   3  17
ATOM     17  C   UNL d   1      61.127  48.980  51.851  0.00  0.00     0.064 A 
ATOM     18  C   UNL d   1      61.186  48.339  52.374  0.00  0.00     0.020 A 
ATOM     19  C   UNL d   1      61.714  48.385  53.025  0.00  0.00     0.031 A 
ATOM     20  C   UNL d   1      62.154  49.048  53.133  0.00  0.00     0.140 A 
ATOM     21  C   UNL d   1      62.096  49.672  52.624  0.00  0.00     0.031 A 
ATOM     22  F   UNL d   1      62.665  49.092  53.763  0.00  0.00    -0.204 F 
ATOM     23  C   UNL d   1      61.577  49.653  51.964  0.00  0.00     0.020 A 
ENDBRANCH   3  17
TORSDOF 4
ENDMDL
