MODEL 1
REMARK VINA RESULT:      -2.3      0.000      0.000
REMARK  4 active torsions:
REMARK  status: ('A' for Active; 'I' for Inactive)
REMARK    1  A    between atoms: N_6  and  C_1 
REMARK       I    between atoms: C_7  and  N_8 
REMARK    2  A    between atoms: C_9  and  C_7 
REMARK    3  A    between atoms: O_20  and  C_10 
REMARK    4  A    between atoms: O_19  and  C_11 
ROOT
ATOM      1  C   UNL d   1      33.049  20.293 -22.540  0.00  0.00     0.180 A 
ATOM      2  N   UNL d   1      33.106  20.398 -21.722  0.00  0.00    -0.220 NA
ATOM      3  S   UNL d   1      33.057  21.049 -22.888  0.00  0.00    -0.046 SA
ATOM      4  C   UNL d   1      33.148  21.204 -21.567  0.00  0.00     0.114 A 
ATOM      5  C   UNL d   1      33.117  21.600 -22.289  0.00  0.00     0.074 A 
ATOM      6  C   UNL d   1      33.209  21.624 -20.873  0.00  0.00     0.112 A 
ATOM      7  C   UNL d   1      33.148  22.410 -22.309  0.00  0.00     0.102 A 
ATOM      8  C   UNL d   1      33.210  22.839 -21.607  0.00  0.00     0.027 A 
ATOM      9  C   UNL d   1      33.241  22.442 -20.885  0.00  0.00     0.028 A 
ENDROOT
BRANCH   1  10
ATOM     10  N   UNL d   1      32.995  19.571 -22.927  0.00  0.00    -0.281 N 
ATOM     11  C   UNL d   1      33.128  19.533 -23.742  0.00  0.00     0.101 A 
ATOM     12  C   UNL d   1      33.078  18.814 -24.145  0.00  0.00     0.102 A 
ATOM     13  N   UNL d   1      32.891  18.130 -23.716  0.00  0.00    -0.272 N 
ATOM     14  C   UNL d   1      32.840  17.402 -24.119  0.00  0.00     0.240 C 
ATOM     15  C   UNL d   1      32.759  18.167 -22.901  0.00  0.00     0.102 A 
ATOM     16  O   UNL d   1      32.971  17.365 -24.926  0.00  0.00    -0.272 OA
ATOM     17  C   UNL d   1      32.812  18.889 -22.514  0.00  0.00     0.101 A 
BRANCH  14  18
ATOM     18  C   UNL d   1      32.654  16.722 -23.690  0.00  0.00     0.072 C 
ATOM     19  C   UNL d   1      31.867  16.501 -23.630  0.00  0.00     0.009 C 
ATOM     20  C   UNL d   1      33.236  16.255 -23.319  0.00  0.00     0.009 C 
ATOM     21  C   UNL d   1      32.506  16.034 -23.253  0.00  0.00     0.009 C 
ENDBRANCH  14  18
ENDBRANCH   1  10
BRANCH   6  22
ATOM     22  O   UNL d   1      33.239  21.227 -20.155  0.00  0.00    -0.327 OA
ATOM     23  C   UNL d   1      33.117  21.641 -19.458  0.00  0.00     0.181 C 
ENDBRANCH   6  22
BRANCH   7  24
ATOM     24  O   UNL d   1      33.118  22.807 -23.028  0.00  0.00    -0.328 OA
ATOM     25  C   UNL d   1      32.810  23.574 -23.067  0.00  0.00     0.181 C 
ENDBRANCH   7  24
TORSDOF 4
ENDMDL
MODEL 2
REMARK VINA RESULT:      -1.0      0.899      1.951
REMARK  4 active torsions:
REMARK  status: ('A' for Active; 'I' for Inactive)
REMARK    1  A    between atoms: N_6  and  C_1 
REMARK       I    between atoms: C_7  and  N_8 
REMARK    2  A    between atoms: C_9  and  C_7 
REMARK    3  A    between atoms: O_20  and  C_10 
REMARK    4  A    between atoms: O_19  and  C_11 
ROOT
ATOM      1  C   UNL d   1      32.918  20.972 -21.865  0.00  0.00     0.180 A 
ATOM      2  N   UNL d   1      32.785  21.748 -22.117  0.00  0.00    -0.220 NA
ATOM      3  S   UNL d   1      33.047  20.997 -21.044  0.00  0.00    -0.046 SA
ATOM      4  C   UNL d   1      32.831  22.244 -21.465  0.00  0.00     0.114 A 
ATOM      5  C   UNL d   1      32.992  21.776 -20.805  0.00  0.00     0.074 A 
ATOM      6  C   UNL d   1      32.748  23.049 -21.383  0.00  0.00     0.112 A 
ATOM      7  C   UNL d   1      33.069  22.118 -20.074  0.00  0.00     0.102 A 
ATOM      8  C   UNL d   1      32.986  22.934 -19.988  0.00  0.00     0.027 A 
ATOM      9  C   UNL d   1      32.825  23.402 -20.648  0.00  0.00     0.028 A 
ENDROOT
BRANCH   1  10
ATOM     10  N   UNL d   1      32.919  20.307 -22.346  0.00  0.00    -0.281 N 
ATOM     11  C   UNL d   1      33.179  20.371 -23.129  0.00  0.00     0.101 A 
ATOM     12  C   UNL d   1      33.186  19.711 -23.626  0.00  0.00     0.102 A 
ATOM     13  N   UNL d   1      32.929  18.982 -23.324  0.00  0.00    -0.272 N 
ATOM     14  C   UNL d   1      32.935  18.315 -23.822  0.00  0.00     0.240 C 
ATOM     15  C   UNL d   1      32.669  18.919 -22.542  0.00  0.00     0.102 A 
ATOM     16  O   UNL d   1      33.192  18.377 -24.596  0.00  0.00    -0.272 OA
ATOM     17  C   UNL d   1      32.667  19.584 -22.061  0.00  0.00     0.101 A 
BRANCH  14  18
ATOM     18  C   UNL d   1      32.678  17.590 -23.520  0.00  0.00     0.072 C 
ATOM     19  C   UNL d   1      33.241  17.048 -23.276  0.00  0.00     0.009 C 
ATOM     20  C   UNL d   1      31.871  17.394 -23.456  0.00  0.00     0.009 C 
ATOM     21  C   UNL d   1      32.383  16.876 -23.223  0.00  0.00     0.009 C 
ENDBRANCH  14  18
ENDBRANCH   1  10
BRANCH   6  22
ATOM     22  O   UNL d   1      32.588  23.514 -22.041  0.00  0.00    -0.327 OA
ATOM     23  C   UNL d   1      31.810  23.673 -22.244  0.00  0.00     0.181 C 
ENDBRANCH   6  22
BRANCH   7  24
ATOM     24  O   UNL d   1      33.230  21.653 -19.416  0.00  0.00    -0.328 OA
ATOM     25  C   UNL d   1      33.125  21.959 -18.655  0.00  0.00     0.181 C 
ENDBRANCH   7  24
TORSDOF 4
ENDMDL
