MODEL 1
REMARK VINA RESULT:      99.3      0.000      0.000
REMARK  7 active torsions:
REMARK  status: ('A' for Active; 'I' for Inactive)
REMARK    1  A    between atoms: C_3  and  N_1 
REMARK    2  A    between atoms: N_7  and  C_3 
REMARK    3  A    between atoms: C_9  and  C_4 
REMARK    4  A    between atoms: C_10  and  C_5 
REMARK    5  A    between atoms: C_15  and  N_7 
REMARK    6  A    between atoms: O_22  and  C_16 
REMARK    7  A    between atoms: O_23  and  C_17 
ROOT
ATOM      1  N   UNL d   1      60.802  48.463  50.386  0.00  0.00    -0.203 N 
ATOM      2  N   UNL d   1      60.915  47.870  49.838  0.00  0.00    -0.163 NA
ATOM      3  C   UNL d   1      61.146  47.178  50.272  0.00  0.00     0.103 A 
ATOM      4  C   UNL d   1      60.947  48.184  51.130  0.00  0.00     0.087 A 
ATOM      5  C   UNL d   1      61.159  47.395  51.068  0.00  0.00     0.040 A 
ENDROOT
BRANCH   1   6
ATOM      6  C   UNL d   1      60.564  49.263  50.201  0.00  0.00     0.222 C 
ATOM      7  S   UNL d   1      61.026  49.702  49.676  0.00  0.00    -0.037 SA
BRANCH   6   8
ATOM      8  N   UNL d   1      59.883  49.568  50.553  0.00  0.00    -0.217 NA
BRANCH   8   9
ATOM      9  C   UNL d   1      59.192  49.600  50.104  0.00  0.00     0.084 A 
ATOM     10  C   UNL d   1      58.465  49.639  50.483  0.00  0.00     0.019 A 
ATOM     11  C   UNL d   1      57.761  49.672  50.019  0.00  0.00     0.002 A 
ATOM     12  C   UNL d   1      57.800  49.665  49.220  0.00  0.00     0.000 A 
ATOM     13  C   UNL d   1      58.523  49.626  48.831  0.00  0.00     0.002 A 
ATOM     14  C   UNL d   1      59.219  49.593  49.270  0.00  0.00     0.019 A 
ENDBRANCH   8   9
ENDBRANCH   6   8
ENDBRANCH   1   6
BRANCH   4  15
ATOM     15  C   UNL d   1      60.914  48.554  51.875  0.00  0.00     0.018 A 
ATOM     16  C   UNL d   1      61.221  49.314  51.964  0.00  0.00     0.004 A 
ATOM     17  C   UNL d   1      61.188  49.679  52.697  0.00  0.00     0.024 A 
ATOM     18  C   UNL d   1      60.846  49.286  53.357  0.00  0.00     0.094 A 
ATOM     19  C   UNL d   1      60.536  48.508  53.253  0.00  0.00     0.024 A 
ATOM     20  C   UNL d   1      60.579  48.162  52.509  0.00  0.00     0.004 A 
BRANCH  18  21
ATOM     21  O   UNL d   1      60.822  49.661  54.076  0.00  0.00    -0.328 OA
ATOM     22  C   UNL d   1      60.142  49.658  54.529  0.00  0.00     0.181 C 
ENDBRANCH  18  21
ENDBRANCH   4  15
BRANCH   3  23
ATOM     23  C   UNL d   1      61.317  46.444  49.933  0.00  0.00     0.019 A 
ATOM     24  C   UNL d   1      61.001  45.755  50.253  0.00  0.00     0.004 A 
ATOM     25  C   UNL d   1      61.167  45.018  49.920  0.00  0.00     0.024 A 
ATOM     26  C   UNL d   1      61.657  44.976  49.256  0.00  0.00     0.094 A 
ATOM     27  C   UNL d   1      61.981  45.683  48.929  0.00  0.00     0.024 A 
ATOM     28  C   UNL d   1      61.811  46.414  49.267  0.00  0.00     0.004 A 
BRANCH  26  29
ATOM     29  O   UNL d   1      61.823  44.216  48.921  0.00  0.00    -0.328 OA
ATOM     30  C   UNL d   1      62.206  43.407  49.312  0.00  0.00     0.181 C 
ENDBRANCH  26  29
ENDBRANCH   3  23
TORSDOF 7
ENDMDL
