MODEL 1
REMARK VINA RESULT:      54.1      0.000      0.000
REMARK  6 active torsions:
REMARK  status: ('A' for Active; 'I' for Inactive)
REMARK    1  A    between atoms: C_4  and  S_1 
REMARK    2  A    between atoms: C_5  and  S_1 
REMARK    3  A    between atoms: C_2  and  N_7 
REMARK    4  A    between atoms: N_3  and  C_2 
REMARK    5  A    between atoms: C_8  and  N_6 
REMARK    6  A    between atoms: N_7  and  C_14 
ROOT
ATOM      1  C   UNL d   1      14.824  12.805  -0.611  0.00  0.00     0.206 C 
ATOM      2  S   UNL d   1      15.274  12.182  -0.306  0.00  0.00    -0.038 SA
ENDROOT
BRANCH   1   3
ATOM      3  N   UNL d   1      14.708  13.488  -0.164  0.00  0.00    -0.218 NA
BRANCH   3   4
ATOM      4  C   UNL d   1      15.256  14.104  -0.206  0.00  0.00     0.085 A 
ATOM      5  C   UNL d   1      15.012  14.857  -0.438  0.00  0.00     0.031 A 
ATOM      6  C   UNL d   1      15.555  15.473  -0.480  0.00  0.00     0.094 A 
ATOM      7  C   UNL d   1      16.352  15.335  -0.288  0.00  0.00     0.012 A 
ATOM      8  C   UNL d   1      16.596  14.582  -0.055  0.00  0.00     0.002 A 
ATOM      9  C   UNL d   1      16.045  13.967  -0.015  0.00  0.00     0.019 A 
BRANCH   6  10
ATOM     10  S   UNL d   1      15.313  16.233  -0.714  0.00  0.00     0.262 S 
ATOM     11  O   UNL d   1      15.951  16.272  -1.234  0.00  0.00    -0.213 OA
ATOM     12  O   UNL d   1      14.675  16.181  -0.186  0.00  0.00    -0.213 OA
BRANCH  10  13
ATOM     13  C   UNL d   1      15.068  16.988  -0.943  0.00  0.00     0.364 C 
ATOM     14  F   UNL d   1      14.862  17.136  -1.730  0.00  0.00    -0.159 F 
ATOM     15  F   UNL d   1      15.030  17.599  -0.382  0.00  0.00    -0.159 F 
ENDBRANCH  10  13
ENDBRANCH   6  10
ENDBRANCH   3   4
ENDBRANCH   1   3
BRANCH   1  16
ATOM     16  N   UNL d   1      14.489  12.741  -1.366  0.00  0.00    -0.278 N 
ATOM     17  C   UNL d   1      14.246  12.003  -1.649  0.00  0.00     0.101 A 
ATOM     18  C   UNL d   1      13.915  11.945  -2.397  0.00  0.00     0.100 A 
ATOM     19  N   UNL d   1      13.822  12.610  -2.869  0.00  0.00    -0.301 N 
ATOM     20  C   UNL d   1      14.062  13.351  -2.594  0.00  0.00     0.100 A 
ATOM     21  C   UNL d   1      14.398  13.413  -1.835  0.00  0.00     0.101 A 
BRANCH  19  22
ATOM     22  C   UNL d   1      13.484  12.543  -3.630  0.00  0.00     0.065 A 
ATOM     23  C   UNL d   1      13.533  13.174  -4.160  0.00  0.00     0.029 A 
ATOM     24  C   UNL d   1      13.199  13.109  -4.912  0.00  0.00     0.059 A 
ATOM     25 CL   UNL d   1      13.247  13.740  -5.443  0.00  0.00    -0.082 Cl
ATOM     26  C   UNL d   1      12.817  12.412  -5.133  0.00  0.00     0.011 A 
ATOM     27  C   UNL d   1      12.768  11.781  -4.602  0.00  0.00     0.002 A 
ATOM     28  C   UNL d   1      13.102  11.846  -3.850  0.00  0.00     0.018 A 
ENDBRANCH  19  22
ENDBRANCH   1  16
TORSDOF 6
ENDMDL
