MODEL 1
REMARK VINA RESULT:      37.8      0.000      0.000
REMARK  3 active torsions:
REMARK  status: ('A' for Active; 'I' for Inactive)
REMARK    1  A    between atoms: C_6  and  N_1 
REMARK    2  A    between atoms: C_8  and  C_6 
REMARK    3  A    between atoms: O_15  and  C_9 
ROOT
ATOM      1  N   UNL d   1     -51.434  25.314  33.317  0.00  0.00    -0.268 N 
ATOM      2  C   UNL d   1     -51.990  25.925  33.317  0.00  0.00     0.296 A 
ATOM      3  S   UNL d   1     -52.749  25.578  33.329  0.00  0.00    -0.025 SA
ATOM      4  C   UNL d   1     -51.846  24.594  33.330  0.00  0.00     0.073 A 
ATOM      5  C   UNL d   1     -52.646  24.755  33.337  0.00  0.00     0.050 A 
ATOM      6  O   UNL d   1     -51.820  26.729  33.306  0.00  0.00    -0.259 OA
ATOM      7  C   UNL d   1     -51.581  23.813  33.336  0.00  0.00     0.018 A 
ATOM      8  C   UNL d   1     -53.201  24.138  33.351  0.00  0.00     0.008 A 
ATOM      9  C   UNL d   1     -52.127  23.193  33.349  0.00  0.00     0.002 A 
ATOM     10  C   UNL d   1     -52.941  23.357  33.357  0.00  0.00     0.001 A 
ENDROOT
BRANCH   1  11
ATOM     11  C   UNL d   1     -50.614  25.402  33.307  0.00  0.00     0.084 C 
BRANCH  11  12
ATOM     12  C   UNL d   1     -50.262  26.029  33.704  0.00  0.00     0.018 A 
ATOM     13  C   UNL d   1     -50.130  26.740  33.306  0.00  0.00     0.004 A 
ATOM     14  C   UNL d   1     -49.779  27.370  33.698  0.00  0.00     0.024 A 
ATOM     15  C   UNL d   1     -49.555  27.296  34.492  0.00  0.00     0.094 A 
ATOM     16  C   UNL d   1     -49.691  26.578  34.888  0.00  0.00     0.024 A 
ATOM     17  C   UNL d   1     -50.043  25.950  34.491  0.00  0.00     0.004 A 
BRANCH  15  18
ATOM     18  O   UNL d   1     -49.202  27.902  34.917  0.00  0.00    -0.328 OA
ATOM     19  C   UNL d   1     -48.562  28.309  34.601  0.00  0.00     0.181 C 
ENDBRANCH  15  18
ENDBRANCH  11  12
ENDBRANCH   1  11
TORSDOF 3
ENDMDL
MODEL 2
REMARK VINA RESULT:      39.4      1.150      1.448
REMARK  3 active torsions:
REMARK  status: ('A' for Active; 'I' for Inactive)
REMARK    1  A    between atoms: C_6  and  N_1 
REMARK    2  A    between atoms: C_8  and  C_6 
REMARK    3  A    between atoms: O_15  and  C_9 
ROOT
ATOM      1  N   UNL d   1     -51.397  25.136  33.311  0.00  0.00    -0.268 N 
ATOM      2  C   UNL d   1     -50.701  24.690  33.312  0.00  0.00     0.296 A 
ATOM      3  S   UNL d   1     -50.918  23.884  33.312  0.00  0.00    -0.025 SA
ATOM      4  C   UNL d   1     -52.038  24.611  33.310  0.00  0.00     0.073 A 
ATOM      5  C   UNL d   1     -51.747  23.848  33.311  0.00  0.00     0.050 A 
ATOM      6  O   UNL d   1     -49.938  24.992  33.313  0.00  0.00    -0.259 OA
ATOM      7  C   UNL d   1     -52.853  24.741  33.309  0.00  0.00     0.018 A 
ATOM      8  C   UNL d   1     -52.262  23.198  33.310  0.00  0.00     0.008 A 
ATOM      9  C   UNL d   1     -53.373  24.100  33.309  0.00  0.00     0.002 A 
ATOM     10  C   UNL d   1     -53.076  23.324  33.309  0.00  0.00     0.001 A 
ENDROOT
BRANCH   1  11
ATOM     11  C   UNL d   1     -51.447  25.960  33.311  0.00  0.00     0.084 C 
BRANCH  11  12
ATOM     12  C   UNL d   1     -51.101  26.394  33.916  0.00  0.00     0.018 A 
ATOM     13  C   UNL d   1     -50.309  26.618  33.854  0.00  0.00     0.004 A 
ATOM     14  C   UNL d   1     -49.958  27.052  34.456  0.00  0.00     0.024 A 
ATOM     15  C   UNL d   1     -50.394  27.266  35.127  0.00  0.00     0.094 A 
ATOM     16  C   UNL d   1     -51.192  27.037  35.184  0.00  0.00     0.024 A 
ATOM     17  C   UNL d   1     -51.538  26.603  34.578  0.00  0.00     0.004 A 
BRANCH  15  18
ATOM     18  O   UNL d   1     -50.079  27.698  35.749  0.00  0.00    -0.328 OA
ATOM     19  C   UNL d   1     -49.565  27.341  36.280  0.00  0.00     0.181 C 
ENDBRANCH  15  18
ENDBRANCH  11  12
ENDBRANCH   1  11
TORSDOF 3
ENDMDL
