MODEL 1
REMARK VINA RESULT:      57.3      0.000      0.000
REMARK  3 active torsions:
REMARK  status: ('A' for Active; 'I' for Inactive)
REMARK    1  A    between atoms: C_2  and  C_1 
REMARK    2  A    between atoms: N_12  and  C_6 
REMARK    3  A    between atoms: C_15  and  N_12 
ROOT
ATOM      1  C   UNL d   1     -51.123  25.602  33.362  0.00  0.00     0.082 A 
ATOM      2  C   UNL d   1     -50.611  24.950  33.348  0.00  0.00     0.302 A 
ATOM      3  C   UNL d   1     -51.952  25.491  33.359  0.00  0.00     0.009 A 
ATOM      4  O   UNL d   1     -50.925  24.180  33.333  0.00  0.00    -0.273 OA
ATOM      5  C   UNL d   1     -52.247  24.716  33.343  0.00  0.00     0.025 A 
ATOM      6  C   UNL d   1     -51.736  24.068  33.330  0.00  0.00     0.103 A 
ATOM      7  O   UNL d   1     -49.799  25.061  33.351  0.00  0.00    -0.259 OA
ATOM      8  C   UNL d   1     -53.065  24.599  33.341  0.00  0.00     0.026 A 
ATOM      9  C   UNL d   1     -52.054  23.301  33.314  0.00  0.00     0.027 A 
ATOM     10  C   UNL d   1     -53.372  23.840  33.325  0.00  0.00     0.094 A 
ATOM     11  C   UNL d   1     -52.865  23.189  33.312  0.00  0.00     0.026 A 
ATOM     12  O   UNL d   1     -54.180  23.725  33.323  0.00  0.00    -0.328 OA
ATOM     13  C   UNL d   1     -55.000  23.623  33.320  0.00  0.00     0.181 C 
ENDROOT
BRANCH   1  14
ATOM     14  C   UNL d   1     -50.816  26.361  33.377  0.00  0.00     0.095 A 
ATOM     15  N   UNL d   1     -50.025  26.557  33.428  0.00  0.00    -0.221 NA
ATOM     16  C   UNL d   1     -49.967  27.374  33.427  0.00  0.00     0.194 A 
ATOM     17  S   UNL d   1     -50.730  27.688  33.375  0.00  0.00    -0.046 SA
ATOM     18  C   UNL d   1     -51.257  27.057  33.345  0.00  0.00     0.058 A 
BRANCH  16  19
ATOM     19  N   UNL d   1     -49.279  27.811  33.469  0.00  0.00    -0.221 NA
BRANCH  19  20
ATOM     20  C   UNL d   1     -49.056  28.150  34.179  0.00  0.00     0.087 A 
ATOM     21  C   UNL d   1     -48.626  28.854  34.183  0.00  0.00     0.061 A 
ATOM     22  C   UNL d   1     -48.404  29.194  34.893  0.00  0.00     0.197 A 
ATOM     23  O   UNL d   1     -47.976  29.895  34.893  0.00  0.00    -0.286 OA
ATOM     24  C   UNL d   1     -48.610  28.830  35.608  0.00  0.00     0.042 A 
ATOM     25  C   UNL d   1     -49.036  28.133  35.604  0.00  0.00     0.005 A 
ATOM     26  C   UNL d   1     -49.263  27.786  34.890  0.00  0.00     0.019 A 
ENDBRANCH  19  20
ENDBRANCH  16  19
ENDBRANCH   1  14
TORSDOF 3
ENDMDL
