MODEL 1
REMARK VINA RESULT:      44.6      0.000      0.000
REMARK  3 active torsions:
REMARK  status: ('A' for Active; 'I' for Inactive)
REMARK    1  A    between atoms: N_7  and  C_4 
REMARK    2  A    between atoms: N_9  and  N_7 
REMARK       I    between atoms: C_8  and  N_9 
REMARK    3  A    between atoms: C_10  and  C_8 
ROOT
ATOM      1  N   UNL d   1      14.066  15.624  -2.643  0.00  0.00    -0.127 NA
ENDROOT
BRANCH   1   2
ATOM      2  C   UNL d   1      14.563  15.702  -1.984  0.00  0.00     0.178 A 
ATOM      3  N   UNL d   1      14.957  16.410  -1.844  0.00  0.00    -0.240 N 
ATOM      4  C   UNL d   1      15.448  16.488  -1.192  0.00  0.00     0.343 A 
ATOM      5  C   UNL d   1      14.857  17.046  -2.363  0.00  0.00     0.105 C 
ATOM      6  N   UNL d   1      15.548  15.852  -0.673  0.00  0.00    -0.224 N 
ATOM      7  O   UNL d   1      15.844  17.202  -1.053  0.00  0.00    -0.245 OA
ATOM      8  C   UNL d   1      15.158  15.132  -0.800  0.00  0.00     0.271 A 
ATOM      9  C   UNL d   1      16.044  15.930  -0.014  0.00  0.00     0.107 C 
ATOM     10  C   UNL d   1      14.663  15.066  -1.465  0.00  0.00     0.101 A 
ATOM     11  O   UNL d   1      15.257  14.503  -0.287  0.00  0.00    -0.266 OA
ENDBRANCH   1   2
BRANCH   1  12
ATOM     12  N   UNL d   1      13.862  14.873  -2.918  0.00  0.00    -0.104 NA
ATOM     13  C   UNL d   1      13.580  14.781  -3.688  0.00  0.00     0.297 C 
ATOM     14  O   UNL d   1      13.503  15.438  -4.182  0.00  0.00    -0.264 OA
BRANCH  13  15
ATOM     15  C   UNL d   1      13.375  14.030  -3.963  0.00  0.00     0.059 A 
ATOM     16  C   UNL d   1      13.565  13.368  -3.515  0.00  0.00     0.005 A 
ATOM     17  C   UNL d   1      13.364  12.618  -3.783  0.00  0.00     0.000 A 
ATOM     18  C   UNL d   1      13.556  11.951  -3.331  0.00  0.00     0.000 C 
ATOM     19  C   UNL d   1      12.967  12.528  -4.512  0.00  0.00     0.000 A 
ATOM     20  C   UNL d   1      12.777  13.195  -4.959  0.00  0.00     0.000 A 
ATOM     21  C   UNL d   1      12.769  11.779  -4.774  0.00  0.00     0.000 C 
ATOM     22  C   UNL d   1      12.986  13.947  -4.677  0.00  0.00     0.005 A 
ENDBRANCH  13  15
ENDBRANCH   1  12
TORSDOF 3
ENDMDL
MODEL 2
REMARK VINA RESULT:      46.2      1.601      4.859
REMARK  3 active torsions:
REMARK  status: ('A' for Active; 'I' for Inactive)
REMARK    1  A    between atoms: N_7  and  C_4 
REMARK    2  A    between atoms: N_9  and  N_7 
REMARK       I    between atoms: C_8  and  N_9 
REMARK    3  A    between atoms: C_10  and  C_8 
ROOT
ATOM      1  N   UNL d   1      13.487  13.195  -2.587  0.00  0.00    -0.127 NA
ENDROOT
BRANCH   1   2
ATOM      2  C   UNL d   1      13.398  13.202  -3.411  0.00  0.00     0.178 A 
ATOM      3  N   UNL d   1      13.283  12.498  -3.821  0.00  0.00    -0.240 N 
ATOM      4  C   UNL d   1      13.195  12.505  -4.636  0.00  0.00     0.343 A 
ATOM      5  C   UNL d   1      13.257  11.782  -3.409  0.00  0.00     0.105 C 
ATOM      6  N   UNL d   1      13.221  13.221  -5.048  0.00  0.00    -0.224 N 
ATOM      7  O   UNL d   1      13.080  11.794  -5.047  0.00  0.00    -0.245 OA
ATOM      8  C   UNL d   1      13.335  13.938  -4.649  0.00  0.00     0.271 A 
ATOM      9  C   UNL d   1      13.132  13.227  -5.871  0.00  0.00     0.107 C 
ATOM     10  C   UNL d   1      13.423  13.919  -3.823  0.00  0.00     0.101 A 
ATOM     11  O   UNL d   1      13.361  14.647  -5.057  0.00  0.00    -0.266 OA
ENDBRANCH   1   2
BRANCH   1  12
ATOM     12  N   UNL d   1      13.943  13.775  -2.217  0.00  0.00    -0.104 NA
ATOM     13  C   UNL d   1      14.296  13.616  -1.488  0.00  0.00     0.297 C 
ATOM     14  O   UNL d   1      14.193  12.879  -1.130  0.00  0.00    -0.264 OA
BRANCH  13  15
ATOM     15  C   UNL d   1      14.752  14.196  -1.118  0.00  0.00     0.059 A 
ATOM     16  C   UNL d   1      14.678  14.981  -1.351  0.00  0.00     0.005 A 
ATOM     17  C   UNL d   1      15.129  15.563  -0.987  0.00  0.00     0.000 A 
ATOM     18  C   UNL d   1      15.054  16.353  -1.222  0.00  0.00     0.000 C 
ATOM     19  C   UNL d   1      15.664  15.356  -0.380  0.00  0.00     0.000 A 
ATOM     20  C   UNL d   1      15.736  14.568  -0.148  0.00  0.00     0.000 A 
ATOM     21  C   UNL d   1      16.111  15.940  -0.020  0.00  0.00     0.000 C 
ATOM     22  C   UNL d   1      15.275  13.990  -0.524  0.00  0.00     0.005 A 
ENDBRANCH  13  15
ENDBRANCH   1  12
TORSDOF 3
ENDMDL
