MODEL 1
REMARK VINA RESULT:      -3.4      0.000      0.000
REMARK  3 active torsions:
REMARK  status: ('A' for Active; 'I' for Inactive)
REMARK    1  A    between atoms: C_11  and  C_4 
REMARK       I    between atoms: C_6  and  N_8 
REMARK    2  A    between atoms: C_9  and  C_6 
REMARK    3  A    between atoms: N_8  and  C_19 
ROOT
ATOM      1  C   UNL d   1      31.708  17.140 -23.699  0.00  0.00     0.021 A 
ATOM      2  C   UNL d   1      32.583  18.100 -23.084  0.00  0.00     0.085 A 
ATOM      3  C   UNL d   1      31.825  17.806 -23.220  0.00  0.00     0.021 A 
ATOM      4  C   UNL d   1      32.365  16.762 -24.048  0.00  0.00     0.002 A 
ATOM      5  C   UNL d   1      33.125  17.053 -23.915  0.00  0.00     0.002 A 
ATOM      6  C   UNL d   1      33.241  17.723 -23.433  0.00  0.00     0.019 A 
ENDROOT
BRANCH   2   7
ATOM      7  N   UNL d   1      32.690  18.762 -22.607  0.00  0.00    -0.208 NA
ATOM      8  C   UNL d   1      32.841  19.507 -22.941  0.00  0.00     0.279 C 
ATOM      9  O   UNL d   1      32.883  19.578 -23.771  0.00  0.00    -0.265 OA
BRANCH   8  10
ATOM     10  C   UNL d   1      32.948  20.170 -22.465  0.00  0.00     0.060 A 
ATOM     11  C   UNL d   1      32.887  20.106 -21.649  0.00  0.00     0.031 A 
ATOM     12  C   UNL d   1      32.994  20.763 -21.185  0.00  0.00     0.119 A 
ATOM     13  O   UNL d   1      32.968  20.874 -20.358  0.00  0.00    -0.300 OA
ATOM     14  C   UNL d   1      33.162  21.495 -21.527  0.00  0.00     0.119 A 
ATOM     15  C   UNL d   1      33.121  21.673 -20.204  0.00  0.00     0.304 A 
ATOM     16  O   UNL d   1      33.241  22.055 -20.926  0.00  0.00    -0.300 OA
ATOM     17  C   UNL d   1      33.224  21.563 -22.345  0.00  0.00     0.026 A 
ATOM     18  C   UNL d   1      33.116  20.896 -22.820  0.00  0.00     0.007 A 
ENDBRANCH   8  10
ENDBRANCH   2   7
BRANCH   1  19
ATOM     19  C   UNL d   1      30.949  16.845 -23.835  0.00  0.00     0.118 A 
ATOM     20  N   UNL d   1      30.406  17.131 -24.383  0.00  0.00    -0.059 NA
ATOM     21  C   UNL d   1      29.720  16.668 -24.327  0.00  0.00     0.735 A 
ATOM     22  N   UNL d   1      29.845  16.098 -23.744  0.00  0.00    -0.136 N 
ATOM     23  N   UNL d   1      29.004  16.702 -24.739  0.00  0.00    -0.059 NA
ATOM     24  C   UNL d   1      30.604  16.205 -23.437  0.00  0.00     0.118 A 
ATOM     25  C   UNL d   1      29.241  15.555 -23.571  0.00  0.00     0.100 A 
ATOM     26  C   UNL d   1      28.528  15.581 -23.974  0.00  0.00     0.041 A 
ATOM     27  C   UNL d   1      28.409  16.159 -24.562  0.00  0.00     0.119 A 
ENDBRANCH   1  19
TORSDOF 3
ENDMDL
MODEL 2
REMARK VINA RESULT:      -2.1      2.244      5.832
REMARK  3 active torsions:
REMARK  status: ('A' for Active; 'I' for Inactive)
REMARK    1  A    between atoms: C_11  and  C_4 
REMARK       I    between atoms: C_6  and  N_8 
REMARK    2  A    between atoms: C_9  and  C_6 
REMARK    3  A    between atoms: N_8  and  C_19 
ROOT
ATOM      1  C   UNL d   1      33.136  21.331 -22.500  0.00  0.00     0.021 A 
ATOM      2  C   UNL d   1      33.194  20.081 -23.207  0.00  0.00     0.085 A 
ATOM      3  C   UNL d   1      33.142  20.502 -22.500  0.00  0.00     0.021 A 
ATOM      4  C   UNL d   1      33.182  21.743 -23.223  0.00  0.00     0.002 A 
ATOM      5  C   UNL d   1      33.235  21.326 -23.933  0.00  0.00     0.002 A 
ATOM      6  C   UNL d   1      33.241  20.493 -23.931  0.00  0.00     0.019 A 
ENDROOT
BRANCH   2   7
ATOM      7  N   UNL d   1      33.200  19.258 -23.198  0.00  0.00    -0.208 NA
ATOM      8  C   UNL d   1      32.527  18.826 -23.423  0.00  0.00     0.279 C 
ATOM      9  O   UNL d   1      31.841  19.237 -23.659  0.00  0.00    -0.265 OA
BRANCH   8  10
ATOM     10  C   UNL d   1      32.532  18.003 -23.414  0.00  0.00     0.060 A 
ATOM     11  C   UNL d   1      31.859  17.584 -23.628  0.00  0.00     0.031 A 
ATOM     12  C   UNL d   1      31.870  16.772 -23.618  0.00  0.00     0.119 A 
ATOM     13  O   UNL d   1      31.288  16.203 -23.801  0.00  0.00    -0.300 OA
ATOM     14  C   UNL d   1      32.551  16.365 -23.393  0.00  0.00     0.119 A 
ATOM     15  C   UNL d   1      31.620  15.453 -23.687  0.00  0.00     0.304 A 
ATOM     16  O   UNL d   1      32.400  15.555 -23.435  0.00  0.00    -0.300 OA
ATOM     17  C   UNL d   1      33.228  16.781 -23.178  0.00  0.00     0.026 A 
ATOM     18  C   UNL d   1      33.220  17.607 -23.188  0.00  0.00     0.007 A 
ENDBRANCH   8  10
ENDBRANCH   2   7
BRANCH   1  19
ATOM     19  C   UNL d   1      33.084  21.752 -21.792  0.00  0.00     0.118 A 
ATOM     20  N   UNL d   1      33.157  21.442 -21.033  0.00  0.00    -0.059 NA
ATOM     21  C   UNL d   1      33.066  22.066 -20.494  0.00  0.00     0.735 A 
ATOM     22  N   UNL d   1      32.937  22.758 -20.925  0.00  0.00    -0.136 N 
ATOM     23  N   UNL d   1      33.087  22.079 -19.668  0.00  0.00    -0.059 NA
ATOM     24  C   UNL d   1      32.947  22.566 -21.728  0.00  0.00     0.118 A 
ATOM     25  C   UNL d   1      32.826  23.473 -20.518  0.00  0.00     0.100 A 
ATOM     26  C   UNL d   1      32.845  23.496 -19.700  0.00  0.00     0.041 A 
ATOM     27  C   UNL d   1      32.976  22.794 -19.272  0.00  0.00     0.119 A 
ENDBRANCH   1  19
TORSDOF 3
ENDMDL
MODEL 3
REMARK VINA RESULT:      -1.7      1.670      2.792
REMARK  3 active torsions:
REMARK  status: ('A' for Active; 'I' for Inactive)
REMARK    1  A    between atoms: C_11  and  C_4 
REMARK       I    between atoms: C_6  and  N_8 
REMARK    2  A    between atoms: C_9  and  C_6 
REMARK    3  A    between atoms: N_8  and  C_19 
ROOT
ATOM      1  C   UNL d   1      32.877  19.558 -23.833  0.00  0.00     0.021 A 
ATOM      2  C   UNL d   1      33.150  20.834 -23.228  0.00  0.00     0.085 A 
ATOM      3  C   UNL d   1      32.970  20.032 -23.159  0.00  0.00     0.021 A 
ATOM      4  C   UNL d   1      32.967  19.896 -24.590  0.00  0.00     0.002 A 
ATOM      5  C   UNL d   1      33.148  20.698 -24.664  0.00  0.00     0.002 A 
ATOM      6  C   UNL d   1      33.241  21.173 -23.986  0.00  0.00     0.019 A 
ENDROOT
BRANCH   2   7
ATOM      7  N   UNL d   1      33.241  21.297 -22.554  0.00  0.00    -0.208 NA
ATOM      8  C   UNL d   1      32.774  21.972 -22.437  0.00  0.00     0.279 C 
ATOM      9  O   UNL d   1      32.208  22.179 -23.014  0.00  0.00    -0.265 OA
BRANCH   8  10
ATOM     10  C   UNL d   1      32.863  22.436 -21.763  0.00  0.00     0.060 A 
ATOM     11  C   UNL d   1      32.669  22.133 -21.025  0.00  0.00     0.031 A 
ATOM     12  C   UNL d   1      32.759  22.596 -20.363  0.00  0.00     0.119 A 
ATOM     13  O   UNL d   1      32.614  22.450 -19.555  0.00  0.00    -0.300 OA
ATOM     14  C   UNL d   1      33.045  23.367 -20.428  0.00  0.00     0.119 A 
ATOM     15  C   UNL d   1      32.812  23.134 -19.133  0.00  0.00     0.304 A 
ATOM     16  O   UNL d   1      33.078  23.700 -19.673  0.00  0.00    -0.300 OA
ATOM     17  C   UNL d   1      33.241  23.675 -21.166  0.00  0.00     0.026 A 
ATOM     18  C   UNL d   1      33.150  23.206 -21.840  0.00  0.00     0.007 A 
ENDBRANCH   8  10
ENDBRANCH   2   7
BRANCH   1  19
ATOM     19  C   UNL d   1      32.696  18.756 -23.763  0.00  0.00     0.118 A 
ATOM     20  N   UNL d   1      31.997  18.391 -24.000  0.00  0.00    -0.059 NA
ATOM     21  C   UNL d   1      32.060  17.583 -23.823  0.00  0.00     0.735 A 
ATOM     22  N   UNL d   1      32.798  17.454 -23.478  0.00  0.00    -0.136 N 
ATOM     23  N   UNL d   1      31.531  16.958 -23.938  0.00  0.00    -0.059 NA
ATOM     24  C   UNL d   1      33.194  18.178 -23.440  0.00  0.00     0.118 A 
ATOM     25  C   UNL d   1      33.008  16.686 -23.245  0.00  0.00     0.100 A 
ATOM     26  C   UNL d   1      32.492  16.060 -23.354  0.00  0.00     0.041 A 
ATOM     27  C   UNL d   1      31.748  16.197 -23.703  0.00  0.00     0.119 A 
ENDBRANCH   1  19
TORSDOF 3
ENDMDL
