MODEL 1
REMARK VINA RESULT:      16.8      0.000      0.000
REMARK  4 active torsions:
REMARK  status: ('A' for Active; 'I' for Inactive)
REMARK    1  A    between atoms: N_2  and  S_1 
REMARK    2  A    between atoms: C_4  and  C_3 
REMARK       I    between atoms: N_9  and  C_4 
REMARK    3  A    between atoms: C_15  and  N_9 
REMARK    4  A    between atoms: C_10  and  C_15 
ROOT
ATOM      1  N   UNL d   1     -55.326-100.396 -44.364  0.00  0.00    -0.233 N 
ATOM      2  C   UNL d   1     -56.247 -99.330 -44.564  0.00  0.00     0.076 A 
ATOM      3  C   UNL d   1     -56.095-100.132 -44.501  0.00  0.00     0.096 A 
ATOM      4  C   UNL d   1     -54.711 -99.853 -44.291  0.00  0.00     0.091 A 
ATOM      5  C   UNL d   1     -55.632 -98.783 -44.491  0.00  0.00     0.008 A 
ATOM      6  C   UNL d   1     -54.867 -99.047 -44.354  0.00  0.00     0.020 A 
ENDROOT
BRANCH   2   7
ATOM      7  C   UNL d   1     -57.020 -99.067 -44.702  0.00  0.00     0.281 C 
ATOM      8  O   UNL d   1     -57.255 -98.856 -45.461  0.00  0.00    -0.265 OA
ATOM      9  N   UNL d   1     -57.557 -99.015 -44.077  0.00  0.00    -0.206 NA
BRANCH   9  10
ATOM     10  C   UNL d   1     -58.318 -98.755 -44.220  0.00  0.00     0.102 C 
BRANCH  10  11
ATOM     11  C   UNL d   1     -58.878 -98.792 -43.615  0.00  0.00     0.021 C 
ATOM     12  C   UNL d   1     -59.678 -98.894 -43.798  0.00  0.00     0.002 C 
ENDBRANCH  10  11
ENDBRANCH   9  10
ENDBRANCH   2   7
BRANCH   1  13
ATOM     13  S   UNL d   1     -55.172-101.203 -44.300  0.00  0.00     0.252 S 
ATOM     14  O   UNL d   1     -55.347-101.300 -45.101  0.00  0.00    -0.204 OA
ATOM     15  O   UNL d   1     -54.998-101.107 -43.503  0.00  0.00    -0.204 OA
ATOM     16  C   UNL d   1     -55.019-102.011 -44.237  0.00  0.00     0.164 C 
ENDBRANCH   1  13
TORSDOF 4
ENDMDL
MODEL 2
REMARK VINA RESULT:      17.8      7.196      7.874
REMARK  4 active torsions:
REMARK  status: ('A' for Active; 'I' for Inactive)
REMARK    1  A    between atoms: N_2  and  S_1 
REMARK    2  A    between atoms: C_4  and  C_3 
REMARK       I    between atoms: N_9  and  C_4 
REMARK    3  A    between atoms: C_15  and  N_9 
REMARK    4  A    between atoms: C_10  and  C_15 
ROOT
ATOM      1  N   UNL d   1     -54.884-102.041 -37.942  0.00  0.00    -0.233 N 
ATOM      2  C   UNL d   1     -54.881-101.488 -36.631  0.00  0.00     0.076 A 
ATOM      3  C   UNL d   1     -54.803-101.392 -37.441  0.00  0.00     0.096 A 
ATOM      4  C   UNL d   1     -55.043-102.786 -37.629  0.00  0.00     0.091 A 
ATOM      5  C   UNL d   1     -55.041-102.234 -36.314  0.00  0.00     0.008 A 
ATOM      6  C   UNL d   1     -55.121-102.879 -36.815  0.00  0.00     0.020 A 
ENDROOT
BRANCH   2   7
ATOM      7  C   UNL d   1     -54.799-100.835 -36.129  0.00  0.00     0.281 C 
ATOM      8  O   UNL d   1     -54.723-100.945 -35.317  0.00  0.00    -0.265 OA
ATOM      9  N   UNL d   1     -54.794-100.071 -36.441  0.00  0.00    -0.206 NA
BRANCH   9  10
ATOM     10  C   UNL d   1     -54.713 -99.430 -35.940  0.00  0.00     0.102 C 
BRANCH  10  11
ATOM     11  C   UNL d   1     -55.283 -98.834 -35.949  0.00  0.00     0.021 C 
ATOM     12  C   UNL d   1     -55.855 -98.801 -35.354  0.00  0.00     0.002 C 
ENDBRANCH  10  11
ENDBRANCH   9  10
ENDBRANCH   2   7
BRANCH   1  13
ATOM     13  S   UNL d   1     -54.806-101.945 -38.757  0.00  0.00     0.252 S 
ATOM     14  O   UNL d   1     -54.782-101.126 -38.657  0.00  0.00    -0.204 OA
ATOM     15  O   UNL d   1     -54.829-102.760 -38.856  0.00  0.00    -0.204 OA
ATOM     16  C   UNL d   1     -54.727-101.848 -39.572  0.00  0.00     0.164 C 
ENDBRANCH   1  13
TORSDOF 4
ENDMDL
