MODEL 1
REMARK VINA RESULT:      -7.5      0.000      0.000
REMARK  4 active torsions:
REMARK  status: ('A' for Active; 'I' for Inactive)
REMARK    1  A    between atoms: C_2  and  C_1 
REMARK    2  A    between atoms: C_11  and  N_5 
REMARK    3  A    between atoms: C_14  and  C_11 
REMARK    4  A    between atoms: C_17  and  C_14 
ROOT
ATOM      1  C   UNL d   1      51.822  33.503  53.303  0.00  0.00     0.112 A 
ATOM      2  C   UNL d   1      51.509  34.191  52.995  0.00  0.00     0.176 A 
ATOM      3  N   UNL d   1      50.725  34.032  52.764  0.00  0.00    -0.285 N 
ATOM      4  C   UNL d   1      51.245  32.918  53.268  0.00  0.00     0.219 A 
ATOM      5  C   UNL d   1      50.572  33.253  52.935  0.00  0.00     0.124 A 
ATOM      6  O   UNL d   1      51.317  32.138  53.518  0.00  0.00    -0.285 OA
ATOM      7  N   UNL d   1      51.898  34.925  52.920  0.00  0.00    -0.128 N 
ENDROOT
BRANCH   1   8
ATOM      8  C   UNL d   1      52.597  33.444  53.593  0.00  0.00     0.169 A 
ATOM      9  N   UNL d   1      53.297  33.193  53.241  0.00  0.00    -0.225 NA
ATOM     10  C   UNL d   1      53.897  33.255  53.802  0.00  0.00     0.101 A 
ATOM     11  C   UNL d   1      54.702  33.086  53.768  0.00  0.00     0.021 A 
ATOM     12  C   UNL d   1      53.564  33.545  54.500  0.00  0.00     0.101 A 
ATOM     13  C   UNL d   1      55.178  33.206  54.433  0.00  0.00     0.002 A 
ATOM     14  C   UNL d   1      54.846  33.495  55.131  0.00  0.00     0.002 A 
ATOM     15  C   UNL d   1      54.036  33.665  55.164  0.00  0.00     0.021 A 
ATOM     16  N   UNL d   1      52.761  33.659  54.365  0.00  0.00    -0.225 NA
ENDBRANCH   1   8
BRANCH   3  17
ATOM     17  C   UNL d   1      50.198  34.569  52.424  0.00  0.00     0.082 C 
BRANCH  17  18
ATOM     18  C   UNL d   1      49.402  34.370  52.335  0.00  0.00     0.019 C 
BRANCH  18  19
ATOM     19  C   UNL d   1      48.885  34.886  51.958  0.00  0.00     0.002 C 
ATOM     20  C   UNL d   1      48.740  34.814  51.148  0.00  0.00     0.000 C 
ATOM     21  C   UNL d   1      48.507  35.480  52.392  0.00  0.00     0.000 C 
ENDBRANCH  18  19
ENDBRANCH  17  18
ENDBRANCH   3  17
TORSDOF 4
ENDMDL
MODEL 2
REMARK VINA RESULT:      -7.2      0.618      4.649
REMARK  4 active torsions:
REMARK  status: ('A' for Active; 'I' for Inactive)
REMARK    1  A    between atoms: C_2  and  C_1 
REMARK    2  A    between atoms: C_11  and  N_5 
REMARK    3  A    between atoms: C_14  and  C_11 
REMARK    4  A    between atoms: C_17  and  C_14 
ROOT
ATOM      1  C   UNL d   1      51.225  33.735  53.118  0.00  0.00     0.112 A 
ATOM      2  C   UNL d   1      51.949  34.097  53.222  0.00  0.00     0.176 A 
ATOM      3  N   UNL d   1      52.488  33.518  53.481  0.00  0.00    -0.285 N 
ATOM      4  C   UNL d   1      51.304  32.939  53.309  0.00  0.00     0.219 A 
ATOM      5  C   UNL d   1      52.086  32.814  53.531  0.00  0.00     0.124 A 
ATOM      6  O   UNL d   1      50.716  32.365  53.285  0.00  0.00    -0.285 OA
ATOM      7  N   UNL d   1      52.126  34.903  53.094  0.00  0.00    -0.128 N 
ENDROOT
BRANCH   1   8
ATOM      8  C   UNL d   1      50.545  34.137  52.863  0.00  0.00     0.169 A 
ATOM      9  N   UNL d   1      50.026  34.639  53.254  0.00  0.00    -0.225 NA
ATOM     10  C   UNL d   1      49.448  34.874  52.715  0.00  0.00     0.101 A 
ATOM     11  C   UNL d   1      48.794  35.367  52.788  0.00  0.00     0.021 A 
ATOM     12  C   UNL d   1      49.615  34.514  51.990  0.00  0.00     0.101 A 
ATOM     13  C   UNL d   1      48.303  35.504  52.138  0.00  0.00     0.002 A 
ATOM     14  C   UNL d   1      48.470  35.144  51.413  0.00  0.00     0.002 A 
ATOM     15  C   UNL d   1      49.128  34.648  51.340  0.00  0.00     0.021 A 
ATOM     16  N   UNL d   1      50.295  34.060  52.087  0.00  0.00    -0.225 NA
ENDBRANCH   1   8
BRANCH   3  17
ATOM     17  C   UNL d   1      53.287  33.637  53.655  0.00  0.00     0.082 C 
BRANCH  17  18
ATOM     18  C   UNL d   1      53.704  33.076  54.093  0.00  0.00     0.019 C 
BRANCH  18  19
ATOM     19  C   UNL d   1      54.502  33.187  54.256  0.00  0.00     0.002 C 
ATOM     20  C   UNL d   1      55.071  33.048  53.674  0.00  0.00     0.000 C 
ATOM     21  C   UNL d   1      54.737  33.440  55.008  0.00  0.00     0.000 C 
ENDBRANCH  18  19
ENDBRANCH  17  18
ENDBRANCH   3  17
TORSDOF 4
ENDMDL
MODEL 3
REMARK VINA RESULT:      -7.1      1.021      1.269
REMARK  4 active torsions:
REMARK  status: ('A' for Active; 'I' for Inactive)
REMARK    1  A    between atoms: C_2  and  C_1 
REMARK    2  A    between atoms: C_11  and  N_5 
REMARK    3  A    between atoms: C_14  and  C_11 
REMARK    4  A    between atoms: C_17  and  C_14 
ROOT
ATOM      1  C   UNL d   1      51.803  33.966  52.872  0.00  0.00     0.112 A 
ATOM      2  C   UNL d   1      51.002  33.873  53.002  0.00  0.00     0.176 A 
ATOM      3  N   UNL d   1      50.598  34.242  52.374  0.00  0.00    -0.285 N 
ATOM      4  C   UNL d   1      51.904  34.388  52.174  0.00  0.00     0.219 A 
ATOM      5  C   UNL d   1      51.156  34.554  51.874  0.00  0.00     0.124 A 
ATOM      6  O   UNL d   1      52.618  34.609  51.829  0.00  0.00    -0.285 OA
ATOM      7  N   UNL d   1      50.645  33.480  53.646  0.00  0.00    -0.128 N 
ENDROOT
BRANCH   1   8
ATOM      8  C   UNL d   1      52.386  33.671  53.383  0.00  0.00     0.169 A 
ATOM      9  N   UNL d   1      52.715  32.922  53.465  0.00  0.00    -0.225 NA
ATOM     10  C   UNL d   1      53.275  32.957  54.069  0.00  0.00     0.101 A 
ATOM     11  C   UNL d   1      53.772  32.387  54.392  0.00  0.00     0.021 A 
ATOM     12  C   UNL d   1      53.289  33.731  54.358  0.00  0.00     0.101 A 
ATOM     13  C   UNL d   1      54.287  32.588  55.007  0.00  0.00     0.002 A 
ATOM     14  C   UNL d   1      54.301  33.361  55.296  0.00  0.00     0.002 A 
ATOM     15  C   UNL d   1      53.800  33.934  54.970  0.00  0.00     0.021 A 
ATOM     16  N   UNL d   1      52.737  34.167  53.931  0.00  0.00    -0.225 NA
ENDBRANCH   1   8
BRANCH   3  17
ATOM     17  C   UNL d   1      49.779  34.284  52.278  0.00  0.00     0.082 C 
BRANCH  17  18
ATOM     18  C   UNL d   1      49.446  34.874  51.809  0.00  0.00     0.019 C 
BRANCH  18  19
ATOM     19  C   UNL d   1      48.639  34.875  51.653  0.00  0.00     0.002 C 
ATOM     20  C   UNL d   1      48.112  35.222  52.186  0.00  0.00     0.000 C 
ATOM     21  C   UNL d   1      48.352  34.527  50.959  0.00  0.00     0.000 C 
ENDBRANCH  18  19
ENDBRANCH  17  18
ENDBRANCH   3  17
TORSDOF 4
ENDMDL
MODEL 4
REMARK VINA RESULT:      -6.7      2.559      4.350
REMARK  4 active torsions:
REMARK  status: ('A' for Active; 'I' for Inactive)
REMARK    1  A    between atoms: C_2  and  C_1 
REMARK    2  A    between atoms: C_11  and  N_5 
REMARK    3  A    between atoms: C_14  and  C_11 
REMARK    4  A    between atoms: C_17  and  C_14 
ROOT
ATOM      1  C   UNL d   1      53.159  32.160  53.518  0.00  0.00     0.112 A 
ATOM      2  C   UNL d   1      53.536  31.631  54.012  0.00  0.00     0.176 A 
ATOM      3  N   UNL d   1      53.400  30.865  53.717  0.00  0.00    -0.285 N 
ATOM      4  C   UNL d   1      52.790  31.735  52.918  0.00  0.00     0.219 A 
ATOM      5  C   UNL d   1      52.944  30.938  53.049  0.00  0.00     0.124 A 
ATOM      6  O   UNL d   1      52.346  32.041  52.297  0.00  0.00    -0.285 OA
ATOM      7  N   UNL d   1      53.980  31.818  54.694  0.00  0.00    -0.128 N 
ENDROOT
BRANCH   1   8
ATOM      8  C   UNL d   1      53.169  32.982  53.633  0.00  0.00     0.169 A 
ATOM      9  N   UNL d   1      53.703  33.561  53.400  0.00  0.00    -0.225 NA
ATOM     10  C   UNL d   1      53.424  34.286  53.675  0.00  0.00     0.101 A 
ATOM     11  C   UNL d   1      53.721  35.051  53.611  0.00  0.00     0.021 A 
ATOM     12  C   UNL d   1      52.716  34.150  54.078  0.00  0.00     0.101 A 
ATOM     13  C   UNL d   1      53.311  35.684  53.950  0.00  0.00     0.002 A 
ATOM     14  C   UNL d   1      52.603  35.548  54.353  0.00  0.00     0.002 A 
ATOM     15  C   UNL d   1      52.306  34.778  54.417  0.00  0.00     0.021 A 
ATOM     16  N   UNL d   1      52.563  33.342  54.049  0.00  0.00    -0.225 NA
ENDBRANCH   1   8
BRANCH   3  17
ATOM     17  C   UNL d   1      53.678  30.159  54.044  0.00  0.00     0.082 C 
BRANCH  17  18
ATOM     18  C   UNL d   1      53.174  29.511  54.119  0.00  0.00     0.019 C 
BRANCH  18  19
ATOM     19  C   UNL d   1      53.401  28.859  54.567  0.00  0.00     0.002 C 
ATOM     20  C   UNL d   1      53.147  28.782  55.349  0.00  0.00     0.000 C 
ATOM     21  C   UNL d   1      53.885  28.278  54.232  0.00  0.00     0.000 C 
ENDBRANCH  18  19
ENDBRANCH  17  18
ENDBRANCH   3  17
TORSDOF 4
ENDMDL
