MODEL 1
REMARK VINA RESULT:      -8.9      0.000      0.000
REMARK  2 active torsions:
REMARK  status: ('A' for Active; 'I' for Inactive)
REMARK    1  A    between atoms: S_2  and  N_1 
REMARK    2  A    between atoms: C_8  and  S_2 
ROOT
ATOM      1  S   UNL d   1      53.148  32.910  53.741  0.00  0.00     0.273 S 
ATOM      2  O   UNL d   1      52.383  32.847  54.029  0.00  0.00    -0.200 OA
ATOM      3  O   UNL d   1      53.918  32.983  53.454  0.00  0.00    -0.200 OA
ENDROOT
BRANCH   1   4
ATOM      4  N   UNL d   1      53.138  33.710  53.943  0.00  0.00    -0.207 N 
ATOM      5  C   UNL d   1      53.419  33.875  54.706  0.00  0.00     0.148 A 
ATOM      6  N   UNL d   1      53.482  34.617  55.077  0.00  0.00    -0.198 NA
ATOM      7  C   UNL d   1      53.288  35.349  54.791  0.00  0.00     0.066 A 
ATOM      8  C   UNL d   1      53.148  34.413  54.167  0.00  0.00     0.169 A 
ATOM      9  C   UNL d   1      52.979  35.549  54.058  0.00  0.00     0.066 A 
ATOM     10  N   UNL d   1      52.787  35.051  53.427  0.00  0.00    -0.198 NA
ATOM     11  C   UNL d   1      52.859  34.235  53.379  0.00  0.00     0.148 A 
ENDBRANCH   1   4
BRANCH   1  12
ATOM     12  C   UNL d   1      53.149  32.110  53.543  0.00  0.00     0.104 A 
ATOM     13  C   UNL d   1      52.588  31.814  53.016  0.00  0.00     0.014 A 
ATOM     14  C   UNL d   1      52.589  31.015  52.817  0.00  0.00     0.012 A 
ATOM     15  C   UNL d   1      53.152  30.510  53.145  0.00  0.00     0.058 A 
ATOM     16  C   UNL d   1      53.714  30.804  53.673  0.00  0.00     0.012 A 
ATOM     17 CL   UNL d   1      53.146  29.710  52.941  0.00  0.00    -0.082 Cl
ATOM     18  C   UNL d   1      53.713  31.604  53.871  0.00  0.00     0.014 A 
ENDBRANCH   1  12
TORSDOF 2
ENDMDL
MODEL 2
REMARK VINA RESULT:      -8.8      1.929      3.712
REMARK  2 active torsions:
REMARK  status: ('A' for Active; 'I' for Inactive)
REMARK    1  A    between atoms: S_2  and  N_1 
REMARK    2  A    between atoms: C_8  and  S_2 
ROOT
ATOM      1  S   UNL d   1      53.146  32.840  53.697  0.00  0.00     0.273 S 
ATOM      2  O   UNL d   1      52.421  32.721  54.061  0.00  0.00    -0.200 OA
ATOM      3  O   UNL d   1      53.875  32.952  53.328  0.00  0.00    -0.200 OA
ENDROOT
BRANCH   1   4
ATOM      4  N   UNL d   1      53.161  32.038  53.505  0.00  0.00    -0.207 N 
ATOM      5  C   UNL d   1      52.690  31.830  52.855  0.00  0.00     0.148 A 
ATOM      6  N   UNL d   1      52.583  31.076  52.522  0.00  0.00    -0.198 NA
ATOM      7  C   UNL d   1      52.908  30.369  52.745  0.00  0.00     0.066 A 
ATOM      8  C   UNL d   1      53.144  31.330  53.297  0.00  0.00     0.169 A 
ATOM      9  C   UNL d   1      53.428  30.213  53.360  0.00  0.00     0.066 A 
ATOM     10  N   UNL d   1      53.750  30.742  53.907  0.00  0.00    -0.198 NA
ATOM     11  C   UNL d   1      53.630  31.552  53.969  0.00  0.00     0.148 A 
ENDBRANCH   1   4
BRANCH   1  12
ATOM     12  C   UNL d   1      53.122  33.640  53.892  0.00  0.00     0.104 A 
ATOM     13  C   UNL d   1      53.406  33.896  54.623  0.00  0.00     0.014 A 
ATOM     14  C   UNL d   1      53.382  34.696  54.819  0.00  0.00     0.012 A 
ATOM     15  C   UNL d   1      53.074  35.242  54.283  0.00  0.00     0.058 A 
ATOM     16  C   UNL d   1      52.790  34.988  53.551  0.00  0.00     0.012 A 
ATOM     17 CL   UNL d   1      53.054  36.041  54.487  0.00  0.00    -0.082 Cl
ATOM     18  C   UNL d   1      52.814  34.188  53.356  0.00  0.00     0.014 A 
ENDBRANCH   1  12
TORSDOF 2
ENDMDL
MODEL 3
REMARK VINA RESULT:      -8.7      2.018      2.843
REMARK  2 active torsions:
REMARK  status: ('A' for Active; 'I' for Inactive)
REMARK    1  A    between atoms: S_2  and  N_1 
REMARK    2  A    between atoms: C_8  and  S_2 
ROOT
ATOM      1  S   UNL d   1      52.605  33.823  53.550  0.00  0.00     0.273 S 
ATOM      2  O   UNL d   1      52.326  33.107  53.837  0.00  0.00    -0.200 OA
ATOM      3  O   UNL d   1      52.892  34.543  53.266  0.00  0.00    -0.200 OA
ENDROOT
BRANCH   1   4
ATOM      4  N   UNL d   1      53.311  33.690  53.955  0.00  0.00    -0.207 N 
ATOM      5  C   UNL d   1      53.409  34.152  54.637  0.00  0.00     0.148 A 
ATOM      6  N   UNL d   1      54.052  34.153  55.165  0.00  0.00    -0.198 NA
ATOM      7  C   UNL d   1      54.730  33.711  55.144  0.00  0.00     0.066 A 
ATOM      8  C   UNL d   1      53.929  33.605  54.349  0.00  0.00     0.169 A 
ATOM      9  C   UNL d   1      54.959  33.147  54.595  0.00  0.00     0.066 A 
ATOM     10  N   UNL d   1      54.553  32.887  53.924  0.00  0.00    -0.198 NA
ATOM     11  C   UNL d   1      53.821  33.130  53.642  0.00  0.00     0.148 A 
ENDBRANCH   1   4
BRANCH   1  12
ATOM     12  C   UNL d   1      51.896  33.949  53.149  0.00  0.00     0.104 A 
ATOM     13  C   UNL d   1      51.177  33.797  53.524  0.00  0.00     0.014 A 
ATOM     14  C   UNL d   1      50.468  33.923  53.123  0.00  0.00     0.012 A 
ATOM     15  C   UNL d   1      50.477  34.200  52.347  0.00  0.00     0.058 A 
ATOM     16  C   UNL d   1      51.196  34.352  51.971  0.00  0.00     0.012 A 
ATOM     17 CL   UNL d   1      49.763  34.322  51.953  0.00  0.00    -0.082 Cl
ATOM     18  C   UNL d   1      51.904  34.226  52.372  0.00  0.00     0.014 A 
ENDBRANCH   1  12
TORSDOF 2
ENDMDL
MODEL 4
REMARK VINA RESULT:      -8.4      2.045      2.896
REMARK  2 active torsions:
REMARK  status: ('A' for Active; 'I' for Inactive)
REMARK    1  A    between atoms: S_2  and  N_1 
REMARK    2  A    between atoms: C_8  and  S_2 
ROOT
ATOM      1  S   UNL d   1      52.511  33.880  53.558  0.00  0.00     0.273 S 
ATOM      2  O   UNL d   1      52.588  34.696  53.598  0.00  0.00    -0.200 OA
ATOM      3  O   UNL d   1      52.427  33.061  53.512  0.00  0.00    -0.200 OA
ENDROOT
BRANCH   1   4
ATOM      4  N   UNL d   1      51.833  33.984  53.101  0.00  0.00    -0.207 N 
ATOM      5  C   UNL d   1      51.121  33.913  53.521  0.00  0.00     0.148 A 
ATOM      6  N   UNL d   1      50.346  33.985  53.228  0.00  0.00    -0.198 NA
ATOM      7  C   UNL d   1      50.097  34.142  52.474  0.00  0.00     0.066 A 
ATOM      8  C   UNL d   1      51.199  34.070  52.732  0.00  0.00     0.169 A 
ATOM      9  C   UNL d   1      50.548  34.269  51.801  0.00  0.00     0.066 A 
ATOM     10  N   UNL d   1      51.372  34.270  51.725  0.00  0.00    -0.198 NA
ATOM     11  C   UNL d   1      51.939  34.143  52.304  0.00  0.00     0.148 A 
ENDBRANCH   1   4
BRANCH   1  12
ATOM     12  C   UNL d   1      53.190  33.785  54.015  0.00  0.00     0.104 A 
ATOM     13  C   UNL d   1      53.361  34.322  54.618  0.00  0.00     0.014 A 
ATOM     14  C   UNL d   1      54.040  34.227  55.075  0.00  0.00     0.012 A 
ATOM     15  C   UNL d   1      54.549  33.594  54.930  0.00  0.00     0.058 A 
ATOM     16  C   UNL d   1      54.379  33.056  54.328  0.00  0.00     0.012 A 
ATOM     17 CL   UNL d   1      55.227  33.506  55.393  0.00  0.00    -0.082 Cl
ATOM     18  C   UNL d   1      53.700  33.152  53.871  0.00  0.00     0.014 A 
ENDBRANCH   1  12
TORSDOF 2
ENDMDL
