MODEL 1
REMARK VINA RESULT:      53.7      0.000      0.000
REMARK  5 active torsions:
REMARK  status: ('A' for Active; 'I' for Inactive)
REMARK    1  A    between atoms: C_4  and  C_1 
REMARK       I    between atoms: N_8  and  C_4 
REMARK    2  A    between atoms: C_17  and  N_8 
REMARK    3  A    between atoms: C_18  and  N_8 
REMARK    4  A    between atoms: C_15  and  C_11 
REMARK    5  A    between atoms: C_12  and  C_15 
ROOT
ATOM      1  C   UNL d   1      59.945  49.174  50.735  0.00  0.00     0.120 A 
ATOM      2  C   UNL d   1      59.593  49.340  51.482  0.00  0.00     0.305 A 
ATOM      3  O   UNL d   1      58.778  49.461  51.524  0.00  0.00    -0.273 OA
ATOM      4  C   UNL d   1      59.470  49.135  50.058  0.00  0.00     0.012 A 
ATOM      5  C   UNL d   1      58.310  49.419  50.842  0.00  0.00     0.103 A 
ATOM      6  C   UNL d   1      58.655  49.256  50.109  0.00  0.00     0.023 A 
ATOM      7  O   UNL d   1      60.050  49.387  52.188  0.00  0.00    -0.259 OA
ATOM      8  C   UNL d   1      57.509  49.541  50.908  0.00  0.00     0.023 A 
ATOM      9  C   UNL d   1      58.201  49.215  49.441  0.00  0.00     0.002 A 
ATOM     10  C   UNL d   1      57.386  49.337  49.493  0.00  0.00     0.000 A 
ATOM     11  C   UNL d   1      57.034  49.503  50.239  0.00  0.00     0.002 A 
ENDROOT
BRANCH   1  12
ATOM     12  C   UNL d   1      60.774  49.046  50.654  0.00  0.00     0.270 C 
ATOM     13  N   UNL d   1      61.041  48.288  50.503  0.00  0.00    -0.272 N 
ATOM     14  O   UNL d   1      61.317  49.696  50.728  0.00  0.00    -0.266 OA
BRANCH  13  15
ATOM     15  C   UNL d   1      60.508  47.666  50.432  0.00  0.00     0.083 C 
ATOM     16  C   UNL d   1      60.773  46.907  50.302  0.00  0.00     0.021 C 
ENDBRANCH  13  15
BRANCH  13  17
ATOM     17  C   UNL d   1      61.847  48.140  50.419  0.00  0.00     0.083 C 
ATOM     18  C   UNL d   1      62.148  47.404  50.615  0.00  0.00     0.021 C 
ENDBRANCH  13  17
ENDBRANCH   1  12
BRANCH   8  19
ATOM     19  C   UNL d   1      57.172  49.703  51.642  0.00  0.00     0.002 C 
BRANCH  19  20
ATOM     20  C   UNL d   1      56.369  49.644  51.746  0.00  0.00     0.000 C 
ATOM     21  C   UNL d   1      56.037  49.678  52.515  0.00  0.00     0.000 C 
ENDBRANCH  19  20
ENDBRANCH   8  19
TORSDOF 5
ENDMDL
MODEL 2
REMARK VINA RESULT:      54.4      0.903      1.777
REMARK  5 active torsions:
REMARK  status: ('A' for Active; 'I' for Inactive)
REMARK    1  A    between atoms: C_4  and  C_1 
REMARK       I    between atoms: N_8  and  C_4 
REMARK    2  A    between atoms: C_17  and  N_8 
REMARK    3  A    between atoms: C_18  and  N_8 
REMARK    4  A    between atoms: C_15  and  C_11 
REMARK    5  A    between atoms: C_12  and  C_15 
ROOT
ATOM      1  C   UNL d   1      59.560  49.359  51.045  0.00  0.00     0.120 A 
ATOM      2  C   UNL d   1      59.473  49.380  50.208  0.00  0.00     0.305 A 
ATOM      3  O   UNL d   1      58.720  49.470  49.884  0.00  0.00    -0.273 OA
ATOM      4  C   UNL d   1      58.891  49.428  51.529  0.00  0.00     0.012 A 
ATOM      5  C   UNL d   1      58.055  49.539  50.375  0.00  0.00     0.103 A 
ATOM      6  C   UNL d   1      58.141  49.518  51.197  0.00  0.00     0.023 A 
ATOM      7  O   UNL d   1      60.134  49.312  49.690  0.00  0.00    -0.259 OA
ATOM      8  C   UNL d   1      57.323  49.627  50.034  0.00  0.00     0.023 A 
ATOM      9  C   UNL d   1      57.495  49.585  51.679  0.00  0.00     0.002 A 
ATOM     10  C   UNL d   1      56.745  49.675  51.347  0.00  0.00     0.000 A 
ATOM     11  C   UNL d   1      56.658  49.696  50.510  0.00  0.00     0.002 A 
ENDROOT
BRANCH   1  12
ATOM     12  C   UNL d   1      60.314  49.268  51.410  0.00  0.00     0.270 C 
ATOM     13  N   UNL d   1      60.854  48.753  51.076  0.00  0.00    -0.272 N 
ATOM     14  O   UNL d   1      60.505  49.707  52.113  0.00  0.00    -0.266 OA
BRANCH  13  15
ATOM     15  C   UNL d   1      60.660  48.333  50.396  0.00  0.00     0.083 C 
ATOM     16  C   UNL d   1      61.236  48.135  49.855  0.00  0.00     0.021 C 
ENDBRANCH  13  15
BRANCH  13  17
ATOM     17  C   UNL d   1      61.596  48.649  51.417  0.00  0.00     0.083 C 
ATOM     18  C   UNL d   1      61.944  49.265  51.830  0.00  0.00     0.021 C 
ENDBRANCH  13  17
ENDBRANCH   1  12
BRANCH   8  19
ATOM     19  C   UNL d   1      57.246  49.647  49.214  0.00  0.00     0.002 C 
BRANCH  19  20
ATOM     20  C   UNL d   1      56.764  49.115  48.834  0.00  0.00     0.000 C 
ATOM     21  C   UNL d   1      56.552  48.394  49.206  0.00  0.00     0.000 C 
ENDBRANCH  19  20
ENDBRANCH   8  19
TORSDOF 5
ENDMDL
