MODEL 1
REMARK VINA RESULT:      96.9      0.000      0.000
REMARK  7 active torsions:
REMARK  status: ('A' for Active; 'I' for Inactive)
REMARK    1  A    between atoms: C_5  and  C_1 
REMARK    2  A    between atoms: N_6  and  C_2 
REMARK       I    between atoms: N_10  and  C_5 
REMARK    3  A    between atoms: C_20  and  N_6 
REMARK    4  A    between atoms: C_9  and  C_12 
REMARK    5  A    between atoms: C_22  and  N_10 
REMARK    6  A    between atoms: C_11  and  C_22 
REMARK    7  A    between atoms: O_30  and  C_25 
ROOT
ATOM      1  C   UNL d   1      58.770  49.619  52.488  0.00  0.00     0.099 A 
ATOM      2  C   UNL d   1      59.424  49.658  51.988  0.00  0.00     0.187 A 
ATOM      3  C   UNL d   1      58.003  49.610  52.154  0.00  0.00     0.010 A 
ATOM      4  O   UNL d   1      59.329  49.687  51.172  0.00  0.00    -0.289 OA
ATOM      5  C   UNL d   1      57.903  49.640  51.333  0.00  0.00     0.025 A 
ATOM      6  C   UNL d   1      58.555  49.678  50.844  0.00  0.00     0.102 A 
ATOM      7  C   UNL d   1      57.147  49.631  51.002  0.00  0.00     0.026 A 
ATOM      8  C   UNL d   1      58.465  49.708  50.015  0.00  0.00     0.027 A 
ATOM      9  C   UNL d   1      57.049  49.660  50.189  0.00  0.00     0.094 A 
ATOM     10  C   UNL d   1      57.703  49.699  49.689  0.00  0.00     0.026 A 
ENDROOT
BRANCH   2  11
ATOM     11  N   UNL d   1      60.191  49.666  52.326  0.00  0.00    -0.222 NA
BRANCH  11  12
ATOM     12  C   UNL d   1      60.780  49.190  52.002  0.00  0.00     0.084 A 
ATOM     13  C   UNL d   1      61.149  49.420  51.302  0.00  0.00     0.019 A 
ATOM     14  C   UNL d   1      61.732  48.946  50.984  0.00  0.00     0.008 A 
ATOM     15  C   UNL d   1      61.959  48.237  51.355  0.00  0.00     0.065 A 
ATOM     16  C   UNL d   1      61.586  48.010  52.057  0.00  0.00     0.008 A 
ATOM     17  C   UNL d   1      60.998  48.491  52.375  0.00  0.00     0.019 A 
BRANCH  15  18
ATOM     18  C   UNL d   1      62.548  47.761  51.030  0.00  0.00     0.211 C 
ATOM     19  O   UNL d   1      62.748  47.040  51.390  0.00  0.00    -0.644 OA
ATOM     20  O   UNL d   1      62.951  47.991  50.343  0.00  0.00    -0.644 OA
ENDBRANCH  15  18
ENDBRANCH  11  12
ENDBRANCH   2  11
BRANCH   1  21
ATOM     21  C   UNL d   1      58.862  49.589  53.305  0.00  0.00     0.283 C 
ATOM     22  N   UNL d   1      58.198  49.705  53.807  0.00  0.00    -0.204 NA
ATOM     23  O   UNL d   1      59.609  49.446  53.654  0.00  0.00    -0.265 OA
BRANCH  22  24
ATOM     24  C   UNL d   1      58.287  49.675  54.632  0.00  0.00     0.127 C 
BRANCH  24  25
ATOM     25  C   UNL d   1      57.672  49.410  55.109  0.00  0.00     0.119 A 
ATOM     26  O   UNL d   1      56.864  49.582  55.137  0.00  0.00    -0.304 OA
ATOM     27  C   UNL d   1      56.519  49.145  55.735  0.00  0.00     0.123 A 
ATOM     28  C   UNL d   1      57.096  48.698  56.089  0.00  0.00     0.029 A 
ATOM     29  C   UNL d   1      57.811  48.857  55.707  0.00  0.00     0.028 A 
ENDBRANCH  24  25
ENDBRANCH  22  24
ENDBRANCH   1  21
BRANCH   9  30
ATOM     30  O   UNL d   1      56.283  49.651  49.865  0.00  0.00    -0.328 OA
ATOM     31  C   UNL d   1      56.038  49.010  49.387  0.00  0.00     0.181 C 
ENDBRANCH   9  30
TORSDOF 7
ENDMDL
