MODEL 1
REMARK VINA RESULT:      -3.9      0.000      0.000
REMARK  7 active torsions:
REMARK  status: ('A' for Active; 'I' for Inactive)
REMARK    1  A    between atoms: C_6  and  C_1 
REMARK    2  A    between atoms: O_18  and  C_6 
REMARK    3  A    between atoms: C_7  and  C_11 
REMARK    4  A    between atoms: O_19  and  C_7 
REMARK    5  A    between atoms: O_10  and  C_12 
REMARK    6  A    between atoms: C_11  and  O_10 
REMARK    7  A    between atoms: C_21  and  O_18 
ROOT
ATOM      1  C   UNL d   1      58.959  -0.958  29.350  0.00  0.00     0.081 A 
ATOM      2  C   UNL d   1      59.656  -0.542  29.189  0.00  0.00     0.069 A 
ATOM      3  N   UNL d   1      59.677   0.111  29.685  0.00  0.00    -0.304 N 
ATOM      4  C   UNL d   1      58.557  -0.562  29.941  0.00  0.00     0.025 A 
ATOM      5  C   UNL d   1      59.001   0.099  30.148  0.00  0.00     0.064 A 
ATOM      6  C   UNL d   1      58.732   0.608  30.735  0.00  0.00     0.020 A 
ATOM      7  C   UNL d   1      57.844  -0.714  30.320  0.00  0.00     0.026 A 
ATOM      8  C   UNL d   1      57.574  -0.197  30.913  0.00  0.00     0.100 A 
ATOM      9  C   UNL d   1      58.014   0.458  31.119  0.00  0.00     0.026 A 
ATOM     10  C   UNL d   1      60.226  -0.746  28.632  0.00  0.00     0.019 C 
ATOM     11  C   UNL d   1      60.281   0.681  29.710  0.00  0.00     0.099 C 
ENDROOT
BRANCH   8  12
ATOM     12  O   UNL d   1      56.854  -0.354  31.293  0.00  0.00    -0.302 OA
BRANCH  12  13
ATOM     13  C   UNL d   1      56.815  -0.302  32.115  0.00  0.00     0.163 C 
ATOM     14  C   UNL d   1      57.387   0.125  32.534  0.00  0.00     0.032 C 
BRANCH  13  15
ATOM     15  C   UNL d   1      56.203  -0.678  32.523  0.00  0.00     0.319 C 
ATOM     16  O   UNL d   1      56.266  -1.477  32.730  0.00  0.00    -0.257 OA
BRANCH  15  17
ATOM     17  O   UNL d   1      55.523  -0.264  32.728  0.00  0.00    -0.294 OA
ATOM     18  C   UNL d   1      55.214  -0.330  33.490  0.00  0.00     0.185 C 
ENDBRANCH  15  17
ENDBRANCH  13  15
ENDBRANCH  12  13
ENDBRANCH   8  12
BRANCH   1  19
ATOM     19  C   UNL d   1      58.712  -1.653  28.978  0.00  0.00     0.302 C 
ATOM     20  O   UNL d   1      58.072  -1.631  28.455  0.00  0.00    -0.259 OA
BRANCH  19  21
ATOM     21  O   UNL d   1      59.099  -2.362  29.125  0.00  0.00    -0.271 OA
BRANCH  21  22
ATOM     22  C   UNL d   1      58.900  -3.036  28.693  0.00  0.00     0.126 C 
ATOM     23  C   UNL d   1      59.252  -3.759  28.876  0.00  0.00     0.029 C 
ENDBRANCH  21  22
ENDBRANCH  19  21
ENDBRANCH   1  19
TORSDOF 7
ENDMDL
