MODEL 1
REMARK VINA RESULT:      42.0      0.000      0.000
REMARK  5 active torsions:
REMARK  status: ('A' for Active; 'I' for Inactive)
REMARK    1  A    between atoms: S_6  and  C_2 
REMARK    2  A    between atoms: C_11  and  S_6 
REMARK    3  A    between atoms: C_7  and  C_11 
REMARK       I    between atoms: N_8  and  C_7 
REMARK    4  A    between atoms: C_13  and  N_8 
REMARK    5  A    between atoms: C_14  and  C_13 
ROOT
ATOM      1  S   UNL d   1      59.372  49.679  50.726  0.00  0.00    -0.080 SA
ENDROOT
BRANCH   1   2
ATOM      2  C   UNL d   1      58.613  49.688  50.404  0.00  0.00     0.049 A 
ATOM      3  C   UNL d   1      58.423  49.692  49.605  0.00  0.00     0.087 A 
ATOM      4  N   UNL d   1      57.590  49.701  49.536  0.00  0.00    -0.302 N 
ATOM      5  C   UNL d   1      57.275  49.701  50.306  0.00  0.00     0.065 A 
ATOM      6  C   UNL d   1      57.161  49.707  48.832  0.00  0.00     0.100 C 
ATOM      7  C   UNL d   1      57.904  49.693  50.841  0.00  0.00     0.024 A 
ATOM      8  C   UNL d   1      56.495  49.708  50.572  0.00  0.00     0.018 A 
ATOM      9  C   UNL d   1      57.747  49.692  51.651  0.00  0.00     0.002 A 
ATOM     10  C   UNL d   1      56.974  49.698  51.922  0.00  0.00     0.000 A 
ATOM     11  C   UNL d   1      56.345  49.707  51.387  0.00  0.00     0.002 A 
ENDBRANCH   1   2
BRANCH   1  12
ATOM     12  C   UNL d   1      60.024  49.544  50.232  0.00  0.00     0.098 C 
BRANCH  12  13
ATOM     13  C   UNL d   1      60.664  49.099  50.508  0.00  0.00     0.286 C 
ATOM     14  N   UNL d   1      60.722  48.302  50.307  0.00  0.00    -0.204 NA
ATOM     15  O   UNL d   1      61.238  49.451  50.981  0.00  0.00    -0.265 OA
BRANCH  14  16
ATOM     16  C   UNL d   1      61.362  47.857  50.583  0.00  0.00     0.127 C 
BRANCH  16  17
ATOM     17  C   UNL d   1      61.548  47.153  50.224  0.00  0.00     0.119 A 
ATOM     18  O   UNL d   1      62.233  46.986  49.796  0.00  0.00    -0.304 OA
ATOM     19  C   UNL d   1      62.188  46.197  49.530  0.00  0.00     0.123 A 
ATOM     20  C   UNL d   1      61.475  45.881  49.796  0.00  0.00     0.029 A 
ATOM     21  C   UNL d   1      61.084  46.466  50.221  0.00  0.00     0.028 A 
ENDBRANCH  16  17
ENDBRANCH  14  16
ENDBRANCH  12  13
ENDBRANCH   1  12
TORSDOF 5
ENDMDL
