MODEL 1
REMARK VINA RESULT:      37.0      0.000      0.000
REMARK  4 active torsions:
REMARK  status: ('A' for Active; 'I' for Inactive)
REMARK    1  A    between atoms: S_2  and  N_1 
REMARK    2  A    between atoms: C_10  and  S_2 
REMARK    3  A    between atoms: C_7  and  C_4 
REMARK    4  A    between atoms: C_12  and  C_5 
ROOT
ATOM      1  N   UNL d   1      45.852 -17.188  44.054  0.00  0.00    -0.152 N 
ATOM      2  N   UNL d   1      45.738 -16.508  44.484  0.00  0.00    -0.155 NA
ATOM      3  C   UNL d   1      45.652 -15.882  43.954  0.00  0.00     0.110 A 
ATOM      4  C   UNL d   1      45.839 -16.998  43.249  0.00  0.00     0.096 A 
ATOM      5  C   UNL d   1      45.712 -16.165  43.186  0.00  0.00     0.041 A 
ENDROOT
BRANCH   1   6
ATOM      6  S   UNL d   1      45.959 -17.924  44.355  0.00  0.00     0.286 S 
ATOM      7  O   UNL d   1      46.449 -17.330  44.672  0.00  0.00    -0.198 OA
ATOM      8  O   UNL d   1      46.500 -18.162  44.944  0.00  0.00    -0.198 OA
BRANCH   6   9
ATOM      9  C   UNL d   1      45.943 -18.725  44.554  0.00  0.00     0.105 A 
ATOM     10  C   UNL d   1      46.647 -19.119  44.732  0.00  0.00     0.013 A 
ATOM     11  C   UNL d   1      46.633 -19.924  44.932  0.00  0.00     0.001 A 
ATOM     12  C   UNL d   1      45.915 -20.330  44.954  0.00  0.00     0.000 A 
ATOM     13  C   UNL d   1      45.211 -19.931  44.776  0.00  0.00     0.001 A 
ATOM     14  C   UNL d   1      45.225 -19.131  44.576  0.00  0.00     0.013 A 
ENDBRANCH   6   9
ENDBRANCH   1   6
BRANCH   4  15
ATOM     15  C   UNL d   1      45.933 -17.520  42.618  0.00  0.00     0.019 A 
ATOM     16  C   UNL d   1      45.397 -18.148  42.519  0.00  0.00     0.002 A 
ATOM     17  C   UNL d   1      45.487 -18.653  41.910  0.00  0.00     0.007 A 
ATOM     18  C   UNL d   1      46.120 -18.566  41.355  0.00  0.00     0.035 A 
ATOM     19  C   UNL d   1      46.646 -17.923  41.478  0.00  0.00     0.007 A 
ATOM     20 BR   UNL d   1      46.214 -19.088  40.723  0.00  0.00    -0.049 Br
ATOM     21  C   UNL d   1      46.556 -17.418  42.087  0.00  0.00     0.002 A 
ENDBRANCH   4  15
BRANCH   3  22
ATOM     22  C   UNL d   1      45.526 -15.091  44.139  0.00  0.00     0.049 A 
ATOM     23  S   UNL d   1      45.602 -14.450  43.610  0.00  0.00    -0.085 SA
ATOM     24  C   UNL d   1      45.421 -13.812  44.065  0.00  0.00     0.035 A 
ATOM     25  C   UNL d   1      45.246 -13.956  44.786  0.00  0.00     0.007 A 
ATOM     26  C   UNL d   1      45.305 -14.758  44.862  0.00  0.00     0.009 A 
ENDBRANCH   3  22
TORSDOF 4
ENDMDL
MODEL 2
REMARK VINA RESULT:      38.3      1.346      2.642
REMARK  4 active torsions:
REMARK  status: ('A' for Active; 'I' for Inactive)
REMARK    1  A    between atoms: S_2  and  N_1 
REMARK    2  A    between atoms: C_10  and  S_2 
REMARK    3  A    between atoms: C_7  and  C_4 
REMARK    4  A    between atoms: C_12  and  C_5 
ROOT
ATOM      1  N   UNL d   1      45.923 -16.849  43.312  0.00  0.00    -0.152 N 
ATOM      2  N   UNL d   1      45.850 -16.041  43.346  0.00  0.00    -0.155 NA
ATOM      3  C   UNL d   1      45.747 -15.828  44.136  0.00  0.00     0.110 A 
ATOM      4  C   UNL d   1      45.868 -17.154  44.078  0.00  0.00     0.096 A 
ATOM      5  C   UNL d   1      45.755 -16.502  44.603  0.00  0.00     0.041 A 
ENDROOT
BRANCH   1   6
ATOM      6  S   UNL d   1      46.032 -17.284  42.645  0.00  0.00     0.286 S 
ATOM      7  O   UNL d   1      46.534 -16.626  42.732  0.00  0.00    -0.198 OA
ATOM      8  O   UNL d   1      46.586 -17.155  42.035  0.00  0.00    -0.198 OA
BRANCH   6   9
ATOM      9  C   UNL d   1      46.015 -17.828  42.025  0.00  0.00     0.105 A 
ATOM     10  C   UNL d   1      45.365 -17.852  41.516  0.00  0.00     0.013 A 
ATOM     11  C   UNL d   1      45.345 -18.397  40.892  0.00  0.00     0.001 A 
ATOM     12  C   UNL d   1      45.976 -18.916  40.780  0.00  0.00     0.000 A 
ATOM     13  C   UNL d   1      46.627 -18.890  41.292  0.00  0.00     0.001 A 
ATOM     14  C   UNL d   1      46.646 -18.347  41.913  0.00  0.00     0.013 A 
ENDBRANCH   6   9
ENDBRANCH   1   6
BRANCH   4  15
ATOM     15  C   UNL d   1      45.913 -17.948  44.297  0.00  0.00     0.019 A 
ATOM     16  C   UNL d   1      46.603 -18.237  44.659  0.00  0.00     0.002 A 
ATOM     17  C   UNL d   1      46.647 -19.003  44.870  0.00  0.00     0.007 A 
ATOM     18  C   UNL d   1      46.003 -19.536  44.736  0.00  0.00     0.035 A 
ATOM     19  C   UNL d   1      45.318 -19.217  44.369  0.00  0.00     0.007 A 
ATOM     20 BR   UNL d   1      46.048 -20.330  44.955  0.00  0.00    -0.049 Br
ATOM     21  C   UNL d   1      45.275 -18.451  44.158  0.00  0.00     0.002 A 
ENDBRANCH   4  15
BRANCH   3  22
ATOM     22  C   UNL d   1      45.649 -15.068  44.435  0.00  0.00     0.049 A 
ATOM     23  S   UNL d   1      44.919 -14.711  44.626  0.00  0.00    -0.085 SA
ATOM     24  C   UNL d   1      45.133 -13.982  44.889  0.00  0.00     0.035 A 
ATOM     25  C   UNL d   1      45.874 -13.832  44.891  0.00  0.00     0.007 A 
ATOM     26  C   UNL d   1      46.225 -14.503  44.608  0.00  0.00     0.009 A 
ENDBRANCH   3  22
TORSDOF 4
ENDMDL
