MODEL 1
REMARK VINA RESULT:      -7.0      0.000      0.000
REMARK  4 active torsions:
REMARK  status: ('A' for Active; 'I' for Inactive)
REMARK    1  A    between atoms: C_6  and  C_1 
REMARK    2  A    between atoms: C_7  and  C_5 
REMARK    3  A    between atoms: O_15  and  C_12 
REMARK    4  A    between atoms: C_16  and  O_15 
ROOT
ATOM      1  C   UNL d   1     -47.726  13.131  22.988  0.00  0.00     0.020 A 
ATOM      2  C   UNL d   1     -46.955  13.351  22.748  0.00  0.00     0.004 A 
ATOM      3  C   UNL d   1     -47.834  12.462  23.459  0.00  0.00     0.004 A 
ATOM      4  C   UNL d   1     -46.423  12.217  23.464  0.00  0.00     0.100 A 
ATOM      5  C   UNL d   1     -46.309  12.897  22.984  0.00  0.00     0.025 A 
ATOM      6  C   UNL d   1     -47.187  12.009  23.695  0.00  0.00     0.025 A 
ENDROOT
BRANCH   1   7
ATOM      7  C   UNL d   1     -48.377  13.585  22.752  0.00  0.00     0.105 A 
ATOM      8  C   UNL d   1     -48.964  14.727  23.204  0.00  0.00     0.048 A 
ATOM      9  C   UNL d   1     -49.502  14.674  22.621  0.00  0.00     0.169 A 
ATOM     10  N   UNL d   1     -49.479  14.080  22.106  0.00  0.00    -0.142 NA
ATOM     11  N   UNL d   1     -48.911  13.537  22.178  0.00  0.00    -0.148 NA
BRANCH   9  12
ATOM     12  C   UNL d   1     -50.067  15.229  22.563  0.00  0.00     0.231 C 
ATOM     13  O   UNL d   1     -50.671  15.121  22.066  0.00  0.00    -0.643 OA
ATOM     14  O   UNL d   1     -50.018  15.912  23.021  0.00  0.00    -0.643 OA
ENDBRANCH   9  12
ENDBRANCH   1   7
BRANCH   4  15
ATOM     15  O   UNL d   1     -45.764  11.764  23.698  0.00  0.00    -0.305 OA
BRANCH  15  16
ATOM     16  C   UNL d   1     -45.705  10.977  23.451  0.00  0.00     0.123 C 
ATOM     17  C   UNL d   1     -45.055  10.516  23.686  0.00  0.00     0.029 C 
ENDBRANCH  15  16
ENDBRANCH   4  15
TORSDOF 4
ENDMDL
MODEL 2
REMARK VINA RESULT:      -6.8      1.641      4.596
REMARK  4 active torsions:
REMARK  status: ('A' for Active; 'I' for Inactive)
REMARK    1  A    between atoms: C_6  and  C_1 
REMARK    2  A    between atoms: C_7  and  C_5 
REMARK    3  A    between atoms: O_15  and  C_12 
REMARK    4  A    between atoms: C_16  and  O_15 
ROOT
ATOM      1  C   UNL d   1     -47.599  14.043  22.929  0.00  0.00     0.020 A 
ATOM      2  C   UNL d   1     -48.292  13.656  23.192  0.00  0.00     0.004 A 
ATOM      3  C   UNL d   1     -47.642  14.822  22.657  0.00  0.00     0.004 A 
ATOM      4  C   UNL d   1     -49.053  14.847  22.902  0.00  0.00     0.100 A 
ATOM      5  C   UNL d   1     -49.014  14.055  23.179  0.00  0.00     0.025 A 
ATOM      6  C   UNL d   1     -48.364  15.221  22.644  0.00  0.00     0.025 A 
ENDROOT
BRANCH   1   7
ATOM      7  C   UNL d   1     -46.874  13.646  22.941  0.00  0.00     0.105 A 
ATOM      8  C   UNL d   1     -45.933  13.339  22.007  0.00  0.00     0.048 A 
ATOM      9  C   UNL d   1     -45.500  12.979  22.569  0.00  0.00     0.169 A 
ATOM     10  N   UNL d   1     -45.752  12.952  23.314  0.00  0.00    -0.142 NA
ATOM     11  N   UNL d   1     -46.443  13.289  23.493  0.00  0.00    -0.148 NA
BRANCH   9  12
ATOM     12  C   UNL d   1     -44.808  12.646  22.372  0.00  0.00     0.231 C 
ATOM     13  O   UNL d   1     -44.351  12.986  21.824  0.00  0.00    -0.643 OA
ATOM     14  O   UNL d   1     -44.571  11.947  22.740  0.00  0.00    -0.643 OA
ENDBRANCH   9  12
ENDBRANCH   1   7
BRANCH   4  15
ATOM     15  O   UNL d   1     -49.786  15.243  22.892  0.00  0.00    -0.305 OA
BRANCH  15  16
ATOM     16  C   UNL d   1     -50.081  15.566  23.593  0.00  0.00     0.123 C 
ATOM     17  C   UNL d   1     -50.837  15.911  23.605  0.00  0.00     0.029 C 
ENDBRANCH  15  16
ENDBRANCH   4  15
TORSDOF 4
ENDMDL
MODEL 3
REMARK VINA RESULT:      -6.8      1.265      1.379
REMARK  4 active torsions:
REMARK  status: ('A' for Active; 'I' for Inactive)
REMARK    1  A    between atoms: C_6  and  C_1 
REMARK    2  A    between atoms: C_7  and  C_5 
REMARK    3  A    between atoms: O_15  and  C_12 
REMARK    4  A    between atoms: C_16  and  O_15 
ROOT
ATOM      1  C   UNL d   1     -47.753  13.838  22.864  0.00  0.00     0.020 A 
ATOM      2  C   UNL d   1     -47.117  14.375  22.942  0.00  0.00     0.004 A 
ATOM      3  C   UNL d   1     -47.600  13.042  22.710  0.00  0.00     0.004 A 
ATOM      4  C   UNL d   1     -46.190  13.294  22.708  0.00  0.00     0.100 A 
ATOM      5  C   UNL d   1     -46.341  14.106  22.865  0.00  0.00     0.025 A 
ATOM      6  C   UNL d   1     -46.825  12.772  22.633  0.00  0.00     0.025 A 
ENDROOT
BRANCH   1   7
ATOM      7  C   UNL d   1     -48.532  14.106  22.941  0.00  0.00     0.105 A 
ATOM      8  C   UNL d   1     -49.228  15.178  22.473  0.00  0.00     0.048 A 
ATOM      9  C   UNL d   1     -49.876  14.915  22.850  0.00  0.00     0.169 A 
ATOM     10  N   UNL d   1     -49.854  14.250  23.272  0.00  0.00    -0.142 NA
ATOM     11  N   UNL d   1     -49.175  13.850  23.312  0.00  0.00    -0.148 NA
BRANCH   9  12
ATOM     12  C   UNL d   1     -50.551  15.330  22.799  0.00  0.00     0.231 C 
ATOM     13  O   UNL d   1     -51.064  15.171  22.220  0.00  0.00    -0.643 OA
ATOM     14  O   UNL d   1     -50.709  15.922  23.350  0.00  0.00    -0.643 OA
ENDBRANCH   9  12
ENDBRANCH   1   7
BRANCH   4  15
ATOM     15  O   UNL d   1     -45.404  13.030  22.632  0.00  0.00    -0.305 OA
BRANCH  15  16
ATOM     16  C   UNL d   1     -45.063  12.985  21.880  0.00  0.00     0.123 C 
ATOM     17  C   UNL d   1     -44.256  12.804  21.801  0.00  0.00     0.029 C 
ENDBRANCH  15  16
ENDBRANCH   4  15
TORSDOF 4
ENDMDL
MODEL 4
REMARK VINA RESULT:      -6.6      2.349      4.936
REMARK  4 active torsions:
REMARK  status: ('A' for Active; 'I' for Inactive)
REMARK    1  A    between atoms: C_6  and  C_1 
REMARK    2  A    between atoms: C_7  and  C_5 
REMARK    3  A    between atoms: O_15  and  C_12 
REMARK    4  A    between atoms: C_16  and  O_15 
ROOT
ATOM      1  C   UNL d   1     -46.927  11.798  23.451  0.00  0.00     0.020 A 
ATOM      2  C   UNL d   1     -47.120  12.588  23.256  0.00  0.00     0.004 A 
ATOM      3  C   UNL d   1     -47.526  11.267  23.650  0.00  0.00     0.004 A 
ATOM      4  C   UNL d   1     -48.515  12.287  23.466  0.00  0.00     0.100 A 
ATOM      5  C   UNL d   1     -47.908  12.831  23.263  0.00  0.00     0.025 A 
ATOM      6  C   UNL d   1     -48.314  11.509  23.657  0.00  0.00     0.025 A 
ENDROOT
BRANCH   1   7
ATOM      7  C   UNL d   1     -46.137  11.552  23.445  0.00  0.00     0.105 A 
ATOM      8  C   UNL d   1     -45.499  10.368  23.652  0.00  0.00     0.048 A 
ATOM      9  C   UNL d   1     -44.802  10.726  23.523  0.00  0.00     0.169 A 
ATOM     10  N   UNL d   1     -44.771  11.495  23.355  0.00  0.00    -0.142 NA
ATOM     11  N   UNL d   1     -45.445  11.902  23.318  0.00  0.00    -0.148 NA
BRANCH   9  12
ATOM     12  C   UNL d   1     -44.133  10.302  23.564  0.00  0.00     0.231 C 
ATOM     13  O   UNL d   1     -44.171   9.524  23.697  0.00  0.00    -0.643 OA
ATOM     14  O   UNL d   1     -43.404  10.675  23.467  0.00  0.00    -0.643 OA
ENDBRANCH   9  12
ENDBRANCH   1   7
BRANCH   4  15
ATOM     15  O   UNL d   1     -49.308  12.540  23.471  0.00  0.00    -0.305 OA
BRANCH  15  16
ATOM     16  C   UNL d   1     -49.901  12.010  23.698  0.00  0.00     0.123 C 
ATOM     17  C   UNL d   1     -50.697  12.248  23.688  0.00  0.00     0.029 C 
ENDBRANCH  15  16
ENDBRANCH   4  15
TORSDOF 4
ENDMDL
MODEL 5
REMARK VINA RESULT:      -6.3      1.768      2.098
REMARK  4 active torsions:
REMARK  status: ('A' for Active; 'I' for Inactive)
REMARK    1  A    between atoms: C_6  and  C_1 
REMARK    2  A    between atoms: C_7  and  C_5 
REMARK    3  A    between atoms: O_15  and  C_12 
REMARK    4  A    between atoms: C_16  and  O_15 
ROOT
ATOM      1  C   UNL d   1     -47.530  13.035  22.893  0.00  0.00     0.020 A 
ATOM      2  C   UNL d   1     -47.207  13.599  22.366  0.00  0.00     0.004 A 
ATOM      3  C   UNL d   1     -47.031  12.509  23.286  0.00  0.00     0.004 A 
ATOM      4  C   UNL d   1     -45.888  13.088  22.646  0.00  0.00     0.100 A 
ATOM      5  C   UNL d   1     -46.392  13.625  22.244  0.00  0.00     0.025 A 
ATOM      6  C   UNL d   1     -46.216  12.535  23.164  0.00  0.00     0.025 A 
ENDROOT
BRANCH   1   7
ATOM      7  C   UNL d   1     -48.348  13.007  23.018  0.00  0.00     0.105 A 
ATOM      8  C   UNL d   1     -49.351  12.180  22.616  0.00  0.00     0.048 A 
ATOM      9  C   UNL d   1     -49.872  12.625  23.019  0.00  0.00     0.169 A 
ATOM     10  N   UNL d   1     -49.633  13.259  23.420  0.00  0.00    -0.142 NA
ATOM     11  N   UNL d   1     -48.867  13.444  23.415  0.00  0.00    -0.148 NA
BRANCH   9  12
ATOM     12  C   UNL d   1     -50.640  12.424  23.015  0.00  0.00     0.231 C 
ATOM     13  O   UNL d   1     -51.064  12.517  22.355  0.00  0.00    -0.643 OA
ATOM     14  O   UNL d   1     -50.987  12.121  23.698  0.00  0.00    -0.643 OA
ENDBRANCH   9  12
ENDBRANCH   1   7
BRANCH   4  15
ATOM     15  O   UNL d   1     -45.065  13.120  22.517  0.00  0.00    -0.305 OA
BRANCH  15  16
ATOM     16  C   UNL d   1     -44.765  12.932  21.771  0.00  0.00     0.123 C 
ATOM     17  C   UNL d   1     -43.944  12.927  21.643  0.00  0.00     0.029 C 
ENDBRANCH  15  16
ENDBRANCH   4  15
TORSDOF 4
ENDMDL
MODEL 6
REMARK VINA RESULT:      -6.0      8.224      8.875
REMARK  4 active torsions:
REMARK  status: ('A' for Active; 'I' for Inactive)
REMARK    1  A    between atoms: C_6  and  C_1 
REMARK    2  A    between atoms: C_7  and  C_5 
REMARK    3  A    between atoms: O_15  and  C_12 
REMARK    4  A    between atoms: C_16  and  O_15 
ROOT
ATOM      1  C   UNL d   1     -40.180  14.437  19.739  0.00  0.00     0.020 A 
ATOM      2  C   UNL d   1     -40.739  14.406  20.360  0.00  0.00     0.004 A 
ATOM      3  C   UNL d   1     -39.374  14.374  19.909  0.00  0.00     0.004 A 
ATOM      4  C   UNL d   1     -39.662  14.249  21.307  0.00  0.00     0.100 A 
ATOM      5  C   UNL d   1     -40.482  14.313  21.138  0.00  0.00     0.025 A 
ATOM      6  C   UNL d   1     -39.117  14.281  20.687  0.00  0.00     0.025 A 
ENDROOT
BRANCH   1   7
ATOM      7  C   UNL d   1     -40.435  14.530  18.958  0.00  0.00     0.105 A 
ATOM      8  C   UNL d   1     -40.501  15.575  18.088  0.00  0.00     0.048 A 
ATOM      9  C   UNL d   1     -40.808  15.091  17.538  0.00  0.00     0.169 A 
ATOM     10  N   UNL d   1     -40.928  14.329  17.695  0.00  0.00    -0.142 NA
ATOM     11  N   UNL d   1     -40.739  14.055  18.410  0.00  0.00    -0.148 NA
BRANCH   9  12
ATOM     12  C   UNL d   1     -40.994  15.383  16.824  0.00  0.00     0.231 C 
ATOM     13  O   UNL d   1     -41.718  15.268  16.530  0.00  0.00    -0.643 OA
ATOM     14  O   UNL d   1     -40.429  15.803  16.394  0.00  0.00    -0.643 OA
ENDBRANCH   9  12
ENDBRANCH   1   7
BRANCH   4  15
ATOM     15  O   UNL d   1     -39.410  14.156  22.095  0.00  0.00    -0.305 OA
BRANCH  15  16
ATOM     16  C   UNL d   1     -39.022  13.460  22.317  0.00  0.00     0.123 C 
ATOM     17  C   UNL d   1     -38.741  13.371  23.093  0.00  0.00     0.029 C 
ENDBRANCH  15  16
ENDBRANCH   4  15
TORSDOF 4
ENDMDL
MODEL 7
REMARK VINA RESULT:      -4.9      8.747      9.734
REMARK  4 active torsions:
REMARK  status: ('A' for Active; 'I' for Inactive)
REMARK    1  A    between atoms: C_6  and  C_1 
REMARK    2  A    between atoms: C_7  and  C_5 
REMARK    3  A    between atoms: O_15  and  C_12 
REMARK    4  A    between atoms: C_16  and  O_15 
ROOT
ATOM      1  C   UNL d   1     -39.983  14.662  18.998  0.00  0.00     0.020 A 
ATOM      2  C   UNL d   1     -39.914  14.117  18.368  0.00  0.00     0.004 A 
ATOM      3  C   UNL d   1     -40.430  15.349  18.899  0.00  0.00     0.004 A 
ATOM      4  C   UNL d   1     -40.746  14.970  17.555  0.00  0.00     0.100 A 
ATOM      5  C   UNL d   1     -40.293  14.270  17.652  0.00  0.00     0.025 A 
ATOM      6  C   UNL d   1     -40.808  15.502  18.183  0.00  0.00     0.025 A 
ENDROOT
BRANCH   1   7
ATOM      7  C   UNL d   1     -39.604  14.511  19.718  0.00  0.00     0.105 A 
ATOM      8  C   UNL d   1     -40.017  14.128  20.957  0.00  0.00     0.048 A 
ATOM      9  C   UNL d   1     -39.263  14.147  21.209  0.00  0.00     0.169 A 
ATOM     10  N   UNL d   1     -38.681  14.348  20.718  0.00  0.00    -0.142 NA
ATOM     11  N   UNL d   1     -38.860  14.529  19.971  0.00  0.00    -0.148 NA
BRANCH   9  12
ATOM     12  C   UNL d   1     -39.100  13.962  21.963  0.00  0.00     0.231 C 
ATOM     13  O   UNL d   1     -39.502  14.310  22.547  0.00  0.00    -0.643 OA
ATOM     14  O   UNL d   1     -38.512  13.408  22.130  0.00  0.00    -0.643 OA
ENDBRANCH   9  12
ENDBRANCH   1   7
BRANCH   4  15
ATOM     15  O   UNL d   1     -41.126  15.117  16.828  0.00  0.00    -0.305 OA
BRANCH  15  16
ATOM     16  C   UNL d   1     -41.569  15.809  16.735  0.00  0.00     0.123 C 
ATOM     17  C   UNL d   1     -42.023  15.922  16.048  0.00  0.00     0.029 C 
ENDBRANCH  15  16
ENDBRANCH   4  15
TORSDOF 4
ENDMDL
MODEL 8
REMARK VINA RESULT:      -4.7      8.982     10.180
REMARK  4 active torsions:
REMARK  status: ('A' for Active; 'I' for Inactive)
REMARK    1  A    between atoms: C_6  and  C_1 
REMARK    2  A    between atoms: C_7  and  C_5 
REMARK    3  A    between atoms: O_15  and  C_12 
REMARK    4  A    between atoms: C_16  and  O_15 
ROOT
ATOM      1  C   UNL d   1     -39.581  14.339  17.744  0.00  0.00     0.020 A 
ATOM      2  C   UNL d   1     -39.144  13.676  17.480  0.00  0.00     0.004 A 
ATOM      3  C   UNL d   1     -39.596  15.027  17.289  0.00  0.00     0.004 A 
ATOM      4  C   UNL d   1     -38.750  14.419  16.307  0.00  0.00     0.100 A 
ATOM      5  C   UNL d   1     -38.732  13.716  16.767  0.00  0.00     0.025 A 
ATOM      6  C   UNL d   1     -39.184  15.067  16.577  0.00  0.00     0.025 A 
ENDROOT
BRANCH   1   7
ATOM      7  C   UNL d   1     -39.996  14.301  18.459  0.00  0.00     0.105 A 
ATOM      8  C   UNL d   1     -39.731  14.671  19.742  0.00  0.00     0.048 A 
ATOM      9  C   UNL d   1     -40.447  14.405  19.961  0.00  0.00     0.169 A 
ATOM     10  N   UNL d   1     -40.936  14.087  19.432  0.00  0.00    -0.142 NA
ATOM     11  N   UNL d   1     -40.703  14.039  18.681  0.00  0.00    -0.148 NA
BRANCH   9  12
ATOM     12  C   UNL d   1     -40.666  14.461  20.721  0.00  0.00     0.231 C 
ATOM     13  O   UNL d   1     -40.204  14.843  21.235  0.00  0.00    -0.643 OA
ATOM     14  O   UNL d   1     -41.375  14.120  20.969  0.00  0.00    -0.643 OA
ENDBRANCH   9  12
ENDBRANCH   1   7
BRANCH   4  15
ATOM     15  O   UNL d   1     -38.331  14.451  15.588  0.00  0.00    -0.305 OA
BRANCH  15  16
ATOM     16  C   UNL d   1     -38.200  13.754  15.164  0.00  0.00     0.123 C 
ATOM     17  C   UNL d   1     -37.942  13.791  14.375  0.00  0.00     0.029 C 
ENDBRANCH  15  16
ENDBRANCH   4  15
TORSDOF 4
ENDMDL
