MODEL 1
REMARK VINA RESULT:      -3.9      0.000      0.000
REMARK  5 active torsions:
REMARK  status: ('A' for Active; 'I' for Inactive)
REMARK    1  A    between atoms: C_2  and  C_1 
REMARK    2  A    between atoms: S_3  and  C_4 
REMARK    3  A    between atoms: C_7  and  S_3 
REMARK    4  A    between atoms: C_5  and  C_7 
REMARK    5  A    between atoms: C_6  and  C_5 
ROOT
ATOM      1  S   UNL d   1      57.055   0.037  31.792  0.00  0.00    -0.083 SA
ENDROOT
BRANCH   1   2
ATOM      2  C   UNL d   1      57.069   0.121  32.632  0.00  0.00     0.035 A 
ATOM      3  C   UNL d   1      56.508  -0.243  33.116  0.00  0.00     0.070 A 
ATOM      4  C   UNL d   1      56.539  -0.151  33.921  0.00  0.00     0.007 A 
ATOM      5  C   UNL d   1      57.125   0.304  34.272  0.00  0.00     0.000 A 
ATOM      6  C   UNL d   1      57.702   0.679  33.788  0.00  0.00     0.001 A 
ATOM      7  C   UNL d   1      57.650   0.569  32.965  0.00  0.00     0.007 A 
BRANCH   3   8
ATOM      8  C   UNL d   1      55.917  -0.700  32.780  0.00  0.00     0.211 C 
ATOM      9  O   UNL d   1      56.097  -1.488  32.551  0.00  0.00    -0.644 OA
ATOM     10  O   UNL d   1      55.157  -0.392  32.667  0.00  0.00    -0.644 OA
ENDBRANCH   3   8
ENDBRANCH   1   2
BRANCH   1  11
ATOM     11  C   UNL d   1      57.736   0.172  31.383  0.00  0.00     0.077 C 
BRANCH  11  12
ATOM     12  C   UNL d   1      57.711   0.307  30.561  0.00  0.00     0.202 C 
ATOM     13  O   UNL d   1      57.025   0.601  30.222  0.00  0.00    -0.286 OA
BRANCH  12  14
ATOM     14  C   UNL d   1      58.388   0.136  30.129  0.00  0.00     0.040 A 
ATOM     15  C   UNL d   1      58.432  -0.618  29.763  0.00  0.00     0.003 A 
ATOM     16  C   UNL d   1      59.105  -0.806  29.326  0.00  0.00     0.000 A 
ATOM     17  C   UNL d   1      59.693  -0.278  29.257  0.00  0.00     0.000 A 
ATOM     18  C   UNL d   1      59.647   0.473  29.622  0.00  0.00     0.000 A 
ATOM     19  C   UNL d   1      60.386  -0.469  28.807  0.00  0.00     0.000 C 
ATOM     20  C   UNL d   1      58.961   0.656  30.064  0.00  0.00     0.003 A 
ENDBRANCH  12  14
ENDBRANCH  11  12
ENDBRANCH   1  11
TORSDOF 5
ENDMDL
MODEL 2
REMARK VINA RESULT:      -2.9      1.279      1.577
REMARK  5 active torsions:
REMARK  status: ('A' for Active; 'I' for Inactive)
REMARK    1  A    between atoms: C_2  and  C_1 
REMARK    2  A    between atoms: S_3  and  C_4 
REMARK    3  A    between atoms: C_7  and  S_3 
REMARK    4  A    between atoms: C_5  and  C_7 
REMARK    5  A    between atoms: C_6  and  C_5 
ROOT
ATOM      1  S   UNL d   1      57.001  -0.243  32.265  0.00  0.00    -0.083 SA
ENDROOT
BRANCH   1   2
ATOM      2  C   UNL d   1      56.262  -0.170  32.666  0.00  0.00     0.035 A 
ATOM      3  C   UNL d   1      55.869  -0.824  32.981  0.00  0.00     0.070 A 
ATOM      4  C   UNL d   1      55.160  -0.733  33.363  0.00  0.00     0.007 A 
ATOM      5  C   UNL d   1      54.816   0.008  33.445  0.00  0.00     0.000 A 
ATOM      6  C   UNL d   1      55.208   0.682  33.127  0.00  0.00     0.001 A 
ATOM      7  C   UNL d   1      55.934   0.562  32.740  0.00  0.00     0.007 A 
BRANCH   3   8
ATOM      8  C   UNL d   1      56.200  -1.570  32.908  0.00  0.00     0.211 C 
ATOM      9  O   UNL d   1      56.630  -1.886  33.556  0.00  0.00    -0.644 OA
ATOM     10  O   UNL d   1      56.113  -2.005  32.209  0.00  0.00    -0.644 OA
ENDBRANCH   3   8
ENDBRANCH   1   2
BRANCH   1  11
ATOM     11  C   UNL d   1      57.245   0.366  31.798  0.00  0.00     0.077 C 
BRANCH  11  12
ATOM     12  C   UNL d   1      58.053   0.459  31.619  0.00  0.00     0.202 C 
ATOM     13  O   UNL d   1      58.599   0.493  32.230  0.00  0.00    -0.286 OA
BRANCH  12  14
ATOM     14  C   UNL d   1      58.262   0.512  30.827  0.00  0.00     0.040 A 
ATOM     15  C   UNL d   1      59.077   0.585  30.645  0.00  0.00     0.003 A 
ATOM     16  C   UNL d   1      59.303   0.639  29.855  0.00  0.00     0.000 A 
ATOM     17  C   UNL d   1      58.753   0.621  29.283  0.00  0.00     0.000 A 
ATOM     18  C   UNL d   1      57.940   0.548  29.466  0.00  0.00     0.000 A 
ATOM     19  C   UNL d   1      58.982   0.676  28.469  0.00  0.00     0.000 C 
ATOM     20  C   UNL d   1      57.720   0.494  30.271  0.00  0.00     0.003 A 
ENDBRANCH  12  14
ENDBRANCH  11  12
ENDBRANCH   1  11
TORSDOF 5
ENDMDL
MODEL 3
REMARK VINA RESULT:      -2.3      1.823      4.408
REMARK  5 active torsions:
REMARK  status: ('A' for Active; 'I' for Inactive)
REMARK    1  A    between atoms: C_2  and  C_1 
REMARK    2  A    between atoms: S_3  and  C_4 
REMARK    3  A    between atoms: C_7  and  S_3 
REMARK    4  A    between atoms: C_5  and  C_7 
REMARK    5  A    between atoms: C_6  and  C_5 
ROOT
ATOM      1  S   UNL d   1      58.686  -1.218  29.468  0.00  0.00    -0.083 SA
ENDROOT
BRANCH   1   2
ATOM      2  C   UNL d   1      59.455  -1.475  29.232  0.00  0.00     0.035 A 
ATOM      3  C   UNL d   1      59.587  -2.225  28.914  0.00  0.00     0.070 A 
ATOM      4  C   UNL d   1      60.333  -2.453  28.693  0.00  0.00     0.007 A 
ATOM      5  C   UNL d   1      60.973  -1.945  28.780  0.00  0.00     0.000 A 
ATOM      6  C   UNL d   1      60.850  -1.178  29.103  0.00  0.00     0.001 A 
ATOM      7  C   UNL d   1      60.075  -0.968  29.321  0.00  0.00     0.007 A 
BRANCH   3   8
ATOM      8  C   UNL d   1      58.959  -2.742  28.821  0.00  0.00     0.211 C 
ATOM      9  O   UNL d   1      58.256  -2.462  28.457  0.00  0.00    -0.644 OA
ATOM     10  O   UNL d   1      59.014  -3.526  29.081  0.00  0.00    -0.644 OA
ENDBRANCH   3   8
ENDBRANCH   1   2
BRANCH   1  11
ATOM     11  C   UNL d   1      58.631  -0.636  30.021  0.00  0.00     0.077 C 
BRANCH  11  12
ATOM     12  C   UNL d   1      57.945  -0.166  30.068  0.00  0.00     0.202 C 
ATOM     13  O   UNL d   1      57.647   0.179  29.386  0.00  0.00    -0.286 OA
BRANCH  12  14
ATOM     14  C   UNL d   1      57.599  -0.073  30.806  0.00  0.00     0.040 A 
ATOM     15  C   UNL d   1      57.168  -0.723  31.116  0.00  0.00     0.003 A 
ATOM     16  C   UNL d   1      56.815  -0.645  31.857  0.00  0.00     0.000 A 
ATOM     17  C   UNL d   1      56.886   0.034  32.261  0.00  0.00     0.000 A 
ATOM     18  C   UNL d   1      57.316   0.681  31.950  0.00  0.00     0.000 A 
ATOM     19  C   UNL d   1      56.524   0.116  33.023  0.00  0.00     0.000 C 
ATOM     20  C   UNL d   1      57.671   0.593  31.198  0.00  0.00     0.003 A 
ENDBRANCH  12  14
ENDBRANCH  11  12
ENDBRANCH   1  11
TORSDOF 5
ENDMDL
