MODEL 1
REMARK VINA RESULT:      39.3      0.000      0.000
REMARK  2 active torsions:
REMARK  status: ('A' for Active; 'I' for Inactive)
REMARK    1  A    between atoms: C_3  and  C_1 
REMARK       I    between atoms: N_7  and  C_3 
REMARK    2  A    between atoms: C_11  and  N_7 
ROOT
ATOM      1  C   UNL d   1      13.945  13.038  -2.694  0.00  0.00     0.121 A 
ATOM      2  C   UNL d   1      13.831  12.220  -2.652  0.00  0.00     0.305 A 
ATOM      3  C   UNL d   1      14.269  13.431  -2.051  0.00  0.00     0.012 A 
ATOM      4  O   UNL d   1      14.035  11.796  -1.976  0.00  0.00    -0.273 OA
ATOM      5  C   UNL d   1      14.478  13.020  -1.367  0.00  0.00     0.023 A 
ATOM      6  C   UNL d   1      14.359  12.198  -1.333  0.00  0.00     0.103 A 
ATOM      7  O   UNL d   1      13.501  11.814  -3.307  0.00  0.00    -0.259 OA
ATOM      8  C   UNL d   1      14.803  13.413  -0.720  0.00  0.00     0.002 A 
ATOM      9  C   UNL d   1      14.568  11.779  -0.649  0.00  0.00     0.025 A 
ATOM     10  C   UNL d   1      15.006  13.003  -0.052  0.00  0.00     0.000 A 
ATOM     11  C   UNL d   1      14.887  12.182  -0.019  0.00  0.00     0.002 A 
ENDROOT
BRANCH   1  12
ATOM     12  C   UNL d   1      13.737  13.457  -3.378  0.00  0.00     0.284 C 
ATOM     13  N   UNL d   1      13.884  14.272  -3.414  0.00  0.00    -0.208 NA
ATOM     14  O   UNL d   1      13.391  13.060  -4.003  0.00  0.00    -0.265 OA
BRANCH  13  15
ATOM     15  C   UNL d   1      13.672  14.683  -4.103  0.00  0.00     0.085 A 
ATOM     16  C   UNL d   1      12.985  14.486  -4.525  0.00  0.00     0.021 A 
ATOM     17  C   UNL d   1      12.786  14.898  -5.203  0.00  0.00     0.031 A 
ATOM     18  C   UNL d   1      13.263  15.509  -5.472  0.00  0.00     0.140 A 
ATOM     19  C   UNL d   1      13.952  15.712  -5.055  0.00  0.00     0.031 A 
ATOM     20  F   UNL d   1      13.064  15.918  -6.146  0.00  0.00    -0.204 F 
ATOM     21  C   UNL d   1      14.156  15.296  -4.367  0.00  0.00     0.021 A 
ENDBRANCH  13  15
ENDBRANCH   1  12
TORSDOF 2
ENDMDL
