MODEL 1
REMARK VINA RESULT:      12.2      0.000      0.000
REMARK  1 active torsions:
REMARK  status: ('A' for Active; 'I' for Inactive)
REMARK    1  A    between atoms: C_2  and  C_1 
ROOT
ATOM      1  C   UNL d   1      59.967  49.687  51.260  0.00  0.00     0.104 A 
ATOM      2  C   UNL d   1      60.155  49.690  50.442  0.00  0.00     0.202 A 
ATOM      3  C   UNL d   1      59.147  49.687  51.491  0.00  0.00     0.021 A 
ATOM      4  C   UNL d   1      59.545  49.695  49.887  0.00  0.00     0.043 A 
ATOM      5  C   UNL d   1      58.568  49.692  50.904  0.00  0.00     0.058 A 
ATOM      6  C   UNL d   1      58.760  49.696  50.102  0.00  0.00     0.015 A 
ATOM      7  O   UNL d   1      60.965  49.690  50.203  0.00  0.00    -0.286 OA
ATOM      8 CL   UNL d   1      57.760  49.693  51.142  0.00  0.00    -0.082 Cl
ENDROOT
BRANCH   1   9
ATOM      9  C   UNL d   1      60.566  49.682  51.828  0.00  0.00     0.214 C 
ATOM     10  O   UNL d   1      61.373  49.677  51.612  0.00  0.00    -0.644 OA
ATOM     11  O   UNL d   1      60.393  49.682  52.652  0.00  0.00    -0.644 OA
ENDBRANCH   1   9
TORSDOF 1
ENDMDL
MODEL 2
REMARK VINA RESULT:      12.7      1.513      2.132
REMARK  1 active torsions:
REMARK  status: ('A' for Active; 'I' for Inactive)
REMARK    1  A    between atoms: C_2  and  C_1 
ROOT
ATOM      1  C   UNL d   1      59.706  49.687  50.830  0.00  0.00     0.104 A 
ATOM      2  C   UNL d   1      60.463  49.692  50.468  0.00  0.00     0.202 A 
ATOM      3  C   UNL d   1      59.660  49.690  51.680  0.00  0.00     0.021 A 
ATOM      4  C   UNL d   1      61.138  49.699  50.941  0.00  0.00     0.043 A 
ATOM      5  C   UNL d   1      60.360  49.696  52.117  0.00  0.00     0.058 A 
ATOM      6  C   UNL d   1      61.100  49.701  51.755  0.00  0.00     0.015 A 
ATOM      7  O   UNL d   1      60.519  49.690  49.625  0.00  0.00    -0.286 OA
ATOM      8 CL   UNL d   1      60.304  49.699  52.958  0.00  0.00    -0.082 Cl
ENDROOT
BRANCH   1   9
ATOM      9  C   UNL d   1      59.021  49.681  50.370  0.00  0.00     0.214 C 
ATOM     10  O   UNL d   1      59.055  49.707  49.536  0.00  0.00    -0.644 OA
ATOM     11  O   UNL d   1      58.256  49.648  50.719  0.00  0.00    -0.644 OA
ENDBRANCH   1   9
TORSDOF 1
ENDMDL
MODEL 3
REMARK VINA RESULT:      14.2      0.630      1.646
REMARK  1 active torsions:
REMARK  status: ('A' for Active; 'I' for Inactive)
REMARK    1  A    between atoms: C_2  and  C_1 
ROOT
ATOM      1  C   UNL d   1      60.313  49.476  50.712  0.00  0.00     0.104 A 
ATOM      2  C   UNL d   1      60.465  49.562  51.533  0.00  0.00     0.202 A 
ATOM      3  C   UNL d   1      59.507  49.509  50.439  0.00  0.00     0.021 A 
ATOM      4  C   UNL d   1      59.834  49.675  52.052  0.00  0.00     0.043 A 
ATOM      5  C   UNL d   1      58.905  49.624  50.991  0.00  0.00     0.058 A 
ATOM      6  C   UNL d   1      59.061  49.708  51.796  0.00  0.00     0.015 A 
ATOM      7  O   UNL d   1      61.261  49.530  51.813  0.00  0.00    -0.286 OA
ATOM      8 CL   UNL d   1      58.110  49.656  50.712  0.00  0.00    -0.082 Cl
ENDROOT
BRANCH   1   9
ATOM      9  C   UNL d   1      60.935  49.362  50.181  0.00  0.00     0.214 C 
ATOM     10  O   UNL d   1      61.601  48.900  50.381  0.00  0.00    -0.644 OA
ATOM     11  O   UNL d   1      60.926  49.705  49.412  0.00  0.00    -0.644 OA
ENDBRANCH   1   9
TORSDOF 1
ENDMDL
MODEL 4
REMARK VINA RESULT:      14.7      1.301      1.811
REMARK  1 active torsions:
REMARK  status: ('A' for Active; 'I' for Inactive)
REMARK    1  A    between atoms: C_2  and  C_1 
ROOT
ATOM      1  C   UNL d   1      60.637  49.671  51.600  0.00  0.00     0.104 A 
ATOM      2  C   UNL d   1      59.814  49.653  51.766  0.00  0.00     0.202 A 
ATOM      3  C   UNL d   1      60.890  49.683  50.787  0.00  0.00     0.021 A 
ATOM      4  C   UNL d   1      59.276  49.648  51.142  0.00  0.00     0.043 A 
ATOM      5  C   UNL d   1      60.318  49.677  50.193  0.00  0.00     0.058 A 
ATOM      6  C   UNL d   1      59.512  49.660  50.362  0.00  0.00     0.015 A 
ATOM      7  O   UNL d   1      59.554  49.641  52.569  0.00  0.00    -0.286 OA
ATOM      8 CL   UNL d   1      60.578  49.689  49.391  0.00  0.00    -0.082 Cl
ENDROOT
BRANCH   1   9
ATOM      9  C   UNL d   1      61.189  49.677  52.214  0.00  0.00     0.214 C 
ATOM     10  O   UNL d   1      60.951  49.707  53.014  0.00  0.00    -0.644 OA
ATOM     11  O   UNL d   1      62.017  49.652  52.063  0.00  0.00    -0.644 OA
ENDBRANCH   1   9
TORSDOF 1
ENDMDL
