MODEL 1
REMARK VINA RESULT:      33.4      0.000      0.000
REMARK  4 active torsions:
REMARK  status: ('A' for Active; 'I' for Inactive)
REMARK    1  A    between atoms: C_7  and  C_1 
REMARK    2  A    between atoms: C_8  and  C_2 
REMARK    3  A    between atoms: C_10  and  C_4 
REMARK    4  A    between atoms: O_13  and  C_7 
ROOT
ATOM      1  C   UNL d   1      22.637  12.934  -1.981  0.00  0.00     0.086 A 
ATOM      2  C   UNL d   1      23.716  12.452  -2.768  0.00  0.00     0.064 A 
ATOM      3  C   UNL d   1      23.247  12.535  -3.461  0.00  0.00     0.205 A 
ATOM      4  C   UNL d   1      23.397  12.655  -2.039  0.00  0.00     0.012 A 
ATOM      5  C   UNL d   1      22.169  13.018  -2.673  0.00  0.00     0.107 A 
ATOM      6  O   UNL d   1      22.475  12.819  -3.403  0.00  0.00    -0.288 OA
ATOM      7  N   UNL d   1      23.552  12.332  -4.228  0.00  0.00    -0.121 N 
ATOM      8  C   UNL d   1      21.358  13.314  -2.627  0.00  0.00     0.027 C 
ENDROOT
BRANCH   4   9
ATOM      9  C   UNL d   1      23.849  12.574  -1.371  0.00  0.00     0.000 A 
ATOM     10  C   UNL d   1      24.308  13.195  -1.108  0.00  0.00     0.000 A 
ATOM     11  C   UNL d   1      24.763  13.114  -0.436  0.00  0.00     0.000 A 
ATOM     12  C   UNL d   1      24.765  12.411  -0.015  0.00  0.00     0.000 A 
ATOM     13  C   UNL d   1      24.298  11.781  -0.283  0.00  0.00     0.000 A 
ATOM     14  C   UNL d   1      23.844  11.862  -0.955  0.00  0.00     0.000 A 
ENDBRANCH   4   9
BRANCH   2  15
ATOM     15  C   UNL d   1      24.492  12.165  -2.837  0.00  0.00     0.126 C 
ATOM     16  N   UNL d   1      24.750  11.835  -3.554  0.00  0.00    -0.146 N 
ENDBRANCH   2  15
BRANCH   1  17
ATOM     17  C   UNL d   1      22.298  13.146  -1.236  0.00  0.00     0.298 C 
ATOM     18  O   UNL d   1      22.100  13.926  -1.084  0.00  0.00    -0.259 OA
BRANCH  17  19
ATOM     19  O   UNL d   1      22.173  12.556  -0.672  0.00  0.00    -0.296 OA
ATOM     20  C   UNL d   1      21.495  12.567  -0.187  0.00  0.00     0.185 C 
ENDBRANCH  17  19
ENDBRANCH   1  17
TORSDOF 4
ENDMDL
MODEL 2
REMARK VINA RESULT:      36.1      8.027      9.093
REMARK  4 active torsions:
REMARK  status: ('A' for Active; 'I' for Inactive)
REMARK    1  A    between atoms: C_7  and  C_1 
REMARK    2  A    between atoms: C_8  and  C_2 
REMARK    3  A    between atoms: C_10  and  C_4 
REMARK    4  A    between atoms: O_13  and  C_7 
ROOT
ATOM      1  C   UNL d   1      14.135  12.912  -1.888  0.00  0.00     0.086 A 
ATOM      2  C   UNL d   1      14.307  14.127  -2.602  0.00  0.00     0.064 A 
ATOM      3  C   UNL d   1      13.890  13.803  -3.255  0.00  0.00     0.205 A 
ATOM      4  C   UNL d   1      14.421  13.671  -1.928  0.00  0.00     0.012 A 
ATOM      5  C   UNL d   1      13.718  12.587  -2.541  0.00  0.00     0.107 A 
ATOM      6  O   UNL d   1      13.600  13.032  -3.215  0.00  0.00    -0.288 OA
ATOM      7  N   UNL d   1      13.758  14.253  -3.964  0.00  0.00    -0.121 N 
ATOM      8  C   UNL d   1      13.408  11.781  -2.513  0.00  0.00     0.027 C 
ENDROOT
BRANCH   4   9
ATOM      9  C   UNL d   1      14.823  13.984  -1.298  0.00  0.00     0.000 A 
ATOM     10  C   UNL d   1      15.591  13.754  -1.146  0.00  0.00     0.000 A 
ATOM     11  C   UNL d   1      15.995  14.069  -0.512  0.00  0.00     0.000 A 
ATOM     12  C   UNL d   1      15.638  14.619  -0.020  0.00  0.00     0.000 A 
ATOM     13  C   UNL d   1      14.859  14.852  -0.176  0.00  0.00     0.000 A 
ATOM     14  C   UNL d   1      14.454  14.537  -0.809  0.00  0.00     0.000 A 
ENDBRANCH   4   9
BRANCH   2  15
ATOM     15  C   UNL d   1      14.595  14.905  -2.652  0.00  0.00     0.126 C 
ATOM     16  N   UNL d   1      14.432  15.365  -3.324  0.00  0.00    -0.146 N 
ENDBRANCH   2  15
BRANCH   1  17
ATOM     17  C   UNL d   1      14.245  12.433  -1.201  0.00  0.00     0.298 C 
ATOM     18  O   UNL d   1      14.896  11.938  -1.147  0.00  0.00    -0.259 OA
BRANCH  17  19
ATOM     19  O   UNL d   1      13.689  12.473  -0.592  0.00  0.00    -0.296 OA
ATOM     20  C   UNL d   1      13.400  11.779  -0.232  0.00  0.00     0.185 C 
ENDBRANCH  17  19
ENDBRANCH   1  17
TORSDOF 4
ENDMDL
