MODEL 1
REMARK VINA RESULT:      -4.5      0.000      0.000
REMARK  0 active torsions:
REMARK  status: ('A' for Active; 'I' for Inactive)
ROOT
ATOM      1  N   UNL d   1      55.761   0.626  32.941  0.00  0.00    -0.169 NA
ATOM      2  C   UNL d   1      56.238   0.231  32.400  0.00  0.00     0.199 A 
ATOM      3  C   UNL d   1      56.307  -0.591  32.402  0.00  0.00     0.130 A 
ATOM      4  N   UNL d   1      55.409  -0.652  33.506  0.00  0.00    -0.151 NA
ATOM      5  C   UNL d   1      55.893  -1.026  32.955  0.00  0.00     0.292 A 
ATOM      6  C   UNL d   1      55.340   0.170  33.504  0.00  0.00     0.373 A 
ATOM      7  O   UNL d   1      55.960  -1.854  32.960  0.00  0.00    -0.264 OA
ATOM      8  O   UNL d   1      54.856   0.556  34.055  0.00  0.00    -0.242 OA
ATOM      9  N   UNL d   1      56.659   0.679  31.836  0.00  0.00    -0.126 N 
ATOM     10 BR   UNL d   1      56.791  -0.970  31.850  0.00  0.00    -0.041 Br
ENDROOT
TORSDOF 0
ENDMDL
MODEL 2
REMARK VINA RESULT:      -4.3      1.380      1.840
REMARK  0 active torsions:
REMARK  status: ('A' for Active; 'I' for Inactive)
ROOT
ATOM      1  N   UNL d   1      56.170  -0.630  33.226  0.00  0.00    -0.169 NA
ATOM      2  C   UNL d   1      56.620   0.009  32.969  0.00  0.00     0.199 A 
ATOM      3  C   UNL d   1      56.982   0.014  32.227  0.00  0.00     0.130 A 
ATOM      4  N   UNL d   1      56.448  -1.282  31.970  0.00  0.00    -0.151 NA
ATOM      5  C   UNL d   1      56.893  -0.630  31.734  0.00  0.00     0.292 A 
ATOM      6  C   UNL d   1      56.086  -1.287  32.712  0.00  0.00     0.373 A 
ATOM      7  O   UNL d   1      57.256  -0.629  30.987  0.00  0.00    -0.264 OA
ATOM      8  O   UNL d   1      55.635  -1.937  32.960  0.00  0.00    -0.242 OA
ATOM      9  N   UNL d   1      56.709   0.666  33.475  0.00  0.00    -0.126 N 
ATOM     10 BR   UNL d   1      57.430   0.665  31.986  0.00  0.00    -0.041 Br
ENDROOT
TORSDOF 0
ENDMDL
MODEL 3
REMARK VINA RESULT:      -4.1      1.481      2.068
REMARK  0 active torsions:
REMARK  status: ('A' for Active; 'I' for Inactive)
ROOT
ATOM      1  N   UNL d   1      57.208  -0.121  31.943  0.00  0.00    -0.169 NA
ATOM      2  C   UNL d   1      56.840  -0.006  32.671  0.00  0.00     0.199 A 
ATOM      3  C   UNL d   1      56.302  -0.552  32.977  0.00  0.00     0.130 A 
ATOM      4  N   UNL d   1      56.483  -1.361  31.818  0.00  0.00    -0.151 NA
ATOM      5  C   UNL d   1      56.128  -1.225  32.548  0.00  0.00     0.292 A 
ATOM      6  C   UNL d   1      57.021  -0.816  31.512  0.00  0.00     0.373 A 
ATOM      7  O   UNL d   1      55.587  -1.776  32.852  0.00  0.00    -0.264 OA
ATOM      8  O   UNL d   1      57.384  -0.943  30.778  0.00  0.00    -0.242 OA
ATOM      9  N   UNL d   1      57.021   0.682  33.106  0.00  0.00    -0.126 N 
ATOM     10 BR   UNL d   1      55.944  -0.419  33.709  0.00  0.00    -0.041 Br
ENDROOT
TORSDOF 0
ENDMDL
MODEL 4
REMARK VINA RESULT:      -3.8      1.590      2.342
REMARK  0 active torsions:
REMARK  status: ('A' for Active; 'I' for Inactive)
ROOT
ATOM      1  N   UNL d   1      55.860  -0.953  32.596  0.00  0.00    -0.169 NA
ATOM      2  C   UNL d   1      55.762  -0.401  33.199  0.00  0.00     0.199 A 
ATOM      3  C   UNL d   1      56.357   0.135  33.397  0.00  0.00     0.130 A 
ATOM      4  N   UNL d   1      57.183  -0.425  32.379  0.00  0.00    -0.151 NA
ATOM      5  C   UNL d   1      57.063   0.119  32.986  0.00  0.00     0.292 A 
ATOM      6  C   UNL d   1      56.588  -0.961  32.181  0.00  0.00     0.373 A 
ATOM      7  O   UNL d   1      57.664   0.657  33.182  0.00  0.00    -0.264 OA
ATOM      8  O   UNL d   1      56.698  -1.512  31.572  0.00  0.00    -0.242 OA
ATOM      9  N   UNL d   1      55.040  -0.388  33.616  0.00  0.00    -0.126 N 
ATOM     10 BR   UNL d   1      56.240   0.682  34.004  0.00  0.00    -0.041 Br
ENDROOT
TORSDOF 0
ENDMDL
MODEL 5
REMARK VINA RESULT:      -3.2      8.368      8.964
REMARK  0 active torsions:
REMARK  status: ('A' for Active; 'I' for Inactive)
ROOT
ATOM      1  N   UNL d   1      59.430  -6.971  36.177  0.00  0.00    -0.169 NA
ATOM      2  C   UNL d   1      59.340  -7.777  36.035  0.00  0.00     0.199 A 
ATOM      3  C   UNL d   1      59.902  -8.209  35.613  0.00  0.00     0.130 A 
ATOM      4  N   UNL d   1      60.678  -7.024  35.456  0.00  0.00    -0.151 NA
ATOM      5  C   UNL d   1      60.566  -7.830  35.327  0.00  0.00     0.292 A 
ATOM      6  C   UNL d   1      60.116  -6.592  35.878  0.00  0.00     0.373 A 
ATOM      7  O   UNL d   1      61.133  -8.261  34.902  0.00  0.00    -0.264 OA
ATOM      8  O   UNL d   1      60.218  -5.780  36.014  0.00  0.00    -0.242 OA
ATOM      9  N   UNL d   1      58.661  -8.161  36.329  0.00  0.00    -0.126 N 
ATOM     10 BR   UNL d   1      59.794  -9.017  35.482  0.00  0.00    -0.041 Br
ENDROOT
TORSDOF 0
ENDMDL
MODEL 6
REMARK VINA RESULT:      -2.5      9.132      9.545
REMARK  0 active torsions:
REMARK  status: ('A' for Active; 'I' for Inactive)
ROOT
ATOM      1  N   UNL d   1      60.247  -7.919  35.371  0.00  0.00    -0.169 NA
ATOM      2  C   UNL d   1      60.387  -8.559  34.874  0.00  0.00     0.199 A 
ATOM      3  C   UNL d   1      59.851  -9.183  34.809  0.00  0.00     0.130 A 
ATOM      4  N   UNL d   1      59.002  -8.537  35.753  0.00  0.00    -0.151 NA
ATOM      5  C   UNL d   1      59.163  -9.168  35.249  0.00  0.00     0.292 A 
ATOM      6  C   UNL d   1      59.538  -7.913  35.818  0.00  0.00     0.373 A 
ATOM      7  O   UNL d   1      58.622  -9.794  35.186  0.00  0.00    -0.264 OA
ATOM      8  O   UNL d   1      59.385  -7.273  36.323  0.00  0.00    -0.242 OA
ATOM      9  N   UNL d   1      61.090  -8.571  34.426  0.00  0.00    -0.126 N 
ATOM     10 BR   UNL d   1      60.009  -9.817  34.303  0.00  0.00    -0.041 Br
ENDROOT
TORSDOF 0
ENDMDL
MODEL 7
REMARK VINA RESULT:      -2.3      8.332      9.113
REMARK  0 active torsions:
REMARK  status: ('A' for Active; 'I' for Inactive)
ROOT
ATOM      1  N   UNL d   1      60.143  -8.608  35.644  0.00  0.00    -0.169 NA
ATOM      2  C   UNL d   1      60.376  -7.893  35.979  0.00  0.00     0.199 A 
ATOM      3  C   UNL d   1      59.880  -7.233  35.982  0.00  0.00     0.130 A 
ATOM      4  N   UNL d   1      58.884  -7.993  35.303  0.00  0.00    -0.151 NA
ATOM      5  C   UNL d   1      59.139  -7.288  35.644  0.00  0.00     0.292 A 
ATOM      6  C   UNL d   1      59.380  -8.653  35.300  0.00  0.00     0.373 A 
ATOM      7  O   UNL d   1      58.638  -6.626  35.645  0.00  0.00    -0.264 OA
ATOM      8  O   UNL d   1      59.134  -9.367  34.959  0.00  0.00    -0.242 OA
ATOM      9  N   UNL d   1      61.133  -7.840  36.324  0.00  0.00    -0.126 N 
ATOM     10 BR   UNL d   1      60.132  -6.524  36.324  0.00  0.00    -0.041 Br
ENDROOT
TORSDOF 0
ENDMDL
MODEL 8
REMARK VINA RESULT:      -2.2      1.709      1.994
REMARK  0 active torsions:
REMARK  status: ('A' for Active; 'I' for Inactive)
ROOT
ATOM      1  N   UNL d   1      57.838   0.682  32.107  0.00  0.00    -0.169 NA
ATOM      2  C   UNL d   1      57.973   0.331  31.374  0.00  0.00     0.199 A 
ATOM      3  C   UNL d   1      57.576  -0.354  31.142  0.00  0.00     0.130 A 
ATOM      4  N   UNL d   1      56.884  -0.361  32.388  0.00  0.00    -0.151 NA
ATOM      5  C   UNL d   1      57.035  -0.695  31.650  0.00  0.00     0.292 A 
ATOM      6  C   UNL d   1      57.281   0.324  32.620  0.00  0.00     0.373 A 
ATOM      7  O   UNL d   1      56.634  -1.384  31.420  0.00  0.00    -0.264 OA
ATOM      8  O   UNL d   1      57.136   0.668  33.361  0.00  0.00    -0.242 OA
ATOM      9  N   UNL d   1      58.526   0.682  30.858  0.00  0.00    -0.126 N 
ATOM     10 BR   UNL d   1      57.725  -0.691  30.403  0.00  0.00    -0.041 Br
ENDROOT
TORSDOF 0
ENDMDL
MODEL 9
REMARK VINA RESULT:      -2.2      4.574      5.080
REMARK  0 active torsions:
REMARK  status: ('A' for Active; 'I' for Inactive)
ROOT
ATOM      1  N   UNL d   1      59.361  -0.630  29.252  0.00  0.00    -0.169 NA
ATOM      2  C   UNL d   1      59.857  -1.256  29.050  0.00  0.00     0.199 A 
ATOM      3  C   UNL d   1      59.593  -2.038  29.055  0.00  0.00     0.130 A 
ATOM      4  N   UNL d   1      58.306  -1.588  29.472  0.00  0.00    -0.151 NA
ATOM      5  C   UNL d   1      58.820  -2.198  29.265  0.00  0.00     0.292 A 
ATOM      6  C   UNL d   1      58.570  -0.806  29.467  0.00  0.00     0.373 A 
ATOM      7  O   UNL d   1      58.551  -2.983  29.272  0.00  0.00    -0.264 OA
ATOM      8  O   UNL d   1      58.062  -0.185  29.672  0.00  0.00    -0.242 OA
ATOM      9  N   UNL d   1      60.645  -1.088  28.835  0.00  0.00    -0.126 N 
ATOM     10 BR   UNL d   1      60.105  -2.652  28.849  0.00  0.00    -0.041 Br
ENDROOT
TORSDOF 0
ENDMDL
