MODEL 1
REMARK VINA RESULT:      -8.3      0.000      0.000
REMARK  4 active torsions:
REMARK  status: ('A' for Active; 'I' for Inactive)
REMARK    1  A    between atoms: C_8  and  C_1 
REMARK    2  A    between atoms: S_4  and  N_7 
REMARK    3  A    between atoms: C_14  and  S_4 
REMARK    4  A    between atoms: N_7  and  C_13 
ROOT
ATOM      1  C   UNL d   1      52.822  32.841  53.322  0.00  0.00     0.025 A 
ATOM      2  C   UNL d   1      52.939  32.059  53.112  0.00  0.00     0.022 A 
ATOM      3  C   UNL d   1      53.605  31.653  53.368  0.00  0.00     0.094 A 
ATOM      4  C   UNL d   1      53.372  33.240  53.797  0.00  0.00     0.002 A 
ATOM      5  C   UNL d   1      54.039  32.845  54.059  0.00  0.00     0.002 A 
ATOM      6  C   UNL d   1      54.156  32.043  53.841  0.00  0.00     0.020 A 
ENDROOT
BRANCH   1   7
ATOM      7  C   UNL d   1      52.148  33.248  53.061  0.00  0.00     0.112 A 
ATOM      8  S   UNL d   1      51.512  33.496  53.540  0.00  0.00    -0.047 SA
ATOM      9  C   UNL d   1      50.949  33.884  53.062  0.00  0.00     0.130 A 
ATOM     10  N   UNL d   1      50.228  34.237  53.217  0.00  0.00    -0.236 NA
ATOM     11  C   UNL d   1      51.246  33.873  52.278  0.00  0.00     0.106 A 
ATOM     12  C   UNL d   1      49.794  34.581  52.610  0.00  0.00     0.100 A 
ATOM     13  C   UNL d   1      50.080  34.573  51.836  0.00  0.00     0.022 A 
ATOM     14  C   UNL d   1      50.804  34.221  51.669  0.00  0.00     0.023 A 
ATOM     15  N   UNL d   1      51.981  33.483  52.277  0.00  0.00    -0.237 NA
ENDBRANCH   1   7
BRANCH   3  16
ATOM     16  N   UNL d   1      53.725  30.870  53.159  0.00  0.00    -0.158 NA
BRANCH  16  17
ATOM     17  S   UNL d   1      53.310  30.271  53.545  0.00  0.00     0.286 S 
ATOM     18  O   UNL d   1      52.816  30.186  52.886  0.00  0.00    -0.198 OA
ATOM     19  O   UNL d   1      53.801  30.354  54.202  0.00  0.00    -0.198 OA
BRANCH  17  20
ATOM     20  C   UNL d   1      52.901  29.675  53.935  0.00  0.00     0.117 C 
ATOM     21  C   UNL d   1      53.311  29.045  54.277  0.00  0.00     0.014 C 
ENDBRANCH  17  20
ENDBRANCH  16  17
ENDBRANCH   3  16
TORSDOF 4
ENDMDL
MODEL 2
REMARK VINA RESULT:      -8.1      1.822      4.210
REMARK  4 active torsions:
REMARK  status: ('A' for Active; 'I' for Inactive)
REMARK    1  A    between atoms: C_8  and  C_1 
REMARK    2  A    between atoms: S_4  and  N_7 
REMARK    3  A    between atoms: C_14  and  S_4 
REMARK    4  A    between atoms: N_7  and  C_13 
ROOT
ATOM      1  C   UNL d   1      52.837  33.119  53.288  0.00  0.00     0.025 A 
ATOM      2  C   UNL d   1      52.220  33.433  52.850  0.00  0.00     0.022 A 
ATOM      3  C   UNL d   1      52.108  34.245  52.808  0.00  0.00     0.094 A 
ATOM      4  C   UNL d   1      53.360  33.614  53.699  0.00  0.00     0.002 A 
ATOM      5  C   UNL d   1      53.259  34.425  53.665  0.00  0.00     0.002 A 
ATOM      6  C   UNL d   1      52.626  34.743  53.214  0.00  0.00     0.020 A 
ENDROOT
BRANCH   1   7
ATOM      7  C   UNL d   1      52.946  32.299  53.327  0.00  0.00     0.112 A 
ATOM      8  S   UNL d   1      53.397  31.893  53.900  0.00  0.00    -0.047 SA
ATOM      9  C   UNL d   1      53.363  31.075  53.740  0.00  0.00     0.130 A 
ATOM     10  N   UNL d   1      53.688  30.417  54.103  0.00  0.00    -0.236 NA
ATOM     11  C   UNL d   1      52.884  30.979  53.059  0.00  0.00     0.106 A 
ATOM     12  C   UNL d   1      53.548  29.666  53.804  0.00  0.00     0.100 A 
ATOM     13  C   UNL d   1      53.078  29.564  53.134  0.00  0.00     0.022 A 
ATOM     14  C   UNL d   1      52.746  30.217  52.761  0.00  0.00     0.023 A 
ATOM     15  N   UNL d   1      52.628  31.728  52.806  0.00  0.00    -0.237 NA
ENDBRANCH   1   7
BRANCH   3  16
ATOM     16  N   UNL d   1      51.493  34.563  52.371  0.00  0.00    -0.158 NA
BRANCH  16  17
ATOM     17  S   UNL d   1      50.719  34.514  52.652  0.00  0.00     0.286 S 
ATOM     18  O   UNL d   1      50.901  35.055  53.252  0.00  0.00    -0.198 OA
ATOM     19  O   UNL d   1      50.536  33.975  52.055  0.00  0.00    -0.198 OA
BRANCH  17  20
ATOM     20  C   UNL d   1      49.947  34.462  52.926  0.00  0.00     0.117 C 
ATOM     21  C   UNL d   1      49.333  34.828  52.511  0.00  0.00     0.014 C 
ENDBRANCH  17  20
ENDBRANCH  16  17
ENDBRANCH   3  16
TORSDOF 4
ENDMDL
MODEL 3
REMARK VINA RESULT:      -8.0      1.450      2.178
REMARK  4 active torsions:
REMARK  status: ('A' for Active; 'I' for Inactive)
REMARK    1  A    between atoms: C_8  and  C_1 
REMARK    2  A    between atoms: S_4  and  N_7 
REMARK    3  A    between atoms: C_14  and  S_4 
REMARK    4  A    between atoms: N_7  and  C_13 
ROOT
ATOM      1  C   UNL d   1      52.494  32.593  53.075  0.00  0.00     0.025 A 
ATOM      2  C   UNL d   1      53.196  32.919  53.343  0.00  0.00     0.022 A 
ATOM      3  C   UNL d   1      53.832  32.438  53.540  0.00  0.00     0.094 A 
ATOM      4  C   UNL d   1      52.410  31.773  52.997  0.00  0.00     0.002 A 
ATOM      5  C   UNL d   1      53.036  31.283  53.191  0.00  0.00     0.002 A 
ATOM      6  C   UNL d   1      53.754  31.620  53.464  0.00  0.00     0.020 A 
ENDROOT
BRANCH   1   7
ATOM      7  C   UNL d   1      51.855  33.083  52.878  0.00  0.00     0.112 A 
ATOM      8  S   UNL d   1      51.256  33.338  53.399  0.00  0.00    -0.047 SA
ATOM      9  C   UNL d   1      50.721  33.821  52.980  0.00  0.00     0.130 A 
ATOM     10  N   UNL d   1      50.039  34.221  53.192  0.00  0.00    -0.236 NA
ATOM     11  C   UNL d   1      50.997  33.863  52.190  0.00  0.00     0.106 A 
ATOM     12  C   UNL d   1      49.626  34.662  52.636  0.00  0.00     0.100 A 
ATOM     13  C   UNL d   1      49.892  34.707  51.857  0.00  0.00     0.022 A 
ATOM     14  C   UNL d   1      50.576  34.310  51.632  0.00  0.00     0.023 A 
ATOM     15  N   UNL d   1      51.692  33.410  52.127  0.00  0.00    -0.237 NA
ENDBRANCH   1   7
BRANCH   3  16
ATOM     16  N   UNL d   1      54.535  32.760  53.808  0.00  0.00    -0.158 NA
BRANCH  16  17
ATOM     17  S   UNL d   1      54.566  33.131  54.544  0.00  0.00     0.286 S 
ATOM     18  O   UNL d   1      54.472  32.399  54.919  0.00  0.00    -0.198 OA
ATOM     19  O   UNL d   1      54.659  33.861  54.172  0.00  0.00    -0.198 OA
BRANCH  17  20
ATOM     20  C   UNL d   1      54.597  33.506  55.273  0.00  0.00     0.117 C 
ATOM     21  C   UNL d   1      55.273  33.929  55.494  0.00  0.00     0.014 C 
ENDBRANCH  17  20
ENDBRANCH  16  17
ENDBRANCH   3  16
TORSDOF 4
ENDMDL
MODEL 4
REMARK VINA RESULT:      -7.9      2.650      4.745
REMARK  4 active torsions:
REMARK  status: ('A' for Active; 'I' for Inactive)
REMARK    1  A    between atoms: C_8  and  C_1 
REMARK    2  A    between atoms: S_4  and  N_7 
REMARK    3  A    between atoms: C_14  and  S_4 
REMARK    4  A    between atoms: N_7  and  C_13 
ROOT
ATOM      1  C   UNL d   1      51.822  34.063  52.983  0.00  0.00     0.025 A 
ATOM      2  C   UNL d   1      51.055  34.138  53.260  0.00  0.00     0.022 A 
ATOM      3  C   UNL d   1      50.436  34.289  52.742  0.00  0.00     0.094 A 
ATOM      4  C   UNL d   1      51.990  34.138  52.175  0.00  0.00     0.002 A 
ATOM      5  C   UNL d   1      51.382  34.288  51.649  0.00  0.00     0.002 A 
ATOM      6  C   UNL d   1      50.597  34.364  51.936  0.00  0.00     0.020 A 
ENDROOT
BRANCH   1   7
ATOM      7  C   UNL d   1      52.443  33.911  53.510  0.00  0.00     0.112 A 
ATOM      8  S   UNL d   1      52.891  34.485  53.916  0.00  0.00    -0.047 SA
ATOM      9  C   UNL d   1      53.460  34.100  54.390  0.00  0.00     0.130 A 
ATOM     10  N   UNL d   1      54.042  34.367  54.899  0.00  0.00    -0.236 NA
ATOM     11  C   UNL d   1      53.358  33.277  54.271  0.00  0.00     0.106 A 
ATOM     12  C   UNL d   1      54.525  33.834  55.294  0.00  0.00     0.100 A 
ATOM     13  C   UNL d   1      54.430  33.022  55.182  0.00  0.00     0.022 A 
ATOM     14  C   UNL d   1      53.849  32.742  54.673  0.00  0.00     0.023 A 
ATOM     15  N   UNL d   1      52.735  33.160  53.732  0.00  0.00    -0.237 NA
ENDBRANCH   1   7
BRANCH   3  16
ATOM     16  N   UNL d   1      49.668  34.364  53.015  0.00  0.00    -0.158 NA
BRANCH  16  17
ATOM     17  S   UNL d   1      49.213  35.016  52.795  0.00  0.00     0.286 S 
ATOM     18  O   UNL d   1      48.950  34.609  52.124  0.00  0.00    -0.198 OA
ATOM     19  O   UNL d   1      49.475  35.424  53.463  0.00  0.00    -0.198 OA
BRANCH  17  20
ATOM     20  C   UNL d   1      48.763  35.669  52.582  0.00  0.00     0.117 C 
ATOM     21  C   UNL d   1      48.074  35.853  53.000  0.00  0.00     0.014 C 
ENDBRANCH  17  20
ENDBRANCH  16  17
ENDBRANCH   3  16
TORSDOF 4
ENDMDL
MODEL 5
REMARK VINA RESULT:      -7.7      1.564      4.231
REMARK  4 active torsions:
REMARK  status: ('A' for Active; 'I' for Inactive)
REMARK    1  A    between atoms: C_8  and  C_1 
REMARK    2  A    between atoms: S_4  and  N_7 
REMARK    3  A    between atoms: C_14  and  S_4 
REMARK    4  A    between atoms: N_7  and  C_13 
ROOT
ATOM      1  C   UNL d   1      53.484  32.269  53.693  0.00  0.00     0.025 A 
ATOM      2  C   UNL d   1      52.844  32.775  53.767  0.00  0.00     0.022 A 
ATOM      3  C   UNL d   1      52.945  33.588  53.710  0.00  0.00     0.094 A 
ATOM      4  C   UNL d   1      54.246  32.566  53.558  0.00  0.00     0.002 A 
ATOM      5  C   UNL d   1      54.358  33.375  53.498  0.00  0.00     0.002 A 
ATOM      6  C   UNL d   1      53.700  33.890  53.575  0.00  0.00     0.020 A 
ENDROOT
BRANCH   1   7
ATOM      7  C   UNL d   1      53.377  31.449  53.752  0.00  0.00     0.112 A 
ATOM      8  S   UNL d   1      53.084  30.950  53.151  0.00  0.00    -0.047 SA
ATOM      9  C   UNL d   1      53.064  30.167  53.436  0.00  0.00     0.130 A 
ATOM     10  N   UNL d   1      52.836  29.454  53.106  0.00  0.00    -0.236 NA
ATOM     11  C   UNL d   1      53.350  30.187  54.224  0.00  0.00     0.106 A 
ATOM     12  C   UNL d   1      52.883  28.760  53.542  0.00  0.00     0.100 A 
ATOM     13  C   UNL d   1      53.163  28.772  54.317  0.00  0.00     0.022 A 
ATOM     14  C   UNL d   1      53.396  29.482  54.660  0.00  0.00     0.023 A 
ATOM     15  N   UNL d   1      53.541  30.973  54.418  0.00  0.00    -0.237 NA
ENDBRANCH   1   7
BRANCH   3  16
ATOM     16  N   UNL d   1      52.307  34.096  53.784  0.00  0.00    -0.158 NA
BRANCH  16  17
ATOM     17  S   UNL d   1      51.790  34.205  53.150  0.00  0.00     0.286 S 
ATOM     18  O   UNL d   1      52.348  34.689  52.775  0.00  0.00    -0.198 OA
ATOM     19  O   UNL d   1      51.233  33.724  53.523  0.00  0.00    -0.198 OA
BRANCH  17  20
ATOM     20  C   UNL d   1      51.270  34.309  52.523  0.00  0.00     0.117 C 
ATOM     21  C   UNL d   1      50.457  34.362  52.662  0.00  0.00     0.014 C 
ENDBRANCH  17  20
ENDBRANCH  16  17
ENDBRANCH   3  16
TORSDOF 4
ENDMDL
MODEL 6
REMARK VINA RESULT:      -7.4      1.739      2.248
REMARK  4 active torsions:
REMARK  status: ('A' for Active; 'I' for Inactive)
REMARK    1  A    between atoms: C_8  and  C_1 
REMARK    2  A    between atoms: S_4  and  N_7 
REMARK    3  A    between atoms: C_14  and  S_4 
REMARK    4  A    between atoms: N_7  and  C_13 
ROOT
ATOM      1  C   UNL d   1      53.011  32.212  53.503  0.00  0.00     0.025 A 
ATOM      2  C   UNL d   1      53.413  31.612  53.889  0.00  0.00     0.022 A 
ATOM      3  C   UNL d   1      53.373  30.839  53.614  0.00  0.00     0.094 A 
ATOM      4  C   UNL d   1      52.557  32.053  52.828  0.00  0.00     0.002 A 
ATOM      5  C   UNL d   1      52.510  31.287  52.545  0.00  0.00     0.002 A 
ATOM      6  C   UNL d   1      52.923  30.674  52.943  0.00  0.00     0.020 A 
ENDROOT
BRANCH   1   7
ATOM      7  C   UNL d   1      53.054  32.991  53.783  0.00  0.00     0.112 A 
ATOM      8  S   UNL d   1      53.512  33.253  54.428  0.00  0.00    -0.047 SA
ATOM      9  C   UNL d   1      53.398  34.073  54.526  0.00  0.00     0.130 A 
ATOM     10  N   UNL d   1      53.694  34.624  55.054  0.00  0.00    -0.236 NA
ATOM     11  C   UNL d   1      52.860  34.317  53.931  0.00  0.00     0.106 A 
ATOM     12  C   UNL d   1      53.467  35.411  55.005  0.00  0.00     0.100 A 
ATOM     13  C   UNL d   1      52.939  35.658  54.422  0.00  0.00     0.022 A 
ATOM     14  C   UNL d   1      52.634  35.114  53.886  0.00  0.00     0.023 A 
ATOM     15  N   UNL d   1      52.649  33.654  53.476  0.00  0.00    -0.237 NA
ENDBRANCH   1   7
BRANCH   3  16
ATOM     16  N   UNL d   1      53.773  30.236  53.998  0.00  0.00    -0.158 NA
BRANCH  16  17
ATOM     17  S   UNL d   1      53.355  29.604  54.323  0.00  0.00     0.286 S 
ATOM     18  O   UNL d   1      53.391  29.205  53.599  0.00  0.00    -0.198 OA
ATOM     19  O   UNL d   1      53.318  30.001  55.045  0.00  0.00    -0.198 OA
BRANCH  17  20
ATOM     20  C   UNL d   1      52.938  28.979  54.653  0.00  0.00     0.117 C 
ATOM     21  C   UNL d   1      53.315  28.456  55.172  0.00  0.00     0.014 C 
ENDBRANCH  17  20
ENDBRANCH  16  17
ENDBRANCH   3  16
TORSDOF 4
ENDMDL
