MODEL 1
REMARK VINA RESULT:      -9.1      0.000      0.000
REMARK  3 active torsions:
REMARK  status: ('A' for Active; 'I' for Inactive)
REMARK    1  A    between atoms: C_7  and  C_1 
REMARK    2  A    between atoms: C_13  and  C_7 
REMARK    3  A    between atoms: N_12  and  C_11 
ROOT
ATOM      1  C   UNL d   1      53.923  33.084  53.258  0.00  0.00     0.010 C 
ENDROOT
BRANCH   1   2
ATOM      2  C   UNL d   1      53.724  33.623  53.817  0.00  0.00     0.116 A 
ATOM      3  C   UNL d   1      53.038  34.075  53.742  0.00  0.00     0.288 A 
ATOM      4  N   UNL d   1      52.824  34.630  54.309  0.00  0.00    -0.152 NA
ATOM      5  O   UNL d   1      52.555  33.967  53.079  0.00  0.00    -0.265 OA
ATOM      6  C   UNL d   1      53.299  34.737  54.960  0.00  0.00     0.374 A 
ATOM      7  N   UNL d   1      53.987  34.300  55.060  0.00  0.00    -0.152 NA
ATOM      8  O   UNL d   1      53.076  35.305  55.537  0.00  0.00    -0.242 OA
ATOM      9  C   UNL d   1      54.193  33.748  54.488  0.00  0.00     0.288 A 
ATOM     10  O   UNL d   1      54.890  33.301  54.583  0.00  0.00    -0.265 OA
ENDBRANCH   1   2
BRANCH   1  11
ATOM     11  C   UNL d   1      53.670  32.300  53.329  0.00  0.00     0.000 A 
ATOM     12  C   UNL d   1      54.068  31.790  53.804  0.00  0.00     0.002 A 
ATOM     13  C   UNL d   1      53.838  31.020  53.887  0.00  0.00     0.018 A 
ATOM     14  C   UNL d   1      53.175  30.763  53.468  0.00  0.00     0.064 A 
ATOM     15  C   UNL d   1      52.760  31.285  52.976  0.00  0.00     0.018 A 
ATOM     16  C   UNL d   1      53.007  32.051  52.906  0.00  0.00     0.002 A 
BRANCH  14  17
ATOM     17  N   UNL d   1      52.933  29.975  53.549  0.00  0.00    -0.301 N 
ATOM     18  C   UNL d   1      52.307  29.697  53.106  0.00  0.00     0.100 C 
ATOM     19  C   UNL d   1      53.340  29.488  54.083  0.00  0.00     0.100 C 
ENDBRANCH  14  17
ENDBRANCH   1  11
TORSDOF 3
ENDMDL
MODEL 2
REMARK VINA RESULT:      -8.4      1.781      3.961
REMARK  3 active torsions:
REMARK  status: ('A' for Active; 'I' for Inactive)
REMARK    1  A    between atoms: C_7  and  C_1 
REMARK    2  A    between atoms: C_13  and  C_7 
REMARK    3  A    between atoms: N_12  and  C_11 
ROOT
ATOM      1  C   UNL d   1      53.005  31.197  52.759  0.00  0.00     0.010 C 
ENDROOT
BRANCH   1   2
ATOM      2  C   UNL d   1      53.045  30.554  53.237  0.00  0.00     0.116 A 
ATOM      3  C   UNL d   1      53.773  30.230  53.448  0.00  0.00     0.288 A 
ATOM      4  N   UNL d   1      53.826  29.571  53.936  0.00  0.00    -0.152 NA
ATOM      5  O   UNL d   1      54.467  30.577  53.161  0.00  0.00    -0.265 OA
ATOM      6  C   UNL d   1      53.143  29.230  54.218  0.00  0.00     0.374 A 
ATOM      7  N   UNL d   1      52.406  29.532  54.024  0.00  0.00    -0.152 NA
ATOM      8  O   UNL d   1      53.202  28.557  54.717  0.00  0.00    -0.242 OA
ATOM      9  C   UNL d   1      52.363  30.191  53.535  0.00  0.00     0.288 A 
ATOM     10  O   UNL d   1      51.617  30.503  53.333  0.00  0.00    -0.265 OA
ENDBRANCH   1   2
BRANCH   1  11
ATOM     11  C   UNL d   1      52.993  31.957  53.087  0.00  0.00     0.000 A 
ATOM     12  C   UNL d   1      53.642  32.244  53.462  0.00  0.00     0.002 A 
ATOM     13  C   UNL d   1      53.652  32.983  53.790  0.00  0.00     0.018 A 
ATOM     14  C   UNL d   1      52.969  33.445  53.730  0.00  0.00     0.064 A 
ATOM     15  C   UNL d   1      52.296  33.154  53.344  0.00  0.00     0.018 A 
ATOM     16  C   UNL d   1      52.308  32.412  53.023  0.00  0.00     0.002 A 
BRANCH  14  17
ATOM     17  N   UNL d   1      52.972  34.203  54.063  0.00  0.00    -0.301 N 
ATOM     18  C   UNL d   1      52.648  34.826  53.649  0.00  0.00     0.100 C 
ATOM     19  C   UNL d   1      53.308  34.305  54.814  0.00  0.00     0.100 C 
ENDBRANCH  14  17
ENDBRANCH   1  11
TORSDOF 3
ENDMDL
MODEL 3
REMARK VINA RESULT:      -7.8      2.031      3.248
REMARK  3 active torsions:
REMARK  status: ('A' for Active; 'I' for Inactive)
REMARK    1  A    between atoms: C_7  and  C_1 
REMARK    2  A    between atoms: C_13  and  C_7 
REMARK    3  A    between atoms: N_12  and  C_11 
ROOT
ATOM      1  C   UNL d   1      53.023  33.149  52.888  0.00  0.00     0.010 C 
ENDROOT
BRANCH   1   2
ATOM      2  C   UNL d   1      53.382  33.080  53.602  0.00  0.00     0.116 A 
ATOM      3  C   UNL d   1      53.429  32.350  53.982  0.00  0.00     0.288 A 
ATOM      4  N   UNL d   1      53.795  32.268  54.713  0.00  0.00    -0.152 NA
ATOM      5  O   UNL d   1      53.101  31.684  53.617  0.00  0.00    -0.265 OA
ATOM      6  C   UNL d   1      54.118  32.923  55.072  0.00  0.00     0.374 A 
ATOM      7  N   UNL d   1      54.085  33.661  54.716  0.00  0.00    -0.152 NA
ATOM      8  O   UNL d   1      54.490  32.834  55.819  0.00  0.00    -0.242 OA
ATOM      9  C   UNL d   1      53.718  33.734  53.985  0.00  0.00     0.288 A 
ATOM     10  O   UNL d   1      53.681  34.481  53.618  0.00  0.00    -0.265 OA
ENDBRANCH   1   2
BRANCH   1  11
ATOM     11  C   UNL d   1      52.266  33.478  52.834  0.00  0.00     0.000 A 
ATOM     12  C   UNL d   1      51.652  33.140  53.224  0.00  0.00     0.002 A 
ATOM     13  C   UNL d   1      50.904  33.444  53.186  0.00  0.00     0.018 A 
ATOM     14  C   UNL d   1      50.783  34.122  52.729  0.00  0.00     0.064 A 
ATOM     15  C   UNL d   1      51.413  34.476  52.325  0.00  0.00     0.018 A 
ATOM     16  C   UNL d   1      52.153  34.155  52.377  0.00  0.00     0.002 A 
BRANCH  14  17
ATOM     17  N   UNL d   1      50.019  34.440  52.685  0.00  0.00    -0.301 N 
ATOM     18  C   UNL d   1      49.720  34.861  53.317  0.00  0.00     0.100 C 
ATOM     19  C   UNL d   1      49.578  34.319  51.994  0.00  0.00     0.100 C 
ENDBRANCH  14  17
ENDBRANCH   1  11
TORSDOF 3
ENDMDL
