MODEL 1
REMARK VINA RESULT:      65.7      0.000      0.000
REMARK  5 active torsions:
REMARK  status: ('A' for Active; 'I' for Inactive)
REMARK    1  A    between atoms: C_5  and  C_1 
REMARK    2  A    between atoms: C_4  and  C_9 
REMARK    3  A    between atoms: N_7  and  C_5 
REMARK    4  A    between atoms: C_10  and  C_5 
REMARK    5  A    between atoms: C_12  and  N_7 
ROOT
ATOM      1  C   UNL d   1      13.811  13.815  -2.191  0.00  0.00     0.086 C 
ENDROOT
BRANCH   1   2
ATOM      2  C   UNL d   1      13.557  13.308  -2.790  0.00  0.00     0.058 A 
ATOM      3  C   UNL d   1      13.832  13.414  -3.562  0.00  0.00     0.214 A 
ATOM      4  C   UNL d   1      13.572  12.901  -4.160  0.00  0.00     0.120 A 
ATOM      5  O   UNL d   1      14.351  14.011  -3.746  0.00  0.00    -0.285 OA
ATOM      6  N   UNL d   1      13.842  12.999  -4.938  0.00  0.00    -0.242 NA
ATOM      7  C   UNL d   1      13.045  12.292  -3.985  0.00  0.00     0.021 A 
ATOM      8  C   UNL d   1      13.588  12.492  -5.534  0.00  0.00     0.082 A 
ATOM      9  C   UNL d   1      13.857  12.591  -6.308  0.00  0.00     0.021 C 
ATOM     10  C   UNL d   1      13.056  11.877  -5.357  0.00  0.00     0.019 A 
ATOM     11  C   UNL d   1      12.785  11.780  -4.575  0.00  0.00     0.003 A 
ATOM     12  C   UNL d   1      12.770  12.186  -3.209  0.00  0.00     0.002 A 
ATOM     13  C   UNL d   1      13.025  12.693  -2.613  0.00  0.00     0.005 A 
ENDBRANCH   1   2
BRANCH   1  14
ATOM     14  N   UNL d   1      13.580  13.569  -1.437  0.00  0.00    -0.245 NA
BRANCH  14  15
ATOM     15  C   UNL d   1      13.983  12.981  -1.052  0.00  0.00     0.081 A 
ATOM     16  C   UNL d   1      14.741  12.787  -1.278  0.00  0.00     0.023 A 
ATOM     17  C   UNL d   1      15.157  12.185  -0.885  0.00  0.00     0.073 A 
ATOM     18  C   UNL d   1      14.792  11.781  -0.257  0.00  0.00     0.004 A 
ATOM     19  C   UNL d   1      14.027  11.981  -0.032  0.00  0.00     0.002 A 
ATOM     20  C   UNL d   1      13.628  12.580  -0.432  0.00  0.00     0.019 A 
BRANCH  17  21
ATOM     21  C   UNL d   1      15.921  11.995  -1.120  0.00  0.00     0.419 C 
ATOM     22  F   UNL d   1      16.624  11.824  -1.324  0.00  0.00    -0.166 F 
ATOM     23  F   UNL d   1      16.632  11.963  -0.643  0.00  0.00    -0.166 F 
ATOM     24  F   UNL d   1      16.217  11.781  -1.892  0.00  0.00    -0.166 F 
ENDBRANCH  17  21
ENDBRANCH  14  15
ENDBRANCH   1  14
BRANCH   1  25
ATOM     25  C   UNL d   1      14.244  14.514  -2.170  0.00  0.00     0.037 A 
ATOM     26  C   UNL d   1      14.212  15.038  -2.815  0.00  0.00     0.100 A 
ATOM     27  N   UNL d   1      14.652  15.738  -2.782  0.00  0.00    -0.242 NA
ATOM     28  C   UNL d   1      15.108  15.913  -2.135  0.00  0.00     0.099 A 
ATOM     29  C   UNL d   1      15.139  15.395  -1.499  0.00  0.00     0.021 A 
ATOM     30  C   UNL d   1      14.710  14.696  -1.513  0.00  0.00     0.005 A 
ENDBRANCH   1  25
TORSDOF 5
ENDMDL
MODEL 2
REMARK VINA RESULT:      66.1      2.249      4.215
REMARK  5 active torsions:
REMARK  status: ('A' for Active; 'I' for Inactive)
REMARK    1  A    between atoms: C_5  and  C_1 
REMARK    2  A    between atoms: C_4  and  C_9 
REMARK    3  A    between atoms: N_7  and  C_5 
REMARK    4  A    between atoms: C_10  and  C_5 
REMARK    5  A    between atoms: C_12  and  N_7 
ROOT
ATOM      1  C   UNL d   1      13.704  14.736  -3.799  0.00  0.00     0.086 C 
ENDROOT
BRANCH   1   2
ATOM      2  C   UNL d   1      14.059  14.813  -3.058  0.00  0.00     0.058 A 
ATOM      3  C   UNL d   1      14.179  15.565  -2.735  0.00  0.00     0.214 A 
ATOM      4  C   UNL d   1      14.536  15.635  -1.991  0.00  0.00     0.120 A 
ATOM      5  O   UNL d   1      13.953  16.235  -3.135  0.00  0.00    -0.285 OA
ATOM      6  N   UNL d   1      14.661  16.385  -1.658  0.00  0.00    -0.242 NA
ATOM      7  C   UNL d   1      14.769  14.962  -1.577  0.00  0.00     0.021 A 
ATOM      8  C   UNL d   1      15.015  16.460  -0.920  0.00  0.00     0.082 A 
ATOM      9  C   UNL d   1      15.139  17.207  -0.591  0.00  0.00     0.021 C 
ATOM     10  C   UNL d   1      15.251  15.780  -0.502  0.00  0.00     0.019 A 
ATOM     11  C   UNL d   1      15.125  15.028  -0.836  0.00  0.00     0.003 A 
ATOM     12  C   UNL d   1      14.649  14.208  -1.901  0.00  0.00     0.002 A 
ATOM     13  C   UNL d   1      14.294  14.134  -2.640  0.00  0.00     0.005 A 
ENDBRANCH   1   2
BRANCH   1  14
ATOM     14  N   UNL d   1      13.072  14.206  -3.802  0.00  0.00    -0.245 NA
BRANCH  14  15
ATOM     15  C   UNL d   1      13.194  13.417  -3.940  0.00  0.00     0.081 A 
ATOM     16  C   UNL d   1      13.239  13.135  -4.703  0.00  0.00     0.023 A 
ATOM     17  C   UNL d   1      13.364  12.327  -4.847  0.00  0.00     0.073 A 
ATOM     18  C   UNL d   1      13.443  11.805  -4.205  0.00  0.00     0.004 A 
ATOM     19  C   UNL d   1      13.396  12.094  -3.437  0.00  0.00     0.002 A 
ATOM     20  C   UNL d   1      13.272  12.899  -3.310  0.00  0.00     0.019 A 
BRANCH  17  21
ATOM     21  C   UNL d   1      13.408  12.052  -5.621  0.00  0.00     0.419 C 
ATOM     22  F   UNL d   1      13.438  11.801  -6.328  0.00  0.00    -0.166 F 
ATOM     23  F   UNL d   1      12.769  11.907  -6.171  0.00  0.00    -0.166 F 
ATOM     24  F   UNL d   1      14.093  11.838  -6.085  0.00  0.00    -0.166 F 
ENDBRANCH  17  21
ENDBRANCH  14  15
ENDBRANCH   1  14
BRANCH   1  25
ATOM     25  C   UNL d   1      13.834  15.069  -4.540  0.00  0.00     0.037 A 
ATOM     26  C   UNL d   1      13.251  15.549  -4.885  0.00  0.00     0.100 A 
ATOM     27  N   UNL d   1      13.393  15.878  -5.631  0.00  0.00    -0.242 NA
ATOM     28  C   UNL d   1      14.089  15.735  -6.021  0.00  0.00     0.099 A 
ATOM     29  C   UNL d   1      14.665  15.261  -5.680  0.00  0.00     0.021 A 
ATOM     30  C   UNL d   1      14.542  14.926  -4.941  0.00  0.00     0.005 A 
ENDBRANCH   1  25
TORSDOF 5
ENDMDL
