MODEL 1
REMARK VINA RESULT:      72.9      0.000      0.000
REMARK  3 active torsions:
REMARK  status: ('A' for Active; 'I' for Inactive)
REMARK    1  A    between atoms: C_8  and  N_1 
REMARK    2  A    between atoms: C_9  and  C_14 
REMARK       I    between atoms: N_10  and  C_9 
REMARK    3  A    between atoms: C_16  and  N_12 
ROOT
ATOM      1  C   UNL d   1      45.206 -16.339  44.487  0.00  0.00     0.066 A 
ATOM      2  C   UNL d   1      45.520 -17.726  44.347  0.00  0.00     0.058 A 
ATOM      3  C   UNL d   1      45.717 -16.931  44.240  0.00  0.00     0.022 A 
ATOM      4  C   UNL d   1      44.484 -16.535  44.847  0.00  0.00     0.017 A 
ATOM      5  C   UNL d   1      44.798 -17.922  44.707  0.00  0.00     0.005 A 
ATOM      6  C   UNL d   1      44.286 -17.326  44.955  0.00  0.00     0.002 A 
ENDROOT
BRANCH   1   7
ATOM      7  N   UNL d   1      45.404 -15.548  44.380  0.00  0.00    -0.261 N 
ATOM      8  C   UNL d   1      44.795 -15.112  44.038  0.00  0.00     0.174 A 
ATOM      9  O   UNL d   1      44.699 -14.317  43.814  0.00  0.00    -0.316 OA
ATOM     10  C   UNL d   1      45.941 -14.766  44.409  0.00  0.00     0.079 A 
ATOM     11  C   UNL d   1      44.065 -15.421  43.822  0.00  0.00     0.055 C 
ATOM     12  C   UNL d   1      45.168 -13.641  43.840  0.00  0.00     0.094 A 
ATOM     13  C   UNL d   1      44.706 -13.031  43.514  0.00  0.00     0.024 A 
ATOM     14  C   UNL d   1      45.934 -13.471  44.102  0.00  0.00     0.022 A 
ATOM     15  C   UNL d   1      45.010 -12.266  43.455  0.00  0.00     0.002 A 
ATOM     16  C   UNL d   1      45.776 -12.104  43.719  0.00  0.00    -0.000 A 
ATOM     17  C   UNL d   1      46.238 -12.706  44.043  0.00  0.00    -0.001 A 
ATOM     18  C   UNL d   1      46.543 -13.906  44.445  0.00  0.00     0.137 A 
ATOM     19  N   UNL d   1      46.647 -14.703  44.672  0.00  0.00    -0.216 NA
ATOM     20  C   UNL d   1      46.178 -15.380  44.646  0.00  0.00     0.348 A 
ATOM     21  O   UNL d   1      46.563 -16.038  44.953  0.00  0.00    -0.245 OA
ENDBRANCH   1   7
BRANCH   2  22
ATOM     22  C   UNL d   1      46.039 -18.317  44.096  0.00  0.00     0.265 C 
ATOM     23  N   UNL d   1      46.076 -18.521  43.300  0.00  0.00    -0.269 N 
ATOM     24  C   UNL d   1      45.598 -18.140  42.744  0.00  0.00     0.102 A 
ATOM     25  C   UNL d   1      46.599 -19.116  43.050  0.00  0.00     0.102 A 
ATOM     26  C   UNL d   1      45.641 -18.350  41.950  0.00  0.00     0.100 A 
ATOM     27  N   UNL d   1      46.163 -18.944  41.701  0.00  0.00    -0.299 N 
ATOM     28  C   UNL d   1      46.641 -19.324  42.256  0.00  0.00     0.100 A 
ATOM     29  O   UNL d   1      46.521 -18.702  44.650  0.00  0.00    -0.267 OA
BRANCH  27  30
ATOM     30  C   UNL d   1      46.202 -19.150  40.905  0.00  0.00     0.092 A 
ATOM     31  C   UNL d   1      45.849 -18.666  40.340  0.00  0.00     0.156 A 
ATOM     32  F   UNL d   1      45.458 -17.977  40.576  0.00  0.00    -0.203 F 
ATOM     33  C   UNL d   1      45.885 -18.869  39.536  0.00  0.00     0.031 A 
ATOM     34  C   UNL d   1      46.281 -19.564  39.310  0.00  0.00     0.002 A 
ATOM     35  C   UNL d   1      46.635 -20.047  39.884  0.00  0.00     0.002 A 
ATOM     36  C   UNL d   1      46.593 -19.837  40.679  0.00  0.00     0.020 A 
ENDBRANCH  27  30
ENDBRANCH   2  22
TORSDOF 3
ENDMDL
