MODEL 1
REMARK VINA RESULT:      16.0      0.000      0.000
REMARK  3 active torsions:
REMARK  status: ('A' for Active; 'I' for Inactive)
REMARK       I    between atoms: N_2  and  C_1 
REMARK    1  A    between atoms: C_3  and  C_1 
REMARK    2  A    between atoms: C_6  and  N_2 
REMARK    3  A    between atoms: C_5  and  C_4 
ROOT
ATOM      1  C   UNL d   1      13.927  12.135  -2.474  0.00  0.00     0.279 C 
ATOM      2  N   UNL d   1      13.265  12.484  -2.831  0.00  0.00    -0.207 NA
ATOM      3  O   UNL d   1      14.508  11.785  -2.941  0.00  0.00    -0.265 OA
ENDROOT
BRANCH   1   4
ATOM      4  C   UNL d   1      14.000  12.141  -1.652  0.00  0.00     0.064 A 
ATOM      5  C   UNL d   1      14.653  12.495  -1.303  0.00  0.00     0.069 A 
ATOM      6  C   UNL d   1      14.738  12.507  -0.478  0.00  0.00     0.006 A 
ATOM      7  C   UNL d   1      14.150  12.156  -0.017  0.00  0.00     0.000 A 
ATOM      8  C   UNL d   1      13.497  11.802  -0.365  0.00  0.00     0.000 A 
ATOM      9  C   UNL d   1      13.421  11.794  -1.181  0.00  0.00     0.005 A 
BRANCH   5  10
ATOM     10  C   UNL d   1      15.237  12.845  -1.775  0.00  0.00     0.211 C 
ATOM     11  O   UNL d   1      15.179  13.646  -1.982  0.00  0.00    -0.644 OA
ATOM     12  O   UNL d   1      15.876  12.394  -2.038  0.00  0.00    -0.644 OA
ENDBRANCH   5  10
ENDBRANCH   1   4
BRANCH   2  13
ATOM     13  C   UNL d   1      13.187  12.481  -3.653  0.00  0.00     0.095 A 
ATOM     14  C   UNL d   1      12.953  13.162  -4.048  0.00  0.00     0.075 A 
ATOM     15 CL   UNL d   1      12.795  13.850  -3.623  0.00  0.00    -0.081 Cl
ATOM     16  C   UNL d   1      12.876  13.158  -4.864  0.00  0.00     0.013 A 
ATOM     17  C   UNL d   1      13.034  12.467  -5.295  0.00  0.00     0.001 A 
ATOM     18  C   UNL d   1      13.269  11.784  -4.895  0.00  0.00     0.002 A 
ATOM     19  C   UNL d   1      13.346  11.792  -4.072  0.00  0.00     0.020 A 
ENDBRANCH   2  13
TORSDOF 3
ENDMDL
