MODEL 1
REMARK VINA RESULT:     351.2      0.000      0.000
REMARK  9 active torsions:
REMARK  status: ('A' for Active; 'I' for Inactive)
REMARK    1  A    between atoms: N_7  and  N_1 
REMARK    2  A    between atoms: S_9  and  C_2 
REMARK       I    between atoms: C_8  and  N_7 
REMARK    3  A    between atoms: C_15  and  C_8 
REMARK    4  A    between atoms: C_14  and  S_9 
REMARK    5  A    between atoms: C_11  and  C_14 
REMARK       I    between atoms: N_16  and  C_11 
REMARK    6  A    between atoms: C_18  and  C_15 
REMARK    7  A    between atoms: C_19  and  N_16 
REMARK    8  A    between atoms: C_22  and  C_19 
REMARK    9  A    between atoms: C_21  and  C_22 
ROOT
ATOM      1  N   UNL d   1     -57.104-101.139 -42.648  0.00  0.00    -0.168 N 
ATOM      2  C   UNL d   1     -57.034-101.138 -41.834  0.00  0.00     0.199 A 
ATOM      3  C   UNL d   1     -57.708-101.573 -43.009  0.00  0.00     0.283 A 
ATOM      4  N   UNL d   1     -57.570-101.574 -41.351  0.00  0.00    -0.221 NA
ATOM      5  C   UNL d   1     -58.250-102.014 -42.530  0.00  0.00     0.076 A 
ATOM      6  C   UNL d   1     -58.179-102.012 -41.708  0.00  0.00     0.088 A 
ATOM      7  O   UNL d   1     -57.784-101.578 -43.833  0.00  0.00    -0.265 OA
ATOM      8  C   UNL d   1     -58.854-102.447 -42.906  0.00  0.00     0.006 A 
ATOM      9  C   UNL d   1     -58.711-102.444 -41.251  0.00  0.00     0.019 A 
ATOM     10  C   UNL d   1     -59.384-102.878 -42.431  0.00  0.00     0.000 A 
ATOM     11  C   UNL d   1     -59.313-102.876 -41.609  0.00  0.00     0.002 A 
ENDROOT
BRANCH   2  12
ATOM     12  S   UNL d   1     -56.438-100.710 -41.473  0.00  0.00    -0.043 SA
BRANCH  12  13
ATOM     13  C   UNL d   1     -56.326-100.761 -40.654  0.00  0.00     0.101 C 
BRANCH  13  14
ATOM     14  C   UNL d   1     -56.947-100.582 -40.144  0.00  0.00     0.286 C 
ATOM     15  O   UNL d   1     -57.378 -99.883 -40.251  0.00  0.00    -0.265 OA
ATOM     16  N   UNL d   1     -57.141-101.092 -39.528  0.00  0.00    -0.206 NA
BRANCH  16  17
ATOM     17  C   UNL d   1     -57.763-100.912 -39.018  0.00  0.00     0.102 C 
BRANCH  17  18
ATOM     18  C   UNL d   1     -57.630-100.461 -38.342  0.00  0.00     0.021 C 
BRANCH  18  19
ATOM     19  C   UNL d   1     -56.984-100.617 -37.860  0.00  0.00     0.002 A 
ATOM     20  C   UNL d   1     -56.656-101.377 -37.844  0.00  0.00     0.000 A 
ATOM     21  C   UNL d   1     -56.002-101.531 -37.354  0.00  0.00     0.000 A 
ATOM     22  C   UNL d   1     -55.680-100.932 -36.887  0.00  0.00     0.000 A 
ATOM     23  C   UNL d   1     -56.016-100.170 -36.909  0.00  0.00     0.000 A 
ATOM     24  C   UNL d   1     -56.662-100.019 -37.393  0.00  0.00     0.000 A 
ENDBRANCH  18  19
ENDBRANCH  17  18
ENDBRANCH  16  17
ENDBRANCH  13  14
ENDBRANCH  12  13
ENDBRANCH   2  12
BRANCH   1  25
ATOM     25  N   UNL d   1     -56.579-100.713 -43.105  0.00  0.00    -0.119 NA
ATOM     26  C   UNL d   1     -56.768 -99.949 -43.348  0.00  0.00     0.296 C 
ATOM     27  O   UNL d   1     -57.487 -99.604 -43.136  0.00  0.00    -0.264 OA
BRANCH  26  28
ATOM     28  C   UNL d   1     -56.231 -99.521 -43.812  0.00  0.00     0.064 C 
BRANCH  28  29
ATOM     29  C   UNL d   1     -56.350 -99.459 -44.620  0.00  0.00     0.005 A 
ATOM     30  C   UNL d   1     -57.067 -99.683 -44.947  0.00  0.00     0.000 A 
ATOM     31  C   UNL d   1     -57.190 -99.622 -45.761  0.00  0.00     0.000 A 
ATOM     32  C   UNL d   1     -56.583 -99.332 -46.245  0.00  0.00     0.000 A 
ATOM     33  C   UNL d   1     -55.866 -99.107 -45.918  0.00  0.00     0.000 A 
ATOM     34  C   UNL d   1     -55.744 -99.169 -45.107  0.00  0.00     0.000 A 
ENDBRANCH  28  29
ENDBRANCH  26  28
ENDBRANCH   1  25
TORSDOF 9
ENDMDL
