MODEL 1
REMARK VINA RESULT:      29.6      0.000      0.000
REMARK  6 active torsions:
REMARK  status: ('A' for Active; 'I' for Inactive)
REMARK    1  A    between atoms: N_2  and  S_1 
REMARK    2  A    between atoms: N_3  and  S_1 
REMARK    3  A    between atoms: C_9  and  N_3 
REMARK    4  A    between atoms: C_4  and  C_7 
REMARK    5  A    between atoms: O_12  and  C_4 
REMARK    6  A    between atoms: C_17  and  O_12 
ROOT
ATOM      1  C   UNL d   1      13.182  12.860  -4.479  0.00  0.00     0.064 A 
ATOM      2  C   UNL d   1      13.219  12.141  -2.988  0.00  0.00     0.095 A 
ATOM      3  C   UNL d   1      12.786  13.216  -3.838  0.00  0.00     0.007 A 
ATOM      4  C   UNL d   1      13.605  12.145  -4.387  0.00  0.00     0.007 A 
ATOM      5  C   UNL d   1      13.622  11.786  -3.628  0.00  0.00     0.020 A 
ATOM      6  C   UNL d   1      12.802  12.855  -3.093  0.00  0.00     0.020 A 
ENDROOT
BRANCH   2   7
ATOM      7  N   UNL d   1      13.246  11.779  -2.229  0.00  0.00    -0.144 NA
BRANCH   7   8
ATOM      8  S   UNL d   1      13.755  12.069  -1.649  0.00  0.00     0.351 S 
ATOM      9  O   UNL d   1      14.315  12.091  -2.251  0.00  0.00    -0.180 OA
ATOM     10  O   UNL d   1      13.194  12.047  -1.045  0.00  0.00    -0.180 OA
BRANCH   8  11
ATOM     11  N   UNL d   1      14.313  12.362  -1.119  0.00  0.00    -0.215 N 
ATOM     12  C   UNL d   1      14.229  13.161  -0.918  0.00  0.00     0.093 C 
ATOM     13  C   UNL d   1      14.677  13.603  -0.387  0.00  0.00     0.020 C 
ATOM     14  C   UNL d   1      15.382  13.390  -0.014  0.00  0.00     0.002 C 
ATOM     15  C   UNL d   1      15.810  12.689  -0.078  0.00  0.00     0.002 C 
ATOM     16  C   UNL d   1      15.635  12.028  -0.533  0.00  0.00     0.020 C 
ATOM     17  C   UNL d   1      14.990  11.899  -1.040  0.00  0.00     0.093 C 
ENDBRANCH   8  11
ENDBRANCH   7   8
ENDBRANCH   2   7
BRANCH   1  18
ATOM     18  C   UNL d   1      13.145  13.220  -5.226  0.00  0.00     0.300 C 
ATOM     19  O   UNL d   1      13.073  12.748  -5.899  0.00  0.00    -0.259 OA
BRANCH  18  20
ATOM     20  O   UNL d   1      13.180  14.039  -5.289  0.00  0.00    -0.271 OA
BRANCH  20  21
ATOM     21  C   UNL d   1      13.817  14.405  -5.665  0.00  0.00     0.126 C 
ATOM     22  C   UNL d   1      14.002  15.191  -5.506  0.00  0.00     0.029 C 
ENDBRANCH  20  21
ENDBRANCH  18  20
ENDBRANCH   1  18
TORSDOF 6
ENDMDL
