MODEL 1
REMARK VINA RESULT:      -4.3      0.000      0.000
REMARK  4 active torsions:
REMARK  status: ('A' for Active; 'I' for Inactive)
REMARK    1  A    between atoms: C_5  and  N_1 
REMARK    2  A    between atoms: C_6  and  C_5 
REMARK       I    between atoms: N_9  and  C_6 
REMARK    3  A    between atoms: C_13  and  N_9 
REMARK    4  A    between atoms: O_19  and  C_14 
ROOT
ATOM      1  C   UNL d   1      58.267  -0.056  30.239  0.00  0.00     0.297 C 
ATOM      2  N   UNL d   1      57.449  -0.052  30.345  0.00  0.00    -0.207 NA
ATOM      3  O   UNL d   1      58.768  -0.049  30.895  0.00  0.00    -0.264 OA
ENDROOT
BRANCH   1   4
ATOM      4  C   UNL d   1      58.584  -0.066  29.482  0.00  0.00     0.148 C 
BRANCH   4   5
ATOM      5  N   UNL d   1      59.291  -0.465  29.334  0.00  0.00    -0.235 N 
ATOM      6  C   UNL d   1      59.272  -1.243  29.036  0.00  0.00     0.273 A 
ATOM      7  C   UNL d   1      59.978  -1.642  28.888  0.00  0.00     0.086 A 
ATOM      8  O   UNL d   1      58.541  -1.610  28.890  0.00  0.00    -0.266 OA
ATOM      9  C   UNL d   1      59.967  -2.415  28.592  0.00  0.00     0.012 C 
ATOM     10  S   UNL d   1      60.706  -1.264  29.039  0.00  0.00    -0.077 SA
ATOM     11  C   UNL d   1      60.716  -0.500  29.331  0.00  0.00     0.097 A 
ATOM     12  C   UNL d   1      60.009  -0.101  29.479  0.00  0.00     0.274 A 
ATOM     13  O   UNL d   1      60.021   0.682  29.778  0.00  0.00    -0.266 OA
ENDBRANCH   4   5
ENDBRANCH   1   4
BRANCH   2  14
ATOM     14  C   UNL d   1      57.133  -0.042  31.107  0.00  0.00     0.085 A 
ATOM     15  C   UNL d   1      56.949  -0.744  31.481  0.00  0.00     0.021 A 
ATOM     16  C   UNL d   1      56.638  -0.744  32.229  0.00  0.00     0.026 A 
ATOM     17  C   UNL d   1      56.504  -0.020  32.620  0.00  0.00     0.094 A 
ATOM     18  C   UNL d   1      56.687   0.682  32.246  0.00  0.00     0.026 A 
ATOM     19  C   UNL d   1      57.007   0.667  31.476  0.00  0.00     0.021 A 
BRANCH  17  20
ATOM     20  O   UNL d   1      56.183  -0.020  33.393  0.00  0.00    -0.328 OA
ATOM     21  C   UNL d   1      55.367  -0.050  33.509  0.00  0.00     0.181 C 
ENDBRANCH  17  20
ENDBRANCH   2  14
TORSDOF 4
ENDMDL
MODEL 2
REMARK VINA RESULT:      -2.3      1.744      4.361
REMARK  4 active torsions:
REMARK  status: ('A' for Active; 'I' for Inactive)
REMARK    1  A    between atoms: C_5  and  N_1 
REMARK    2  A    between atoms: C_6  and  C_5 
REMARK       I    between atoms: N_9  and  C_6 
REMARK    3  A    between atoms: C_13  and  N_9 
REMARK    4  A    between atoms: O_19  and  C_14 
ROOT
ATOM      1  C   UNL d   1      58.003  -0.078  30.657  0.00  0.00     0.297 C 
ATOM      2  N   UNL d   1      58.404  -0.028  29.937  0.00  0.00    -0.207 NA
ATOM      3  O   UNL d   1      57.905  -0.811  31.023  0.00  0.00    -0.264 OA
ENDROOT
BRANCH   1   4
ATOM      4  C   UNL d   1      57.701   0.600  31.008  0.00  0.00     0.148 C 
BRANCH   4   5
ATOM      5  N   UNL d   1      57.463   0.585  31.798  0.00  0.00    -0.235 N 
ATOM      6  C   UNL d   1      56.652   0.530  31.983  0.00  0.00     0.273 A 
ATOM      7  C   UNL d   1      56.413   0.515  32.773  0.00  0.00     0.086 A 
ATOM      8  O   UNL d   1      56.091   0.489  31.372  0.00  0.00    -0.266 OA
ATOM      9  C   UNL d   1      55.610   0.460  32.965  0.00  0.00     0.012 C 
ATOM     10  S   UNL d   1      56.985   0.557  33.378  0.00  0.00    -0.077 SA
ATOM     11  C   UNL d   1      57.779   0.612  33.187  0.00  0.00     0.097 A 
ATOM     12  C   UNL d   1      58.017   0.626  32.397  0.00  0.00     0.274 A 
ATOM     13  O   UNL d   1      58.830   0.682  32.203  0.00  0.00    -0.266 OA
ENDBRANCH   4   5
ENDBRANCH   1   4
BRANCH   2  14
ATOM     14  C   UNL d   1      58.707  -0.710  29.586  0.00  0.00     0.085 A 
ATOM     15  C   UNL d   1      59.505  -0.767  29.427  0.00  0.00     0.021 A 
ATOM     16  C   UNL d   1      59.811  -1.433  29.082  0.00  0.00     0.026 A 
ATOM     17  C   UNL d   1      59.305  -2.067  28.888  0.00  0.00     0.094 A 
ATOM     18  C   UNL d   1      58.507  -2.010  29.047  0.00  0.00     0.026 A 
ATOM     19  C   UNL d   1      58.206  -1.319  29.402  0.00  0.00     0.021 A 
BRANCH  17  20
ATOM     20  O   UNL d   1      59.622  -2.755  28.532  0.00  0.00    -0.328 OA
ATOM     21  C   UNL d   1      59.839  -3.405  28.991  0.00  0.00     0.181 C 
ENDBRANCH  17  20
ENDBRANCH   2  14
TORSDOF 4
ENDMDL
MODEL 3
REMARK VINA RESULT:      -2.2      2.266      4.853
REMARK  4 active torsions:
REMARK  status: ('A' for Active; 'I' for Inactive)
REMARK    1  A    between atoms: C_5  and  N_1 
REMARK    2  A    between atoms: C_6  and  C_5 
REMARK       I    between atoms: N_9  and  C_6 
REMARK    3  A    between atoms: C_13  and  N_9 
REMARK    4  A    between atoms: O_19  and  C_14 
ROOT
ATOM      1  C   UNL d   1      57.106  -0.466  32.258  0.00  0.00     0.297 C 
ATOM      2  N   UNL d   1      57.048  -0.809  31.511  0.00  0.00    -0.207 NA
ATOM      3  O   UNL d   1      57.575   0.204  32.369  0.00  0.00    -0.264 OA
ENDROOT
BRANCH   1   4
ATOM      4  C   UNL d   1      56.698  -0.789  32.893  0.00  0.00     0.148 C 
BRANCH   4   5
ATOM      5  N   UNL d   1      56.282  -0.299  33.411  0.00  0.00    -0.235 N 
ATOM      6  C   UNL d   1      55.450  -0.262  33.366  0.00  0.00     0.273 A 
ATOM      7  C   UNL d   1      55.035   0.227  33.883  0.00  0.00     0.086 A 
ATOM      8  O   UNL d   1      55.048  -0.718  32.801  0.00  0.00    -0.266 OA
ATOM      9  C   UNL d   1      54.209   0.269  33.845  0.00  0.00     0.012 C 
ATOM     10  S   UNL d   1      55.450   0.681  34.446  0.00  0.00    -0.077 SA
ATOM     11  C   UNL d   1      56.266   0.638  34.484  0.00  0.00     0.097 A 
ATOM     12  C   UNL d   1      56.682   0.149  33.966  0.00  0.00     0.274 A 
ATOM     13  O   UNL d   1      57.518   0.106  34.005  0.00  0.00    -0.266 OA
ENDBRANCH   4   5
ENDBRANCH   1   4
BRANCH   2  14
ATOM     14  C   UNL d   1      57.459  -0.482  30.874  0.00  0.00     0.085 A 
ATOM     15  C   UNL d   1      57.943  -0.954  30.416  0.00  0.00     0.021 A 
ATOM     16  C   UNL d   1      58.350  -0.642  29.789  0.00  0.00     0.026 A 
ATOM     17  C   UNL d   1      58.275   0.169  29.611  0.00  0.00     0.094 A 
ATOM     18  C   UNL d   1      57.791   0.640  30.069  0.00  0.00     0.026 A 
ATOM     19  C   UNL d   1      57.378   0.306  30.710  0.00  0.00     0.021 A 
BRANCH  17  20
ATOM     20  O   UNL d   1      58.696   0.491  28.963  0.00  0.00    -0.328 OA
ATOM     21  C   UNL d   1      59.497   0.676  29.032  0.00  0.00     0.181 C 
ENDBRANCH  17  20
ENDBRANCH   2  14
TORSDOF 4
ENDMDL
