MODEL 1
REMARK VINA RESULT:      38.1      0.000      0.000
REMARK  3 active torsions:
REMARK  status: ('A' for Active; 'I' for Inactive)
REMARK    1  A    between atoms: C_7  and  C_1 
REMARK    2  A    between atoms: C_9  and  C_6 
REMARK    3  A    between atoms: O_13  and  C_7 
ROOT
ATOM      1  C   UNL d   1     -55.007-101.147 -37.707  0.00  0.00     0.097 A 
ATOM      2  C   UNL d   1     -54.861-100.854 -38.461  0.00  0.00     0.073 A 
ATOM      3  C   UNL d   1     -55.008-102.166 -39.001  0.00  0.00     0.206 A 
ATOM      4  N   UNL d   1     -54.861-101.357 -39.110  0.00  0.00    -0.280 N 
ATOM      5  N   UNL d   1     -55.154-102.460 -38.247  0.00  0.00    -0.218 NA
ATOM      6  C   UNL d   1     -55.155-101.951 -37.586  0.00  0.00     0.090 A 
ATOM      7  S   UNL d   1     -55.008-102.673 -39.652  0.00  0.00    -0.038 SA
ATOM      8  C   UNL d   1     -54.712-100.033 -38.566  0.00  0.00     0.019 C 
ATOM      9  C   UNL d   1     -54.714-101.062 -39.868  0.00  0.00     0.101 C 
ENDROOT
BRANCH   6  10
ATOM     10  C   UNL d   1     -55.302-102.248 -36.824  0.00  0.00     0.018 A 
ATOM     11  C   UNL d   1     -56.036-102.585 -36.653  0.00  0.00     0.002 A 
ATOM     12  C   UNL d   1     -56.182-102.878 -35.900  0.00  0.00     0.000 A 
ATOM     13  C   UNL d   1     -55.594-102.836 -35.316  0.00  0.00     0.000 A 
ATOM     14  C   UNL d   1     -54.867-102.498 -35.497  0.00  0.00     0.000 A 
ATOM     15  C   UNL d   1     -54.721-102.204 -36.251  0.00  0.00     0.002 A 
ENDBRANCH   6  10
BRANCH   1  16
ATOM     16  C   UNL d   1     -55.006-100.627 -37.042  0.00  0.00     0.299 C 
ATOM     17  O   UNL d   1     -55.062-100.935 -36.272  0.00  0.00    -0.259 OA
BRANCH  16  18
ATOM     18  O   UNL d   1     -54.950 -99.809 -37.169  0.00  0.00    -0.296 OA
ATOM     19  C   UNL d   1     -55.105 -99.278 -36.561  0.00  0.00     0.185 C 
ENDBRANCH  16  18
ENDBRANCH   1  16
TORSDOF 3
ENDMDL
