MODEL 1
REMARK VINA RESULT:      33.3      0.000      0.000
REMARK  4 active torsions:
REMARK  status: ('A' for Active; 'I' for Inactive)
REMARK    1  A    between atoms: N_2  and  C_1 
REMARK       I    between atoms: C_6  and  N_2 
REMARK    2  A    between atoms: C_16  and  N_3 
REMARK    3  A    between atoms: C_8  and  C_6 
REMARK    4  A    between atoms: O_19  and  C_12 
ROOT
ATOM      1  C   UNL d   1      14.058  14.083  -3.198  0.00  0.00    -0.031 C 
ATOM      2  C   UNL d   1      13.606  14.627  -3.643  0.00  0.00    -0.008 C 
ATOM      3  C   UNL d   1      14.508  13.545  -2.757  0.00  0.00     0.133 C 
ENDROOT
BRANCH   3   4
ATOM      4  N   UNL d   1      14.126  12.923  -2.343  0.00  0.00    -0.276 N 
ATOM      5  C   UNL d   1      13.583  12.375  -2.655  0.00  0.00     0.183 A 
ATOM      6  S   UNL d   1      13.355  11.876  -2.071  0.00  0.00    -0.048 SA
ATOM      7  C   UNL d   1      13.742  12.086  -1.368  0.00  0.00     0.050 A 
ATOM      8  C   UNL d   1      13.721  11.779  -0.618  0.00  0.00     0.008 A 
ATOM      9  C   UNL d   1      14.218  12.737  -1.550  0.00  0.00     0.095 A 
ATOM     10  C   UNL d   1      14.178  12.113  -0.014  0.00  0.00     0.003 A 
ATOM     11  C   UNL d   1      14.665  12.777  -0.196  0.00  0.00     0.026 A 
ATOM     12  C   UNL d   1      14.675  13.072  -0.950  0.00  0.00     0.111 A 
BRANCH   5  13
ATOM     13  N   UNL d   1      13.310  12.342  -3.459  0.00  0.00    -0.183 NA
ATOM     14  C   UNL d   1      13.808  12.058  -4.042  0.00  0.00     0.287 C 
ATOM     15  O   UNL d   1      14.574  11.803  -3.860  0.00  0.00    -0.265 OA
BRANCH  14  16
ATOM     16  C   UNL d   1      13.542  12.026  -4.822  0.00  0.00     0.087 A 
ATOM     17  S   UNL d   1      13.974  12.239  -5.511  0.00  0.00    -0.082 SA
ATOM     18  C   UNL d   1      13.497  12.121  -6.162  0.00  0.00     0.036 A 
ATOM     19  C   UNL d   1      12.772  11.837  -5.901  0.00  0.00     0.008 A 
ATOM     20  C   UNL d   1      12.800  11.779  -5.084  0.00  0.00     0.012 A 
ENDBRANCH  14  16
ENDBRANCH   5  13
BRANCH  12  21
ATOM     21  O   UNL d   1      15.164  13.735  -1.119  0.00  0.00    -0.327 OA
ATOM     22  C   UNL d   1      15.544  14.129  -0.499  0.00  0.00     0.181 C 
ENDBRANCH  12  21
ENDBRANCH   3   4
TORSDOF 4
ENDMDL
