MODEL 1
REMARK VINA RESULT:      -0.9      0.000      0.000
REMARK  10 active torsions:
REMARK  status: ('A' for Active; 'I' for Inactive)
REMARK    1  A    between atoms: C_7  and  C_1 
REMARK    2  A    between atoms: C_8  and  C_2 
REMARK    3  A    between atoms: O_24  and  C_8 
REMARK    4  A    between atoms: O_25  and  C_12 
REMARK    5  A    between atoms: C_14  and  C_22 
REMARK    6  A    between atoms: O_26  and  C_14 
REMARK    7  A    between atoms: O_27  and  C_16 
REMARK    8  A    between atoms: O_21  and  C_20 
REMARK    9  A    between atoms: C_22  and  O_21 
REMARK   10  A    between atoms: C_28  and  O_24 
ROOT
ATOM      1  C   UNL d   1      32.819  21.252 -21.851  0.00  0.00     0.067 A 
ATOM      2  C   UNL d   1      33.010  21.463 -22.630  0.00  0.00     0.166 A 
ATOM      3  C   UNL d   1      32.677  20.449 -21.659  0.00  0.00     0.200 A 
ATOM      4  O   UNL d   1      33.061  20.877 -23.227  0.00  0.00    -0.301 OA
ATOM      5  C   UNL d   1      32.725  19.872 -22.241  0.00  0.00     0.062 A 
ATOM      6  C   UNL d   1      32.918  20.084 -23.028  0.00  0.00     0.105 A 
ATOM      7  C   UNL d   1      32.967  19.501 -23.617  0.00  0.00     0.050 A 
ATOM      8  C   UNL d   1      32.586  19.072 -22.061  0.00  0.00     0.007 A 
ATOM      9  O   UNL d   1      32.487  20.244 -20.882  0.00  0.00    -0.286 OA
ATOM     10  C   UNL d   1      32.825  18.709 -23.421  0.00  0.00     0.102 A 
ATOM     11  C   UNL d   1      32.635  18.496 -22.647  0.00  0.00     0.025 A 
ENDROOT
BRANCH   1  12
ATOM     12  C   UNL d   1      32.770  21.828 -21.265  0.00  0.00     0.007 A 
ATOM     13  C   UNL d   1      32.243  22.461 -21.364  0.00  0.00     0.026 A 
ATOM     14  C   UNL d   1      32.199  23.037 -20.771  0.00  0.00     0.116 A 
ATOM     15  C   UNL d   1      32.672  22.980 -20.092  0.00  0.00     0.116 A 
ATOM     16  C   UNL d   1      33.191  22.347 -20.003  0.00  0.00     0.026 A 
ATOM     17  C   UNL d   1      33.240  21.772 -20.589  0.00  0.00     0.002 A 
BRANCH  14  18
ATOM     18  O   UNL d   1      31.679  23.669 -20.861  0.00  0.00    -0.326 OA
ATOM     19  C   UNL d   1      30.872  23.531 -20.955  0.00  0.00     0.181 C 
ENDBRANCH  14  18
BRANCH  15  20
ATOM     20  O   UNL d   1      32.621  23.556 -19.509  0.00  0.00    -0.326 OA
ATOM     21  C   UNL d   1      32.756  23.350 -18.719  0.00  0.00     0.181 C 
ENDBRANCH  15  20
ENDBRANCH   1  12
BRANCH   2  22
ATOM     22  C   UNL d   1      33.150  22.253 -22.817  0.00  0.00     0.323 C 
ATOM     23  O   UNL d   1      33.220  22.817 -22.223  0.00  0.00    -0.257 OA
BRANCH  22  24
ATOM     24  O   UNL d   1      33.222  22.486 -23.614  0.00  0.00    -0.270 OA
BRANCH  24  25
ATOM     25  C   UNL d   1      32.797  23.133 -23.895  0.00  0.00     0.126 C 
ATOM     26  C   UNL d   1      33.171  23.702 -24.361  0.00  0.00     0.029 C 
ENDBRANCH  24  25
ENDBRANCH  22  24
ENDBRANCH   2  22
BRANCH  10  27
ATOM     27  O   UNL d   1      32.875  18.134 -24.008  0.00  0.00    -0.300 OA
BRANCH  27  28
ATOM     28  C   UNL d   1      32.200  17.744 -24.264  0.00  0.00     0.191 C 
BRANCH  28  29
ATOM     29  C   UNL d   1      32.214  16.928 -24.381  0.00  0.00     0.321 C 
ATOM     30  O   UNL d   1      32.907  16.499 -24.250  0.00  0.00    -0.257 OA
BRANCH  29  31
ATOM     31  O   UNL d   1      31.536  16.533 -24.630  0.00  0.00    -0.294 OA
ATOM     32  C   UNL d   1      31.547  15.719 -24.755  0.00  0.00     0.185 C 
ENDBRANCH  29  31
ENDBRANCH  28  29
ENDBRANCH  27  28
ENDBRANCH  10  27
TORSDOF 10
ENDMDL
