MODEL 1
REMARK VINA RESULT:      31.1      0.000      0.000
REMARK  4 active torsions:
REMARK  status: ('A' for Active; 'I' for Inactive)
REMARK    1  A    between atoms: C_5  and  N_1 
REMARK    2  A    between atoms: C_9  and  C_3 
REMARK    3  A    between atoms: C_7  and  C_5 
REMARK    4  A    between atoms: O_10  and  C_8 
ROOT
ATOM      1  N   UNL d   1      13.312  13.018  -3.204  0.00  0.00    -0.289 N 
ATOM      2  N   UNL d   1      13.252  13.383  -4.503  0.00  0.00    -0.227 NA
ATOM      3  C   UNL d   1      13.117  12.751  -3.970  0.00  0.00     0.148 A 
ATOM      4  C   UNL d   1      13.567  13.812  -3.259  0.00  0.00     0.083 A 
ATOM      5  C   UNL d   1      13.530  14.039  -4.063  0.00  0.00     0.099 A 
ATOM      6  C   UNL d   1      13.828  14.365  -2.695  0.00  0.00     0.019 A 
ATOM      7  C   UNL d   1      13.750  14.800  -4.293  0.00  0.00     0.021 A 
ATOM      8  C   UNL d   1      14.049  15.130  -2.925  0.00  0.00     0.002 A 
ATOM      9  C   UNL d   1      14.010  15.347  -3.722  0.00  0.00     0.002 A 
ENDROOT
BRANCH   1  10
ATOM     10  C   UNL d   1      13.264  12.581  -2.505  0.00  0.00     0.083 C 
BRANCH  10  11
ATOM     11  C   UNL d   1      13.940  12.366  -2.102  0.00  0.00     0.040 A 
ATOM     12  C   UNL d   1      13.879  11.997  -1.377  0.00  0.00     0.096 A 
ATOM     13  C   UNL d   1      14.562  11.780  -0.967  0.00  0.00     0.024 A 
ATOM     14  C   UNL d   1      15.306  11.936  -1.291  0.00  0.00     0.002 A 
ATOM     15  C   UNL d   1      15.364  12.309  -2.023  0.00  0.00     0.000 A 
ATOM     16  C   UNL d   1      14.680  12.524  -2.428  0.00  0.00     0.004 A 
BRANCH  12  17
ATOM     17  O   UNL d   1      13.143  11.841  -1.055  0.00  0.00    -0.328 OA
ATOM     18  C   UNL d   1      13.045  11.799  -0.234  0.00  0.00     0.181 C 
ENDBRANCH  12  17
ENDBRANCH  10  11
ENDBRANCH   1  10
BRANCH   3  19
ATOM     19  C   UNL d   1      12.841  12.002  -4.169  0.00  0.00     0.037 C 
ATOM     20  C   UNL d   1      12.795  11.779  -4.961  0.00  0.00     0.003 C 
ENDBRANCH   3  19
TORSDOF 4
ENDMDL
