MODEL 1
REMARK VINA RESULT:     142.8      0.000      0.000
REMARK  5 active torsions:
REMARK  status: ('A' for Active; 'I' for Inactive)
REMARK    1  A    between atoms: N_9  and  C_3 
REMARK    2  A    between atoms: C_13  and  C_5 
REMARK    3  A    between atoms: C_12  and  N_10 
REMARK    4  A    between atoms: C_20  and  C_11 
REMARK    5  A    between atoms: C_25  and  C_20 
ROOT
ATOM      1  N   UNL d   1      58.884  47.125  50.672  0.00  0.00    -0.196 N 
ATOM      2  C   UNL d   1      58.406  47.798  50.657  0.00  0.00     0.167 A 
ATOM      3  C   UNL d   1      59.680  47.223  50.748  0.00  0.00     0.152 A 
ATOM      4  N   UNL d   1      57.749  46.315  50.534  0.00  0.00    -0.163 NA
ATOM      5  C   UNL d   1      57.614  47.723  50.582  0.00  0.00     0.055 A 
ATOM      6  C   UNL d   1      57.271  46.988  50.520  0.00  0.00     0.104 A 
ATOM      7  N   UNL d   1      58.749  48.533  50.720  0.00  0.00    -0.227 NA
ATOM      8  C   UNL d   1      60.025  47.940  50.810  0.00  0.00     0.057 A 
ATOM      9  C   UNL d   1      59.547  48.612  50.795  0.00  0.00     0.086 A 
ATOM     10  C   UNL d   1      56.475  46.905  50.444  0.00  0.00     0.023 C 
ENDROOT
BRANCH   3  11
ATOM     11  N   UNL d   1      60.173  46.530  50.763  0.00  0.00    -0.286 N 
ATOM     12  C   UNL d   1      60.668  46.346  50.108  0.00  0.00     0.101 A 
ATOM     13  C   UNL d   1      61.162  45.653  50.123  0.00  0.00     0.101 A 
ATOM     14  N   UNL d   1      61.159  45.144  50.793  0.00  0.00    -0.286 N 
ATOM     15  C   UNL d   1      60.658  45.323  51.463  0.00  0.00     0.101 A 
ATOM     16  C   UNL d   1      60.164  46.017  51.448  0.00  0.00     0.101 A 
BRANCH  14  17
ATOM     17  C   UNL d   1      61.649  44.454  50.808  0.00  0.00     0.148 A 
ATOM     18  N   UNL d   1      61.573  43.901  51.452  0.00  0.00    -0.227 NA
ATOM     19  C   UNL d   1      62.063  43.212  51.467  0.00  0.00     0.101 A 
ATOM     20  C   UNL d   1      62.627  43.078  50.837  0.00  0.00     0.021 A 
ATOM     21  C   UNL d   1      62.695  43.629  50.208  0.00  0.00     0.005 A 
ATOM     22  C   UNL d   1      62.202  44.321  50.193  0.00  0.00     0.037 A 
ENDBRANCH  14  17
ENDBRANCH   3  11
BRANCH   9  23
ATOM     23  C   UNL d   1      59.899  49.380  50.860  0.00  0.00     0.019 C 
BRANCH  23  24
ATOM     24  C   UNL d   1      60.626  49.491  51.294  0.00  0.00     0.002 C 
ATOM     25  C   UNL d   1      60.607  49.708  52.104  0.00  0.00     0.000 C 
ENDBRANCH  23  24
ENDBRANCH   9  23
BRANCH   5  26
ATOM     26  C   UNL d   1      57.144  48.384  50.568  0.00  0.00     0.004 A 
ATOM     27  C   UNL d   1      57.126  48.848  49.899  0.00  0.00     0.000 A 
ATOM     28  C   UNL d   1      56.648  49.521  49.885  0.00  0.00     0.000 A 
ATOM     29  C   UNL d   1      56.203  49.708  50.540  0.00  0.00     0.000 A 
ATOM     30  C   UNL d   1      56.228  49.235  51.205  0.00  0.00     0.000 A 
ATOM     31  C   UNL d   1      56.699  48.573  51.219  0.00  0.00     0.000 A 
ENDBRANCH   5  26
TORSDOF 5
ENDMDL
