MODEL 1
REMARK VINA RESULT:      -3.1      0.000      0.000
REMARK  5 active torsions:
REMARK  status: ('A' for Active; 'I' for Inactive)
REMARK    1  A    between atoms: C_7  and  N_2 
REMARK    2  A    between atoms: C_14  and  C_7 
REMARK    3  A    between atoms: O_10  and  C_9 
REMARK    4  A    between atoms: C_11  and  O_10 
REMARK    5  A    between atoms: C_13  and  C_11 
ROOT
ATOM      1  C   UNL d   1     -41.308-122.444 -49.845  0.00  0.00     0.265 A 
ATOM      2  N   UNL d   1     -41.459-123.255 -49.865  0.00  0.00    -0.272 N 
ATOM      3  C   UNL d   1     -41.295-122.012 -50.542  0.00  0.00     0.059 A 
ATOM      4  C   UNL d   1     -41.431-122.387 -51.264  0.00  0.00     0.029 A 
ATOM      5  C   UNL d   1     -41.581-123.194 -51.288  0.00  0.00     0.021 A 
ATOM      6  C   UNL d   1     -41.595-123.630 -50.587  0.00  0.00     0.083 A 
ATOM      7  O   UNL d   1     -41.172-122.068 -49.123  0.00  0.00    -0.267 OA
ATOM      8  C   UNL d   1     -41.417-121.951 -51.966  0.00  0.00     0.100 A 
ATOM      9  C   UNL d   1     -41.144-121.200 -50.522  0.00  0.00     0.005 A 
ATOM     10  C   UNL d   1     -41.130-120.764 -51.222  0.00  0.00     0.002 A 
ATOM     11  C   UNL d   1     -41.266-121.139 -51.944  0.00  0.00     0.025 A 
ENDROOT
BRANCH   8  12
ATOM     12  O   UNL d   1     -41.554-122.326 -52.688  0.00  0.00    -0.305 OA
BRANCH  12  13
ATOM     13  C   UNL d   1     -41.378-121.937 -53.394  0.00  0.00     0.122 C 
BRANCH  13  14
ATOM     14  C   UNL d   1     -41.776-122.141 -54.087  0.00  0.00     0.025 A 
ATOM     15  C   UNL d   1     -41.677-122.893 -54.414  0.00  0.00     0.004 A 
ATOM     16  C   UNL d   1     -42.076-123.097 -55.107  0.00  0.00     0.030 A 
ATOM     17  C   UNL d   1     -42.574-122.549 -55.472  0.00  0.00     0.140 A 
ATOM     18  C   UNL d   1     -42.673-121.798 -55.146  0.00  0.00     0.030 A 
ATOM     19  F   UNL d   1     -42.972-122.753 -56.165  0.00  0.00    -0.204 F 
ATOM     20  C   UNL d   1     -42.275-121.594 -54.453  0.00  0.00     0.004 A 
ENDBRANCH  13  14
ENDBRANCH  12  13
ENDBRANCH   8  12
BRANCH   2  21
ATOM     21  C   UNL d   1     -41.472-123.691 -49.155  0.00  0.00     0.083 C 
BRANCH  21  22
ATOM     22  C   UNL d   1     -42.162-123.733 -48.705  0.00  0.00     0.018 A 
ATOM     23  C   UNL d   1     -42.112-123.756 -47.883  0.00  0.00     0.002 A 
ATOM     24  C   UNL d   1     -42.802-123.798 -47.433  0.00  0.00     0.000 A 
ATOM     25  C   UNL d   1     -43.538-123.817 -47.806  0.00  0.00     0.000 A 
ATOM     26  C   UNL d   1     -43.581-123.794 -48.626  0.00  0.00     0.000 A 
ATOM     27  C   UNL d   1     -42.891-123.752 -49.076  0.00  0.00     0.002 A 
ENDBRANCH  21  22
ENDBRANCH   2  21
TORSDOF 5
ENDMDL
