MODEL 1
REMARK VINA RESULT:     130.2      0.000      0.000
REMARK  3 active torsions:
REMARK  status: ('A' for Active; 'I' for Inactive)
REMARK       I    between atoms: C_3  and  N_1 
REMARK    1  A    between atoms: C_9  and  C_3 
REMARK    2  A    between atoms: C_15  and  C_4 
REMARK    3  A    between atoms: N_5  and  C_8 
ROOT
ATOM      1  N   UNL d   1     -57.483 -98.874 -44.386  0.00  0.00    -0.269 N 
ATOM      2  C   UNL d   1     -56.440 -98.831 -45.239  0.00  0.00     0.036 A 
ATOM      3  C   UNL d   1     -58.310 -98.895 -44.376  0.00  0.00     0.265 C 
ATOM      4  C   UNL d   1     -57.124 -98.850 -45.118  0.00  0.00     0.069 A 
ATOM      5  C   UNL d   1     -55.753 -98.824 -44.757  0.00  0.00     0.086 A 
ATOM      6  N   UNL d   1     -55.650 -98.837 -44.042  0.00  0.00    -0.207 NA
ATOM      7  C   UNL d   1     -56.237 -98.863 -43.474  0.00  0.00     0.297 A 
ATOM      8  C   UNL d   1     -57.084 -98.881 -43.629  0.00  0.00     0.146 A 
ATOM      9  C   UNL d   1     -56.351 -98.811 -46.070  0.00  0.00     0.033 A 
ATOM     10  O   UNL d   1     -58.741 -98.890 -45.089  0.00  0.00    -0.267 OA
ATOM     11  O   UNL d   1     -55.995 -98.874 -42.679  0.00  0.00    -0.264 OA
ATOM     12  C   UNL d   1     -54.997 -98.799 -45.106  0.00  0.00     0.022 A 
ATOM     13  C   UNL d   1     -55.597 -98.785 -46.423  0.00  0.00     0.140 A 
ATOM     14  C   UNL d   1     -54.917 -98.779 -45.932  0.00  0.00     0.031 A 
ATOM     15  F   UNL d   1     -55.524 -98.766 -47.236  0.00  0.00    -0.204 F 
ENDROOT
BRANCH   3  16
ATOM     16  C   UNL d   1     -58.714 -98.920 -43.660  0.00  0.00     0.058 A 
ATOM     17  C   UNL d   1     -58.319 -99.109 -42.961  0.00  0.00     0.028 A 
ATOM     18  C   UNL d   1     -58.729 -99.130 -42.262  0.00  0.00     0.127 A 
ATOM     19  C   UNL d   1     -59.537 -98.965 -42.241  0.00  0.00     0.022 A 
ATOM     20  C   UNL d   1     -59.931 -98.778 -42.927  0.00  0.00     0.002 A 
ATOM     21  C   UNL d   1     -59.941 -98.991 -41.521  0.00  0.00     0.002 C 
ATOM     22  C   UNL d   1     -59.518 -98.755 -43.640  0.00  0.00     0.005 A 
BRANCH  18  23
ATOM     23  N   UNL d   1     -58.333 -99.320 -41.563  0.00  0.00    -0.114 N 
ATOM     24  O   UNL d   1     -58.253 -98.758 -40.982  0.00  0.00    -0.532 OA
ATOM     25  O   UNL d   1     -58.025-100.073 -41.462  0.00  0.00    -0.532 OA
ENDBRANCH  18  23
ENDBRANCH   3  16
BRANCH   4  26
ATOM     26  C   UNL d   1     -57.616 -98.848 -45.772  0.00  0.00     0.016 A 
ATOM     27  C   UNL d   1     -58.435 -98.923 -45.673  0.00  0.00     0.004 A 
ATOM     28  C   UNL d   1     -58.923 -98.920 -46.339  0.00  0.00     0.030 A 
ATOM     29  C   UNL d   1     -58.613 -98.845 -47.080  0.00  0.00     0.140 A 
ATOM     30  C   UNL d   1     -57.795 -98.770 -47.173  0.00  0.00     0.030 A 
ATOM     31  F   UNL d   1     -59.102 -98.842 -47.740  0.00  0.00    -0.204 F 
ATOM     32  C   UNL d   1     -57.297 -98.771 -46.526  0.00  0.00     0.004 A 
ENDBRANCH   4  26
TORSDOF 3
ENDMDL
