MODEL 1
REMARK VINA RESULT:      20.8      0.000      0.000
REMARK  5 active torsions:
REMARK  status: ('A' for Active; 'I' for Inactive)
REMARK    1  A    between atoms: C_2  and  C_1 
REMARK       I    between atoms: N_5  and  C_2 
REMARK    2  A    between atoms: C_10  and  N_5 
REMARK    3  A    between atoms: C_11  and  C_6 
REMARK    4  A    between atoms: S_9  and  C_11 
REMARK    5  A    between atoms: C_13  and  S_9 
ROOT
ATOM      1  C   UNL d   1      44.847 -15.300  44.592  0.00  0.00     0.158 A 
ATOM      2  O   UNL d   1      45.005 -15.952  44.113  0.00  0.00    -0.302 OA
ATOM      3  C   UNL d   1      45.559 -15.081  44.955  0.00  0.00     0.032 A 
ATOM      4  C   UNL d   1      45.799 -16.135  44.175  0.00  0.00     0.107 A 
ATOM      5  C   UNL d   1      46.149 -15.597  44.697  0.00  0.00     0.027 A 
ENDROOT
BRANCH   1   6
ATOM      6  C   UNL d   1      44.117 -14.927  44.698  0.00  0.00     0.302 C 
ATOM      7  N   UNL d   1      44.033 -14.123  44.547  0.00  0.00    -0.206 NA
ATOM      8  O   UNL d   1      43.474 -15.369  44.955  0.00  0.00    -0.263 OA
BRANCH   7   9
ATOM      9  C   UNL d   1      44.688 -13.681  44.287  0.00  0.00     0.085 A 
ATOM     10  C   UNL d   1      45.266 -13.452  44.817  0.00  0.00     0.021 A 
ATOM     11  C   UNL d   1      45.913 -13.019  44.571  0.00  0.00     0.031 A 
ATOM     12  C   UNL d   1      45.986 -12.805  43.768  0.00  0.00     0.140 A 
ATOM     13  C   UNL d   1      45.404 -13.035  43.234  0.00  0.00     0.031 A 
ATOM     14  F   UNL d   1      46.631 -12.371  43.513  0.00  0.00    -0.204 F 
ATOM     15  C   UNL d   1      44.753 -13.474  43.490  0.00  0.00     0.021 A 
ENDBRANCH   7   9
ENDBRANCH   1   6
BRANCH   4  16
ATOM     16  C   UNL d   1      46.194 -16.749  43.788  0.00  0.00     0.060 C 
BRANCH  16  17
ATOM     17  S   UNL d   1      46.104 -17.524  44.050  0.00  0.00    -0.084 SA
BRANCH  17  18
ATOM     18  C   UNL d   1      46.280 -18.155  43.556  0.00  0.00     0.029 A 
ATOM     19  C   UNL d   1      46.282 -18.923  43.849  0.00  0.00     0.006 A 
ATOM     20  C   UNL d   1      46.458 -19.555  43.356  0.00  0.00     0.001 A 
ATOM     21  C   UNL d   1      46.633 -19.411  42.558  0.00  0.00     0.000 A 
ATOM     22  C   UNL d   1      46.629 -18.640  42.268  0.00  0.00     0.001 A 
ATOM     23  C   UNL d   1      46.453 -18.008  42.763  0.00  0.00     0.006 A 
ENDBRANCH  17  18
ENDBRANCH  16  17
ENDBRANCH   4  16
TORSDOF 5
ENDMDL
MODEL 2
REMARK VINA RESULT:      21.6      2.382      5.117
REMARK  5 active torsions:
REMARK  status: ('A' for Active; 'I' for Inactive)
REMARK    1  A    between atoms: C_2  and  C_1 
REMARK       I    between atoms: N_5  and  C_2 
REMARK    2  A    between atoms: C_10  and  N_5 
REMARK    3  A    between atoms: C_11  and  C_6 
REMARK    4  A    between atoms: S_9  and  C_11 
REMARK    5  A    between atoms: C_13  and  S_9 
ROOT
ATOM      1  C   UNL d   1      46.217 -17.532  42.797  0.00  0.00     0.158 A 
ATOM      2  O   UNL d   1      45.691 -16.910  42.923  0.00  0.00    -0.302 OA
ATOM      3  C   UNL d   1      46.644 -17.642  43.499  0.00  0.00     0.032 A 
ATOM      4  C   UNL d   1      45.788 -16.637  43.687  0.00  0.00     0.107 A 
ATOM      5  C   UNL d   1      46.379 -17.088  44.050  0.00  0.00     0.027 A 
ENDROOT
BRANCH   1   6
ATOM      6  C   UNL d   1      46.309 -17.972  42.103  0.00  0.00     0.302 C 
ATOM      7  N   UNL d   1      46.224 -18.790  42.113  0.00  0.00    -0.206 NA
ATOM      8  O   UNL d   1      46.485 -17.583  41.402  0.00  0.00    -0.263 OA
BRANCH   7   9
ATOM      9  C   UNL d   1      46.045 -19.178  42.827  0.00  0.00     0.085 A 
ATOM     10  C   UNL d   1      46.647 -19.441  43.313  0.00  0.00     0.021 A 
ATOM     11  C   UNL d   1      46.481 -19.823  44.015  0.00  0.00     0.031 A 
ATOM     12  C   UNL d   1      45.687 -19.947  44.241  0.00  0.00     0.140 A 
ATOM     13  C   UNL d   1      45.082 -19.683  43.751  0.00  0.00     0.031 A 
ATOM     14  F   UNL d   1      45.513 -20.329  44.943  0.00  0.00    -0.204 F 
ATOM     15  C   UNL d   1      45.257 -19.297  43.042  0.00  0.00     0.021 A 
ENDBRANCH   7   9
ENDBRANCH   1   6
BRANCH   4  16
ATOM     16  C   UNL d   1      45.373 -16.018  44.044  0.00  0.00     0.060 C 
BRANCH  16  17
ATOM     17  S   UNL d   1      45.782 -15.373  44.349  0.00  0.00    -0.084 SA
BRANCH  17  18
ATOM     18  C   UNL d   1      45.545 -14.607  44.172  0.00  0.00     0.029 A 
ATOM     19  C   UNL d   1      46.096 -14.049  43.926  0.00  0.00     0.006 A 
ATOM     20  C   UNL d   1      45.860 -13.283  43.749  0.00  0.00     0.001 A 
ATOM     21  C   UNL d   1      45.061 -13.077  43.821  0.00  0.00     0.000 A 
ATOM     22  C   UNL d   1      44.511 -13.639  44.068  0.00  0.00     0.001 A 
ATOM     23  C   UNL d   1      44.748 -14.406  44.245  0.00  0.00     0.006 A 
ENDBRANCH  17  18
ENDBRANCH  16  17
ENDBRANCH   4  16
TORSDOF 5
ENDMDL
