MODEL 1
REMARK VINA RESULT:     103.3      0.000      0.000
REMARK  6 active torsions:
REMARK  status: ('A' for Active; 'I' for Inactive)
REMARK    1  A    between atoms: C_5  and  S_1 
REMARK    2  A    between atoms: N_6  and  S_1 
REMARK       I    between atoms: N_2  and  C_3 
REMARK    3  A    between atoms: C_3  and  C_14 
REMARK    4  A    between atoms: C_4  and  C_7 
REMARK    5  A    between atoms: C_23  and  N_6 
REMARK    6  A    between atoms: C_24  and  C_23 
ROOT
ATOM      1  C   UNL d   1     -55.848-102.426 -38.512  0.00  0.00     0.057 A 
ATOM      2  C   UNL d   1     -55.115-102.386 -38.891  0.00  0.00     0.005 A 
ATOM      3  C   UNL d   1     -56.525-102.613 -38.946  0.00  0.00     0.005 A 
ATOM      4  C   UNL d   1     -55.737-102.717 -40.129  0.00  0.00     0.020 A 
ATOM      5  C   UNL d   1     -55.060-102.530 -39.696  0.00  0.00     0.002 A 
ATOM      6  C   UNL d   1     -56.470-102.758 -39.755  0.00  0.00     0.002 A 
ENDROOT
BRANCH   4   7
ATOM      7  C   UNL d   1     -55.682-102.863 -40.939  0.00  0.00     0.112 C 
BRANCH   7   8
ATOM      8  N   UNL d   1     -56.156-102.446 -41.463  0.00  0.00    -0.157 NA
BRANCH   8   9
ATOM      9  S   UNL d   1     -55.835-101.800 -41.884  0.00  0.00     0.285 S 
ATOM     10  O   UNL d   1     -56.437-101.885 -42.459  0.00  0.00    -0.198 OA
ATOM     11  O   UNL d   1     -55.244-101.721 -41.316  0.00  0.00    -0.198 OA
BRANCH   9  12
ATOM     12  C   UNL d   1     -55.525-101.164 -42.306  0.00  0.00     0.105 A 
ATOM     13  C   UNL d   1     -55.593-101.139 -43.123  0.00  0.00     0.017 A 
ATOM     14  C   UNL d   1     -55.283-100.502 -43.547  0.00  0.00     0.072 A 
ATOM     15  C   UNL d   1     -54.901 -99.888 -43.141  0.00  0.00     0.004 A 
ATOM     16  C   UNL d   1     -54.833 -99.913 -42.323  0.00  0.00     0.001 A 
ATOM     17  C   UNL d   1     -55.145-100.552 -41.909  0.00  0.00     0.013 A 
BRANCH  14  18
ATOM     18  C   UNL d   1     -55.350-100.473 -44.364  0.00  0.00     0.419 C 
ATOM     19  F   UNL d   1     -55.316-101.298 -44.399  0.00  0.00    -0.166 F 
ATOM     20  F   UNL d   1     -55.384 -99.645 -44.335  0.00  0.00    -0.166 F 
ATOM     21  F   UNL d   1     -55.417-100.442 -45.192  0.00  0.00    -0.166 F 
ENDBRANCH  14  18
ENDBRANCH   9  12
ENDBRANCH   8   9
ENDBRANCH   7   8
ENDBRANCH   4   7
BRANCH   1  22
ATOM     22  C   UNL d   1     -55.905-102.278 -37.690  0.00  0.00     0.265 C 
ATOM     23  N   UNL d   1     -55.695-101.534 -37.390  0.00  0.00    -0.268 N 
ATOM     24  C   UNL d   1     -55.430-100.942 -37.901  0.00  0.00     0.108 A 
ATOM     25  C   UNL d   1     -55.752-101.391 -36.580  0.00  0.00     0.108 A 
ATOM     26  C   UNL d   1     -55.220-100.198 -37.596  0.00  0.00     0.118 A 
ATOM     27  C   UNL d   1     -54.954 -99.602 -38.109  0.00  0.00     0.028 C 
ATOM     28  O   UNL d   1     -55.278-100.055 -36.786  0.00  0.00    -0.304 OA
ATOM     29  C   UNL d   1     -55.543-100.645 -36.271  0.00  0.00     0.118 A 
ATOM     30  C   UNL d   1     -55.599-100.497 -35.458  0.00  0.00     0.028 C 
ATOM     31  O   UNL d   1     -56.171-102.875 -37.182  0.00  0.00    -0.267 OA
ENDBRANCH   1  22
TORSDOF 6
ENDMDL
