MODEL 1
REMARK VINA RESULT:      35.9      0.000      0.000
REMARK  4 active torsions:
REMARK  status: ('A' for Active; 'I' for Inactive)
REMARK    1  A    between atoms: C_7  and  N_1 
REMARK    2  A    between atoms: C_6  and  C_4 
REMARK    3  A    between atoms: C_12  and  C_6 
REMARK    4  A    between atoms: C_8  and  C_7 
ROOT
ATOM      1  N   UNL d   1      60.731  48.711  50.764  0.00  0.00    -0.229 N 
ATOM      2  C   UNL d   1      60.627  49.321  50.219  0.00  0.00     0.299 A 
ATOM      3  C   UNL d   1      60.086  48.715  51.292  0.00  0.00     0.274 A 
ATOM      4  C   UNL d   1      59.577  49.335  51.069  0.00  0.00     0.090 A 
ATOM      5  S   UNL d   1      59.912  49.708  50.408  0.00  0.00    -0.022 SA
ATOM      6  O   UNL d   1      61.137  49.516  49.597  0.00  0.00    -0.259 OA
ATOM      7  O   UNL d   1      59.974  48.193  51.923  0.00  0.00    -0.266 OA
ENDROOT
BRANCH   4   8
ATOM      8  C   UNL d   1      58.871  49.541  51.437  0.00  0.00     0.011 C 
BRANCH   8   9
ATOM      9  C   UNL d   1      58.246  49.559  50.895  0.00  0.00     0.001 A 
ATOM     10  C   UNL d   1      58.397  49.442  50.090  0.00  0.00     0.003 A 
ATOM     11  C   UNL d   1      57.774  49.460  49.552  0.00  0.00     0.042 A 
ATOM     12  C   UNL d   1      57.004  49.593  49.814  0.00  0.00     0.196 A 
ATOM     13  C   UNL d   1      56.861  49.708  50.615  0.00  0.00     0.042 A 
ATOM     14  O   UNL d   1      56.375  49.611  49.273  0.00  0.00    -0.287 OA
ATOM     15  C   UNL d   1      57.476  49.691  51.156  0.00  0.00     0.003 A 
ENDBRANCH   8   9
ENDBRANCH   4   8
BRANCH   1  16
ATOM     16  C   UNL d   1      61.422  48.278  50.643  0.00  0.00     0.157 C 
BRANCH  16  17
ATOM     17  C   UNL d   1      61.380  47.477  50.432  0.00  0.00     0.230 C 
ATOM     18  O   UNL d   1      61.030  46.929  50.944  0.00  0.00    -0.643 OA
ATOM     19  O   UNL d   1      61.687  47.222  49.710  0.00  0.00    -0.643 OA
ENDBRANCH  16  17
ENDBRANCH   1  16
TORSDOF 4
ENDMDL
MODEL 2
REMARK VINA RESULT:      38.6      1.635      3.593
REMARK  4 active torsions:
REMARK  status: ('A' for Active; 'I' for Inactive)
REMARK    1  A    between atoms: C_7  and  N_1 
REMARK    2  A    between atoms: C_6  and  C_4 
REMARK    3  A    between atoms: C_12  and  C_6 
REMARK    4  A    between atoms: C_8  and  C_7 
ROOT
ATOM      1  N   UNL d   1      57.050  48.917  50.175  0.00  0.00    -0.229 N 
ATOM      2  C   UNL d   1      57.510  49.348  49.644  0.00  0.00     0.299 A 
ATOM      3  C   UNL d   1      57.383  48.993  50.935  0.00  0.00     0.274 A 
ATOM      4  C   UNL d   1      58.057  49.477  50.873  0.00  0.00     0.090 A 
ATOM      5  S   UNL d   1      58.135  49.695  50.076  0.00  0.00    -0.022 SA
ATOM      6  O   UNL d   1      57.380  49.425  48.830  0.00  0.00    -0.259 OA
ATOM      7  O   UNL d   1      57.092  48.647  51.628  0.00  0.00    -0.266 OA
ENDROOT
BRANCH   4   8
ATOM      8  C   UNL d   1      58.556  49.699  51.488  0.00  0.00     0.011 C 
BRANCH   8   9
ATOM      9  C   UNL d   1      59.350  49.658  51.257  0.00  0.00     0.001 A 
ATOM     10  C   UNL d   1      59.547  49.685  50.454  0.00  0.00     0.003 A 
ATOM     11  C   UNL d   1      60.337  49.645  50.227  0.00  0.00     0.042 A 
ATOM     12  C   UNL d   1      60.929  49.576  50.796  0.00  0.00     0.196 A 
ATOM     13  C   UNL d   1      60.727  49.549  51.592  0.00  0.00     0.042 A 
ATOM     14  O   UNL d   1      61.726  49.535  50.568  0.00  0.00    -0.287 OA
ATOM     15  C   UNL d   1      59.942  49.590  51.826  0.00  0.00     0.003 A 
ENDBRANCH   8   9
ENDBRANCH   4   8
BRANCH   1  16
ATOM     16  C   UNL d   1      56.408  48.541  49.822  0.00  0.00     0.157 C 
BRANCH  16  17
ATOM     17  C   UNL d   1      56.370  47.712  49.799  0.00  0.00     0.230 C 
ATOM     18  O   UNL d   1      56.118  47.326  49.111  0.00  0.00    -0.643 OA
ATOM     19  O   UNL d   1      56.584  47.269  50.461  0.00  0.00    -0.643 OA
ENDBRANCH  16  17
ENDBRANCH   1  16
TORSDOF 4
ENDMDL
