MODEL 1
REMARK VINA RESULT:      69.0      0.000      0.000
REMARK  5 active torsions:
REMARK  status: ('A' for Active; 'I' for Inactive)
REMARK    1  A    between atoms: N_2  and  S_1 
REMARK    2  A    between atoms: C_3  and  S_1 
REMARK    3  A    between atoms: C_15  and  C_11 
REMARK    4  A    between atoms: O_17  and  C_12 
REMARK    5  A    between atoms: C_21  and  O_17 
ROOT
ATOM      1  C   UNL d   1      60.036  48.493  50.857  0.00  0.00     0.128 A 
ATOM      2  C   UNL d   1      59.273  48.513  50.547  0.00  0.00     0.015 A 
ATOM      3  C   UNL d   1      58.757  49.120  50.759  0.00  0.00     0.001 A 
ATOM      4  C   UNL d   1      60.282  49.079  51.378  0.00  0.00     0.112 A 
ATOM      5  C   UNL d   1      59.003  49.708  51.282  0.00  0.00     0.002 A 
ATOM      6  C   UNL d   1      59.766  49.686  51.591  0.00  0.00     0.025 A 
ENDROOT
BRANCH   1   7
ATOM      7  S   UNL d   1      60.552  47.885  50.644  0.00  0.00     0.288 S 
ATOM      8  O   UNL d   1      60.710  48.270  49.931  0.00  0.00    -0.198 OA
ATOM      9  O   UNL d   1      60.393  47.501  51.356  0.00  0.00    -0.198 OA
BRANCH   7  10
ATOM     10  N   UNL d   1      61.068  47.278  50.431  0.00  0.00    -0.152 N 
ATOM     11  N   UNL d   1      61.686  47.331  49.891  0.00  0.00    -0.155 NA
ATOM     12  C   UNL d   1      62.059  46.599  49.845  0.00  0.00     0.104 A 
ATOM     13  C   UNL d   1      62.706  46.410  49.369  0.00  0.00     0.022 C 
ATOM     14  C   UNL d   1      61.668  46.086  50.361  0.00  0.00     0.041 A 
ATOM     15  C   UNL d   1      61.058  46.506  50.722  0.00  0.00     0.096 A 
ATOM     16  C   UNL d   1      60.528  46.206  51.277  0.00  0.00     0.022 C 
ENDBRANCH   7  10
ENDBRANCH   1   7
BRANCH   4  17
ATOM     17  O   UNL d   1      61.047  49.061  51.691  0.00  0.00    -0.304 OA
BRANCH  17  18
ATOM     18  C   UNL d   1      61.336  49.705  52.115  0.00  0.00     0.123 C 
ATOM     19  C   UNL d   1      61.990  49.615  52.617  0.00  0.00     0.029 C 
ENDBRANCH  17  18
ENDBRANCH   4  17
BRANCH   3  20
ATOM     20  C   UNL d   1      57.994  49.141  50.450  0.00  0.00     0.000 C 
ATOM     21  C   UNL d   1      57.793  49.708  49.877  0.00  0.00     0.000 C 
ATOM     22  C   UNL d   1      57.428  48.600  50.709  0.00  0.00     0.000 C 
ENDBRANCH   3  20
TORSDOF 5
ENDMDL
MODEL 2
REMARK VINA RESULT:      69.1      1.934      2.675
REMARK  5 active torsions:
REMARK  status: ('A' for Active; 'I' for Inactive)
REMARK    1  A    between atoms: N_2  and  S_1 
REMARK    2  A    between atoms: C_3  and  S_1 
REMARK    3  A    between atoms: C_15  and  C_11 
REMARK    4  A    between atoms: O_17  and  C_12 
REMARK    5  A    between atoms: C_21  and  O_17 
ROOT
ATOM      1  C   UNL d   1      59.595  49.328  50.805  0.00  0.00     0.128 A 
ATOM      2  C   UNL d   1      58.828  49.103  51.005  0.00  0.00     0.015 A 
ATOM      3  C   UNL d   1      58.253  49.031  50.419  0.00  0.00     0.001 A 
ATOM      4  C   UNL d   1      59.786  49.481  50.020  0.00  0.00     0.112 A 
ATOM      5  C   UNL d   1      58.443  49.185  49.632  0.00  0.00     0.002 A 
ATOM      6  C   UNL d   1      59.210  49.410  49.433  0.00  0.00     0.025 A 
ENDROOT
BRANCH   1   7
ATOM      7  S   UNL d   1      60.170  49.399  51.392  0.00  0.00     0.288 S 
ATOM      8  O   UNL d   1      59.606  49.707  51.908  0.00  0.00    -0.198 OA
ATOM      9  O   UNL d   1      60.735  49.092  50.875  0.00  0.00    -0.198 OA
BRANCH   7  10
ATOM     10  N   UNL d   1      60.746  49.471  51.978  0.00  0.00    -0.152 N 
ATOM     11  N   UNL d   1      61.556  49.549  51.858  0.00  0.00    -0.155 NA
ATOM     12  C   UNL d   1      61.926  49.603  52.592  0.00  0.00     0.104 A 
ATOM     13  C   UNL d   1      62.737  49.688  52.724  0.00  0.00     0.022 C 
ATOM     14  C   UNL d   1      61.341  49.558  53.171  0.00  0.00     0.041 A 
ATOM     15  C   UNL d   1      60.614  49.476  52.792  0.00  0.00     0.096 A 
ATOM     16  C   UNL d   1      59.880  49.411  53.163  0.00  0.00     0.022 C 
ENDBRANCH   7  10
ENDBRANCH   1   7
BRANCH   4  17
ATOM     17  O   UNL d   1      60.555  49.707  49.817  0.00  0.00    -0.304 OA
BRANCH  17  18
ATOM     18  C   UNL d   1      60.974  49.282  49.250  0.00  0.00     0.123 C 
ATOM     19  C   UNL d   1      61.660  49.602  48.911  0.00  0.00     0.029 C 
ENDBRANCH  17  18
ENDBRANCH   4  17
BRANCH   3  20
ATOM     20  C   UNL d   1      57.486  48.806  50.617  0.00  0.00     0.000 C 
ATOM     21  C   UNL d   1      56.971  49.352  50.974  0.00  0.00     0.000 C 
ATOM     22  C   UNL d   1      57.227  48.038  50.463  0.00  0.00     0.000 C 
ENDBRANCH   3  20
TORSDOF 5
ENDMDL
