MODEL 1
REMARK VINA RESULT:      -8.7      0.000      0.000
REMARK  4 active torsions:
REMARK  status: ('A' for Active; 'I' for Inactive)
REMARK    1  A    between atoms: C_8  and  C_1 
REMARK    2  A    between atoms: C_4  and  C_2 
REMARK    3  A    between atoms: O_16  and  C_8 
REMARK    4  A    between atoms: C_21  and  O_16 
ROOT
ATOM      1  C   UNL d   1     -47.793  12.744  22.933  0.00  0.00     0.099 A 
ATOM      2  C   UNL d   1     -47.835  13.519  22.653  0.00  0.00     0.096 A 
ATOM      3  C   UNL d   1     -47.113  12.491  23.352  0.00  0.00     0.093 A 
ATOM      4  C   UNL d   1     -46.537  13.788  23.202  0.00  0.00     0.369 A 
ATOM      5  N   UNL d   1     -46.487  13.017  23.484  0.00  0.00    -0.191 NA
ATOM      6  N   UNL d   1     -47.209  14.038  22.788  0.00  0.00    -0.191 NA
ATOM      7  O   UNL d   1     -45.911  14.314  23.334  0.00  0.00    -0.242 OA
ATOM      8  C   UNL d   1     -47.061  11.723  23.633  0.00  0.00     0.021 C 
ENDROOT
BRANCH   2   9
ATOM      9  C   UNL d   1     -48.498  13.766  22.245  0.00  0.00     0.057 A 
ATOM     10  C   UNL d   1     -49.019  14.309  22.581  0.00  0.00     0.005 A 
ATOM     11  C   UNL d   1     -49.691  14.559  22.168  0.00  0.00     0.000 A 
ATOM     12  C   UNL d   1     -48.863  14.602  23.342  0.00  0.00     0.000 A 
ATOM     13  C   UNL d   1     -50.208  15.104  22.513  0.00  0.00     0.000 A 
ATOM     14  C   UNL d   1     -49.843  14.267  21.416  0.00  0.00     0.003 A 
ATOM     15  C   UNL d   1     -50.056  15.397  23.268  0.00  0.00     0.000 A 
ATOM     16  C   UNL d   1     -49.385  15.147  23.681  0.00  0.00     0.000 A 
ATOM     17  C   UNL d   1     -49.326  13.723  21.071  0.00  0.00     0.042 A 
ATOM     18  C   UNL d   1     -48.628  13.463  21.501  0.00  0.00     0.197 A 
ATOM     19  O   UNL d   1     -48.872  13.214  20.710  0.00  0.00    -0.286 OA
ENDBRANCH   2   9
BRANCH   1  20
ATOM     20  C   UNL d   1     -48.421  12.230  22.795  0.00  0.00     0.303 C 
ATOM     21  O   UNL d   1     -48.525  11.898  22.053  0.00  0.00    -0.259 OA
BRANCH  20  22
ATOM     22  O   UNL d   1     -48.940  12.057  23.412  0.00  0.00    -0.271 OA
BRANCH  22  23
ATOM     23  C   UNL d   1     -49.390  11.371  23.371  0.00  0.00     0.126 C 
ATOM     24  C   UNL d   1     -50.141  11.349  23.698  0.00  0.00     0.029 C 
ENDBRANCH  22  23
ENDBRANCH  20  22
ENDBRANCH   1  20
TORSDOF 4
ENDMDL
MODEL 2
REMARK VINA RESULT:      -6.9      1.474      2.627
REMARK  4 active torsions:
REMARK  status: ('A' for Active; 'I' for Inactive)
REMARK    1  A    between atoms: C_8  and  C_1 
REMARK    2  A    between atoms: C_4  and  C_2 
REMARK    3  A    between atoms: O_16  and  C_8 
REMARK    4  A    between atoms: C_21  and  O_16 
ROOT
ATOM      1  C   UNL d   1     -49.747  13.442  22.683  0.00  0.00     0.099 A 
ATOM      2  C   UNL d   1     -49.126  13.884  22.366  0.00  0.00     0.096 A 
ATOM      3  C   UNL d   1     -50.391  13.835  23.048  0.00  0.00     0.093 A 
ATOM      4  C   UNL d   1     -49.780  15.094  22.772  0.00  0.00     0.369 A 
ATOM      5  N   UNL d   1     -50.403  14.662  23.090  0.00  0.00    -0.191 NA
ATOM      6  N   UNL d   1     -49.144  14.707  22.412  0.00  0.00    -0.191 NA
ATOM      7  O   UNL d   1     -49.792  15.922  22.814  0.00  0.00    -0.242 OA
ATOM      8  C   UNL d   1     -51.013  13.406  23.365  0.00  0.00     0.021 C 
ENDROOT
BRANCH   2   9
ATOM      9  C   UNL d   1     -48.498  13.501  22.010  0.00  0.00     0.057 A 
ATOM     10  C   UNL d   1     -47.748  13.520  22.352  0.00  0.00     0.005 A 
ATOM     11  C   UNL d   1     -47.113  13.132  21.992  0.00  0.00     0.000 A 
ATOM     12  C   UNL d   1     -47.638  13.934  23.064  0.00  0.00     0.000 A 
ATOM     13  C   UNL d   1     -46.364  13.157  22.341  0.00  0.00     0.000 A 
ATOM     14  C   UNL d   1     -47.224  12.724  21.288  0.00  0.00     0.003 A 
ATOM     15  C   UNL d   1     -46.250  13.566  23.047  0.00  0.00     0.000 A 
ATOM     16  C   UNL d   1     -46.886  13.953  23.407  0.00  0.00     0.000 A 
ATOM     17  C   UNL d   1     -47.973  12.700  20.939  0.00  0.00     0.042 A 
ATOM     18  C   UNL d   1     -48.634  13.103  21.313  0.00  0.00     0.197 A 
ATOM     19  O   UNL d   1     -48.652  12.651  20.578  0.00  0.00    -0.286 OA
ENDBRANCH   2   9
BRANCH   1  20
ATOM     20  C   UNL d   1     -49.724  12.621  22.635  0.00  0.00     0.303 C 
ATOM     21  O   UNL d   1     -49.924  12.244  21.935  0.00  0.00    -0.259 OA
BRANCH  20  22
ATOM     22  O   UNL d   1     -49.499  12.186  23.298  0.00  0.00    -0.271 OA
BRANCH  22  23
ATOM     23  C   UNL d   1     -49.963  11.551  23.533  0.00  0.00     0.126 C 
ATOM     24  C   UNL d   1     -49.620  10.824  23.693  0.00  0.00     0.029 C 
ENDBRANCH  22  23
ENDBRANCH  20  22
ENDBRANCH   1  20
TORSDOF 4
ENDMDL
MODEL 3
REMARK VINA RESULT:      -6.9      1.532      3.076
REMARK  4 active torsions:
REMARK  status: ('A' for Active; 'I' for Inactive)
REMARK    1  A    between atoms: C_8  and  C_1 
REMARK    2  A    between atoms: C_4  and  C_2 
REMARK    3  A    between atoms: O_16  and  C_8 
REMARK    4  A    between atoms: C_21  and  O_16 
ROOT
ATOM      1  C   UNL d   1     -48.774  14.514  22.263  0.00  0.00     0.099 A 
ATOM      2  C   UNL d   1     -49.412  14.025  22.079  0.00  0.00     0.096 A 
ATOM      3  C   UNL d   1     -48.902  15.331  22.395  0.00  0.00     0.093 A 
ATOM      4  C   UNL d   1     -50.298  15.150  22.155  0.00  0.00     0.369 A 
ATOM      5  N   UNL d   1     -49.667  15.645  22.340  0.00  0.00    -0.191 NA
ATOM      6  N   UNL d   1     -50.171  14.343  22.026  0.00  0.00    -0.191 NA
ATOM      7  O   UNL d   1     -51.062  15.464  22.100  0.00  0.00    -0.242 OA
ATOM      8  C   UNL d   1     -48.276  15.826  22.578  0.00  0.00     0.021 C 
ENDROOT
BRANCH   2   9
ATOM      9  C   UNL d   1     -49.287  13.228  21.951  0.00  0.00     0.057 A 
ATOM     10  C   UNL d   1     -49.568  12.668  22.486  0.00  0.00     0.005 A 
ATOM     11  C   UNL d   1     -49.441  11.861  22.357  0.00  0.00     0.000 A 
ATOM     12  C   UNL d   1     -49.982  12.924  23.159  0.00  0.00     0.000 A 
ATOM     13  C   UNL d   1     -49.727  11.306  22.899  0.00  0.00     0.000 A 
ATOM     14  C   UNL d   1     -49.032  11.610  21.691  0.00  0.00     0.003 A 
ATOM     15  C   UNL d   1     -50.138  11.556  23.568  0.00  0.00     0.000 A 
ATOM     16  C   UNL d   1     -50.265  12.363  23.698  0.00  0.00     0.000 A 
ATOM     17  C   UNL d   1     -48.746  12.165  21.148  0.00  0.00     0.042 A 
ATOM     18  C   UNL d   1     -48.878  13.004  21.283  0.00  0.00     0.197 A 
ATOM     19  O   UNL d   1     -48.462  12.645  20.617  0.00  0.00    -0.286 OA
ENDBRANCH   2   9
BRANCH   1  20
ATOM     20  C   UNL d   1     -48.019  14.191  22.315  0.00  0.00     0.303 C 
ATOM     21  O   UNL d   1     -47.622  13.961  21.636  0.00  0.00    -0.259 OA
BRANCH  20  22
ATOM     22  O   UNL d   1     -47.670  14.103  23.057  0.00  0.00    -0.271 OA
BRANCH  22  23
ATOM     23  C   UNL d   1     -46.854  14.166  23.122  0.00  0.00     0.126 C 
ATOM     24  C   UNL d   1     -46.415  13.553  23.444  0.00  0.00     0.029 C 
ENDBRANCH  22  23
ENDBRANCH  20  22
ENDBRANCH   1  20
TORSDOF 4
ENDMDL
MODEL 4
REMARK VINA RESULT:      -6.3      8.387     10.179
REMARK  4 active torsions:
REMARK  status: ('A' for Active; 'I' for Inactive)
REMARK    1  A    between atoms: C_8  and  C_1 
REMARK    2  A    between atoms: C_4  and  C_2 
REMARK    3  A    between atoms: O_16  and  C_8 
REMARK    4  A    between atoms: C_21  and  O_16 
ROOT
ATOM      1  C   UNL d   1     -39.460  14.713  17.800  0.00  0.00     0.099 A 
ATOM      2  C   UNL d   1     -39.903  15.134  18.354  0.00  0.00     0.096 A 
ATOM      3  C   UNL d   1     -39.705  14.696  16.999  0.00  0.00     0.093 A 
ATOM      4  C   UNL d   1     -40.825  15.518  17.325  0.00  0.00     0.369 A 
ATOM      5  N   UNL d   1     -40.389  15.100  16.766  0.00  0.00    -0.191 NA
ATOM      6  N   UNL d   1     -40.583  15.534  18.116  0.00  0.00    -0.191 NA
ATOM      7  O   UNL d   1     -41.510  15.922  17.092  0.00  0.00    -0.242 OA
ATOM      8  C   UNL d   1     -39.272  14.281  16.441  0.00  0.00     0.021 C 
ENDROOT
BRANCH   2   9
ATOM      9  C   UNL d   1     -39.664  15.151  19.135  0.00  0.00     0.057 A 
ATOM     10  C   UNL d   1     -40.112  14.779  19.719  0.00  0.00     0.005 A 
ATOM     11  C   UNL d   1     -39.870  14.796  20.509  0.00  0.00     0.000 A 
ATOM     12  C   UNL d   1     -40.812  14.388  19.503  0.00  0.00     0.000 A 
ATOM     13  C   UNL d   1     -40.327  14.421  21.088  0.00  0.00     0.000 A 
ATOM     14  C   UNL d   1     -39.178  15.184  20.720  0.00  0.00     0.003 A 
ATOM     15  C   UNL d   1     -41.021  14.032  20.878  0.00  0.00     0.000 A 
ATOM     16  C   UNL d   1     -41.263  14.015  20.087  0.00  0.00     0.000 A 
ATOM     17  C   UNL d   1     -38.722  15.559  20.141  0.00  0.00     0.042 A 
ATOM     18  C   UNL d   1     -38.974  15.542  19.319  0.00  0.00     0.197 A 
ATOM     19  O   UNL d   1     -38.266  15.922  19.636  0.00  0.00    -0.286 OA
ENDBRANCH   2   9
BRANCH   1  20
ATOM     20  C   UNL d   1     -38.781  14.315  18.044  0.00  0.00     0.303 C 
ATOM     21  O   UNL d   1     -38.088  14.730  18.179  0.00  0.00    -0.259 OA
BRANCH  20  22
ATOM     22  O   UNL d   1     -38.811  13.498  18.148  0.00  0.00    -0.271 OA
BRANCH  22  23
ATOM     23  C   UNL d   1     -38.121  13.062  18.064  0.00  0.00     0.126 C 
ATOM     24  C   UNL d   1     -38.120  12.255  18.210  0.00  0.00     0.029 C 
ENDBRANCH  22  23
ENDBRANCH  20  22
ENDBRANCH   1  20
TORSDOF 4
ENDMDL
MODEL 5
REMARK VINA RESULT:      -6.1      1.400      2.677
REMARK  4 active torsions:
REMARK  status: ('A' for Active; 'I' for Inactive)
REMARK    1  A    between atoms: C_8  and  C_1 
REMARK    2  A    between atoms: C_4  and  C_2 
REMARK    3  A    between atoms: O_16  and  C_8 
REMARK    4  A    between atoms: C_21  and  O_16 
ROOT
ATOM      1  C   UNL d   1     -48.152  12.466  23.249  0.00  0.00     0.099 A 
ATOM      2  C   UNL d   1     -48.953  12.624  23.134  0.00  0.00     0.096 A 
ATOM      3  C   UNL d   1     -47.913  11.709  23.518  0.00  0.00     0.093 A 
ATOM      4  C   UNL d   1     -49.277  11.290  23.549  0.00  0.00     0.369 A 
ATOM      5  N   UNL d   1     -48.480  11.123  23.666  0.00  0.00    -0.191 NA
ATOM      6  N   UNL d   1     -49.513  12.037  23.284  0.00  0.00    -0.191 NA
ATOM      7  O   UNL d   1     -49.844  10.704  23.698  0.00  0.00    -0.242 OA
ATOM      8  C   UNL d   1     -47.120  11.541  23.635  0.00  0.00     0.021 C 
ENDROOT
BRANCH   2   9
ATOM      9  C   UNL d   1     -49.186  13.362  22.872  0.00  0.00     0.057 A 
ATOM     10  C   UNL d   1     -49.620  13.442  22.176  0.00  0.00     0.005 A 
ATOM     11  C   UNL d   1     -49.855  14.189  21.911  0.00  0.00     0.000 A 
ATOM     12  C   UNL d   1     -49.818  12.762  21.742  0.00  0.00     0.000 A 
ATOM     13  C   UNL d   1     -50.290  14.259  21.211  0.00  0.00     0.000 A 
ATOM     14  C   UNL d   1     -49.659  14.860  22.341  0.00  0.00     0.003 A 
ATOM     15  C   UNL d   1     -50.488  13.587  20.778  0.00  0.00     0.000 A 
ATOM     16  C   UNL d   1     -50.252  12.840  21.043  0.00  0.00     0.000 A 
ATOM     17  C   UNL d   1     -49.224  14.789  23.041  0.00  0.00     0.042 A 
ATOM     18  C   UNL d   1     -48.979  14.012  23.317  0.00  0.00     0.197 A 
ATOM     19  O   UNL d   1     -48.821  14.771  23.698  0.00  0.00    -0.286 OA
ENDBRANCH   2   9
BRANCH   1  20
ATOM     20  C   UNL d   1     -47.598  13.055  23.098  0.00  0.00     0.303 C 
ATOM     21  O   UNL d   1     -47.524  13.691  23.610  0.00  0.00    -0.259 OA
BRANCH  20  22
ATOM     22  O   UNL d   1     -47.122  12.996  22.427  0.00  0.00    -0.271 OA
BRANCH  22  23
ATOM     23  C   UNL d   1     -46.355  13.288  22.458  0.00  0.00     0.126 C 
ATOM     24  C   UNL d   1     -45.912  13.360  21.773  0.00  0.00     0.029 C 
ENDBRANCH  22  23
ENDBRANCH  20  22
ENDBRANCH   1  20
TORSDOF 4
ENDMDL
MODEL 6
REMARK VINA RESULT:      -5.9      9.593     10.867
REMARK  4 active torsions:
REMARK  status: ('A' for Active; 'I' for Inactive)
REMARK    1  A    between atoms: C_8  and  C_1 
REMARK    2  A    between atoms: C_4  and  C_2 
REMARK    3  A    between atoms: O_16  and  C_8 
REMARK    4  A    between atoms: C_21  and  O_16 
ROOT
ATOM      1  C   UNL d   1     -38.698  13.394  18.710  0.00  0.00     0.099 A 
ATOM      2  C   UNL d   1     -38.945  13.389  17.923  0.00  0.00     0.096 A 
ATOM      3  C   UNL d   1     -38.191  12.788  18.989  0.00  0.00     0.093 A 
ATOM      4  C   UNL d   1     -38.192  12.190  17.693  0.00  0.00     0.369 A 
ATOM      5  N   UNL d   1     -37.940  12.187  18.476  0.00  0.00    -0.191 NA
ATOM      6  N   UNL d   1     -38.692  12.788  17.417  0.00  0.00    -0.191 NA
ATOM      7  O   UNL d   1     -37.941  11.590  17.180  0.00  0.00    -0.242 OA
ATOM      8  C   UNL d   1     -37.940  12.783  19.768  0.00  0.00     0.021 C 
ENDROOT
BRANCH   2   9
ATOM      9  C   UNL d   1     -39.439  13.980  17.650  0.00  0.00     0.057 A 
ATOM     10  C   UNL d   1     -39.155  14.562  17.142  0.00  0.00     0.005 A 
ATOM     11  C   UNL d   1     -39.655  15.161  16.866  0.00  0.00     0.000 A 
ATOM     12  C   UNL d   1     -38.358  14.542  16.908  0.00  0.00     0.000 A 
ATOM     13  C   UNL d   1     -39.361  15.741  16.356  0.00  0.00     0.000 A 
ATOM     14  C   UNL d   1     -40.442  15.179  17.098  0.00  0.00     0.003 A 
ATOM     15  C   UNL d   1     -38.571  15.724  16.122  0.00  0.00     0.000 A 
ATOM     16  C   UNL d   1     -38.071  15.126  16.398  0.00  0.00     0.000 A 
ATOM     17  C   UNL d   1     -40.736  14.598  17.608  0.00  0.00     0.042 A 
ATOM     18  C   UNL d   1     -40.216  13.976  17.894  0.00  0.00     0.197 A 
ATOM     19  O   UNL d   1     -41.053  14.078  18.081  0.00  0.00    -0.286 OA
ENDBRANCH   2   9
BRANCH   1  20
ATOM     20  C   UNL d   1     -38.954  13.995  19.210  0.00  0.00     0.303 C 
ATOM     21  O   UNL d   1     -39.726  14.001  19.484  0.00  0.00    -0.259 OA
BRANCH  20  22
ATOM     22  O   UNL d   1     -38.424  14.587  19.429  0.00  0.00    -0.271 OA
BRANCH  22  23
ATOM     23  C   UNL d   1     -38.622  15.086  20.050  0.00  0.00     0.126 C 
ATOM     24  C   UNL d   1     -38.054  15.572  20.388  0.00  0.00     0.029 C 
ENDBRANCH  22  23
ENDBRANCH  20  22
ENDBRANCH   1  20
TORSDOF 4
ENDMDL
MODEL 7
REMARK VINA RESULT:      -5.9      8.719     10.394
REMARK  4 active torsions:
REMARK  status: ('A' for Active; 'I' for Inactive)
REMARK    1  A    between atoms: C_8  and  C_1 
REMARK    2  A    between atoms: C_4  and  C_2 
REMARK    3  A    between atoms: O_16  and  C_8 
REMARK    4  A    between atoms: C_21  and  O_16 
ROOT
ATOM      1  C   UNL d   1     -39.127  14.220  17.754  0.00  0.00     0.099 A 
ATOM      2  C   UNL d   1     -38.934  14.060  18.540  0.00  0.00     0.096 A 
ATOM      3  C   UNL d   1     -39.045  13.618  17.177  0.00  0.00     0.093 A 
ATOM      4  C   UNL d   1     -38.579  12.718  18.181  0.00  0.00     0.369 A 
ATOM      5  N   UNL d   1     -38.770  12.868  17.396  0.00  0.00    -0.191 NA
ATOM      6  N   UNL d   1     -38.661  13.311  18.751  0.00  0.00    -0.191 NA
ATOM      7  O   UNL d   1     -38.305  11.967  18.400  0.00  0.00    -0.242 OA
ATOM      8  C   UNL d   1     -39.234  13.765  16.394  0.00  0.00     0.021 C 
ENDROOT
BRANCH   2   9
ATOM      9  C   UNL d   1     -39.014  14.647  19.103  0.00  0.00     0.057 A 
ATOM     10  C   UNL d   1     -39.642  14.632  19.637  0.00  0.00     0.005 A 
ATOM     11  C   UNL d   1     -39.724  15.225  20.207  0.00  0.00     0.000 A 
ATOM     12  C   UNL d   1     -40.194  14.012  19.596  0.00  0.00     0.000 A 
ATOM     13  C   UNL d   1     -40.357  15.202  20.738  0.00  0.00     0.000 A 
ATOM     14  C   UNL d   1     -39.178  15.837  20.246  0.00  0.00     0.003 A 
ATOM     15  C   UNL d   1     -40.906  14.589  20.700  0.00  0.00     0.000 A 
ATOM     16  C   UNL d   1     -40.824  13.996  20.130  0.00  0.00     0.000 A 
ATOM     17  C   UNL d   1     -38.545  15.860  19.714  0.00  0.00     0.042 A 
ATOM     18  C   UNL d   1     -38.460  15.243  19.122  0.00  0.00     0.197 A 
ATOM     19  O   UNL d   1     -37.940  15.922  19.240  0.00  0.00    -0.286 OA
ENDBRANCH   2   9
BRANCH   1  20
ATOM     20  C   UNL d   1     -39.399  14.969  17.549  0.00  0.00     0.303 C 
ATOM     21  O   UNL d   1     -38.881  15.603  17.529  0.00  0.00    -0.259 OA
BRANCH  20  22
ATOM     22  O   UNL d   1     -40.196  15.070  17.365  0.00  0.00    -0.271 OA
BRANCH  22  23
ATOM     23  C   UNL d   1     -40.414  15.688  16.870  0.00  0.00     0.126 C 
ATOM     24  C   UNL d   1     -41.206  15.858  16.744  0.00  0.00     0.029 C 
ENDBRANCH  22  23
ENDBRANCH  20  22
ENDBRANCH   1  20
TORSDOF 4
ENDMDL
