MODEL 1
REMARK VINA RESULT:      95.6      0.000      0.000
REMARK  2 active torsions:
REMARK  status: ('A' for Active; 'I' for Inactive)
REMARK    1  A    between atoms: C_2  and  C_1 
REMARK    2  A    between atoms: C_14  and  C_8 
ROOT
ATOM      1  C   UNL d   1      57.986  49.507  51.708  0.00  0.00     0.106 A 
ATOM      2  C   UNL d   1      57.224  49.536  51.415  0.00  0.00     0.304 A 
ATOM      3  C   UNL d   1      58.109  49.535  52.525  0.00  0.00     0.011 A 
ATOM      4  C   UNL d   1      57.478  49.590  53.043  0.00  0.00     0.023 A 
ATOM      5  O   UNL d   1      56.554  49.592  51.930  0.00  0.00    -0.273 OA
ATOM      6  C   UNL d   1      56.715  49.618  52.750  0.00  0.00     0.103 A 
ATOM      7  C   UNL d   1      57.600  49.618  53.860  0.00  0.00     0.002 A 
ATOM      8  O   UNL d   1      57.101  49.507  50.570  0.00  0.00    -0.259 OA
ATOM      9  C   UNL d   1      56.046  49.675  53.265  0.00  0.00     0.025 A 
ATOM     10  C   UNL d   1      56.967  49.673  54.382  0.00  0.00     0.000 A 
ATOM     11  C   UNL d   1      56.205  49.701  54.090  0.00  0.00     0.002 A 
ATOM     12  C   UNL d   1      58.378  49.589  54.158  0.00  0.00     0.000 A 
ATOM     13  C   UNL d   1      57.090  49.701  55.200  0.00  0.00     0.000 A 
ATOM     14  C   UNL d   1      58.507  49.617  54.972  0.00  0.00     0.000 A 
ATOM     15  C   UNL d   1      57.862  49.674  55.513  0.00  0.00     0.000 A 
ENDROOT
BRANCH   1  16
ATOM     16  C   UNL d   1      58.621  49.452  51.180  0.00  0.00     0.210 A 
ATOM     17  O   UNL d   1      59.397  49.207  51.324  0.00  0.00    -0.268 OA
ATOM     18  C   UNL d   1      59.801  49.256  50.612  0.00  0.00     0.204 A 
ATOM     19  N   UNL d   1      59.290  49.526  50.036  0.00  0.00    -0.121 NA
ATOM     20  N   UNL d   1      58.556  49.650  50.378  0.00  0.00    -0.121 NA
BRANCH  18  21
ATOM     21  C   UNL d   1      60.579  49.083  50.429  0.00  0.00     0.043 A 
ATOM     22  C   UNL d   1      60.815  48.311  50.331  0.00  0.00     0.004 A 
ATOM     23  C   UNL d   1      61.602  48.131  50.146  0.00  0.00     0.000 A 
ATOM     24  C   UNL d   1      62.143  48.730  50.062  0.00  0.00     0.000 A 
ATOM     25  C   UNL d   1      61.898  49.510  50.162  0.00  0.00     0.000 A 
ATOM     26  C   UNL d   1      61.122  49.688  50.345  0.00  0.00     0.004 A 
ENDBRANCH  18  21
ENDBRANCH   1  16
TORSDOF 2
ENDMDL
