MODEL 1
REMARK VINA RESULT:      -3.0      0.000      0.000
REMARK  5 active torsions:
REMARK  status: ('A' for Active; 'I' for Inactive)
REMARK    1  A    between atoms: N_6  and  C_1 
REMARK    2  A    between atoms: S_10  and  C_4 
REMARK       I    between atoms: C_7  and  N_6 
REMARK       I    between atoms: N_8  and  C_7 
REMARK    3  A    between atoms: C_11  and  N_8 
REMARK    4  A    between atoms: C_12  and  S_10 
REMARK    5  A    between atoms: C_15  and  C_12 
ROOT
ATOM      1  N   UNL d   1      32.909  19.837 -22.060  0.00  0.00    -0.321 NA
ATOM      2  C   UNL d   1      33.031  20.366 -21.602  0.00  0.00     0.422 C 
ATOM      3  N   UNL d   1      33.196  21.005 -21.021  0.00  0.00    -0.180 NA
ATOM      4  O   UNL d   1      32.637  20.808 -21.980  0.00  0.00    -0.228 OA
ENDROOT
BRANCH   1   5
ATOM      5  C   UNL d   1      32.862  19.090 -22.516  0.00  0.00     0.271 A 
ATOM      6  S   UNL d   1      32.565  18.873 -23.122  0.00  0.00    -0.006 SA
ATOM      7  C   UNL d   1      32.650  18.192 -23.323  0.00  0.00     0.166 A 
ATOM      8  N   UNL d   1      33.025  17.742 -22.921  0.00  0.00    -0.132 NA
ATOM      9  N   UNL d   1      33.238  18.640 -22.113  0.00  0.00    -0.107 NA
BRANCH   7  10
ATOM     10  S   UNL d   1      32.402  17.845 -23.913  0.00  0.00    -0.059 SA
BRANCH  10  11
ATOM     11  C   UNL d   1      31.889  17.203 -23.829  0.00  0.00     0.037 C 
BRANCH  11  12
ATOM     12  C   UNL d   1      31.562  16.849 -24.498  0.00  0.00     0.007 C 
ATOM     13  C   UNL d   1      30.921  16.337 -24.428  0.00  0.00     0.001 C 
ENDBRANCH  11  12
ENDBRANCH  10  11
ENDBRANCH   7  10
ENDBRANCH   1   5
BRANCH   3  14
ATOM     14  C   UNL d   1      32.866  21.762 -21.139  0.00  0.00     0.087 A 
ATOM     15  C   UNL d   1      32.177  21.968 -20.752  0.00  0.00     0.019 A 
ATOM     16  C   UNL d   1      31.846  22.726 -20.870  0.00  0.00     0.002 A 
ATOM     17  C   UNL d   1      32.213  23.263 -21.372  0.00  0.00     0.000 A 
ATOM     18  C   UNL d   1      32.916  23.052 -21.766  0.00  0.00     0.002 A 
ATOM     19  C   UNL d   1      33.241  22.299 -21.647  0.00  0.00     0.019 A 
ENDBRANCH   3  14
TORSDOF 5
ENDMDL
MODEL 2
REMARK VINA RESULT:      -3.0      1.317      4.904
REMARK  5 active torsions:
REMARK  status: ('A' for Active; 'I' for Inactive)
REMARK    1  A    between atoms: N_6  and  C_1 
REMARK    2  A    between atoms: S_10  and  C_4 
REMARK       I    between atoms: C_7  and  N_6 
REMARK       I    between atoms: N_8  and  C_7 
REMARK    3  A    between atoms: C_11  and  N_8 
REMARK    4  A    between atoms: C_12  and  S_10 
REMARK    5  A    between atoms: C_15  and  C_12 
ROOT
ATOM      1  N   UNL d   1      33.004  19.597 -22.461  0.00  0.00    -0.321 NA
ATOM      2  C   UNL d   1      33.088  19.121 -22.981  0.00  0.00     0.422 C 
ATOM      3  N   UNL d   1      33.212  18.543 -23.632  0.00  0.00    -0.180 NA
ATOM      4  O   UNL d   1      32.517  18.767 -22.773  0.00  0.00    -0.228 OA
ENDROOT
BRANCH   1   5
ATOM      5  C   UNL d   1      33.046  20.259 -21.889  0.00  0.00     0.271 A 
ATOM      6  S   UNL d   1      33.036  20.968 -21.917  0.00  0.00    -0.006 SA
ATOM      7  C   UNL d   1      33.085  21.339 -21.307  0.00  0.00     0.166 A 
ATOM      8  N   UNL d   1      33.143  21.001 -20.684  0.00  0.00    -0.132 NA
ATOM      9  N   UNL d   1      33.104  19.921 -21.266  0.00  0.00    -0.107 NA
BRANCH   7  10
ATOM     10  S   UNL d   1      33.087  22.057 -21.196  0.00  0.00    -0.059 SA
BRANCH  10  11
ATOM     11  C   UNL d   1      32.375  22.460 -21.086  0.00  0.00     0.037 C 
BRANCH  11  12
ATOM     12  C   UNL d   1      32.372  23.283 -21.033  0.00  0.00     0.007 C 
ATOM     13  C   UNL d   1      31.663  23.701 -21.058  0.00  0.00     0.001 C 
ENDBRANCH  11  12
ENDBRANCH  10  11
ENDBRANCH   7  10
ENDBRANCH   1   5
BRANCH   3  14
ATOM     14  C   UNL d   1      32.681  17.906 -23.722  0.00  0.00     0.087 A 
ATOM     15  C   UNL d   1      32.844  17.189 -23.368  0.00  0.00     0.019 A 
ATOM     16  C   UNL d   1      32.313  16.551 -23.459  0.00  0.00     0.002 A 
ATOM     17  C   UNL d   1      31.627  16.644 -23.903  0.00  0.00     0.000 A 
ATOM     18  C   UNL d   1      31.462  17.376 -24.264  0.00  0.00     0.002 A 
ATOM     19  C   UNL d   1      31.991  18.007 -24.172  0.00  0.00     0.019 A 
ENDBRANCH   3  14
TORSDOF 5
ENDMDL
MODEL 3
REMARK VINA RESULT:      -2.8      1.330      5.088
REMARK  5 active torsions:
REMARK  status: ('A' for Active; 'I' for Inactive)
REMARK    1  A    between atoms: N_6  and  C_1 
REMARK    2  A    between atoms: S_10  and  C_4 
REMARK       I    between atoms: C_7  and  N_6 
REMARK       I    between atoms: N_8  and  C_7 
REMARK    3  A    between atoms: C_11  and  N_8 
REMARK    4  A    between atoms: C_12  and  S_10 
REMARK    5  A    between atoms: C_15  and  C_12 
ROOT
ATOM      1  N   UNL d   1      32.905  18.884 -22.905  0.00  0.00    -0.321 NA
ATOM      2  C   UNL d   1      32.940  18.310 -23.321  0.00  0.00     0.422 C 
ATOM      3  N   UNL d   1      33.001  17.610 -23.849  0.00  0.00    -0.180 NA
ATOM      4  O   UNL d   1      32.418  18.000 -22.967  0.00  0.00    -0.228 OA
ENDROOT
BRANCH   1   5
ATOM      5  C   UNL d   1      32.995  19.652 -22.494  0.00  0.00     0.271 A 
ATOM      6  S   UNL d   1      32.925  19.895 -21.831  0.00  0.00    -0.006 SA
ATOM      7  C   UNL d   1      33.050  20.588 -21.701  0.00  0.00     0.166 A 
ATOM      8  N   UNL d   1      33.241  21.024 -22.230  0.00  0.00    -0.132 NA
ATOM      9  N   UNL d   1      33.186  20.089 -23.022  0.00  0.00    -0.107 NA
BRANCH   7  10
ATOM     10  S   UNL d   1      33.016  20.960 -21.078  0.00  0.00    -0.059 SA
BRANCH  10  11
ATOM     11  C   UNL d   1      32.602  21.674 -21.046  0.00  0.00     0.037 C 
BRANCH  11  12
ATOM     12  C   UNL d   1      32.438  22.021 -20.315  0.00  0.00     0.007 C 
ATOM     13  C   UNL d   1      32.429  22.841 -20.235  0.00  0.00     0.001 C 
ENDBRANCH  11  12
ENDBRANCH  10  11
ENDBRANCH   7  10
ENDBRANCH   1   5
BRANCH   3  14
ATOM     14  C   UNL d   1      32.490  16.960 -23.731  0.00  0.00     0.087 A 
ATOM     15  C   UNL d   1      31.732  16.981 -24.033  0.00  0.00     0.019 A 
ATOM     16  C   UNL d   1      31.220  16.331 -23.915  0.00  0.00     0.002 A 
ATOM     17  C   UNL d   1      31.479  15.673 -23.496  0.00  0.00     0.000 A 
ATOM     18  C   UNL d   1      32.253  15.653 -23.189  0.00  0.00     0.002 A 
ATOM     19  C   UNL d   1      32.757  16.299 -23.308  0.00  0.00     0.019 A 
ENDBRANCH   3  14
TORSDOF 5
ENDMDL
MODEL 4
REMARK VINA RESULT:      -2.6      1.880      5.407
REMARK  5 active torsions:
REMARK  status: ('A' for Active; 'I' for Inactive)
REMARK    1  A    between atoms: N_6  and  C_1 
REMARK    2  A    between atoms: S_10  and  C_4 
REMARK       I    between atoms: C_7  and  N_6 
REMARK       I    between atoms: N_8  and  C_7 
REMARK    3  A    between atoms: C_11  and  N_8 
REMARK    4  A    between atoms: C_12  and  S_10 
REMARK    5  A    between atoms: C_15  and  C_12 
ROOT
ATOM      1  N   UNL d   1      31.620  17.455 -23.925  0.00  0.00    -0.321 NA
ATOM      2  C   UNL d   1      31.261  16.884 -24.148  0.00  0.00     0.422 C 
ATOM      3  N   UNL d   1      30.834  16.173 -24.439  0.00  0.00    -0.180 NA
ATOM      4  O   UNL d   1      30.724  17.032 -23.718  0.00  0.00    -0.228 OA
ENDROOT
BRANCH   1   5
ATOM      5  C   UNL d   1      32.187  18.103 -23.765  0.00  0.00     0.271 A 
ATOM      6  S   UNL d   1      32.433  18.446 -23.194  0.00  0.00    -0.006 SA
ATOM      7  C   UNL d   1      32.913  18.968 -23.285  0.00  0.00     0.166 A 
ATOM      8  N   UNL d   1      33.139  19.139 -23.937  0.00  0.00    -0.132 NA
ATOM      9  N   UNL d   1      32.413  18.274 -24.416  0.00  0.00    -0.107 NA
BRANCH   7  10
ATOM     10  S   UNL d   1      33.241  19.392 -22.793  0.00  0.00    -0.059 SA
BRANCH  10  11
ATOM     11  C   UNL d   1      32.789  19.845 -22.272  0.00  0.00     0.037 C 
BRANCH  11  12
ATOM     12  C   UNL d   1      33.139  20.470 -21.863  0.00  0.00     0.007 C 
ATOM     13  C   UNL d   1      32.713  20.885 -21.292  0.00  0.00     0.001 C 
ENDBRANCH  11  12
ENDBRANCH  10  11
ENDBRANCH   7  10
ENDBRANCH   1   5
BRANCH   3  14
ATOM     14  C   UNL d   1      30.080  15.991 -24.132  0.00  0.00     0.087 A 
ATOM     15  C   UNL d   1      30.016  15.635 -23.400  0.00  0.00     0.019 A 
ATOM     16  C   UNL d   1      29.262  15.453 -23.092  0.00  0.00     0.002 A 
ATOM     17  C   UNL d   1      28.585  15.631 -23.523  0.00  0.00     0.000 A 
ATOM     18  C   UNL d   1      28.652  15.994 -24.270  0.00  0.00     0.002 A 
ATOM     19  C   UNL d   1      29.402  16.173 -24.572  0.00  0.00     0.019 A 
ENDBRANCH   3  14
TORSDOF 5
ENDMDL
MODEL 5
REMARK VINA RESULT:      -2.3      0.935      1.445
REMARK  5 active torsions:
REMARK  status: ('A' for Active; 'I' for Inactive)
REMARK    1  A    between atoms: N_6  and  C_1 
REMARK    2  A    between atoms: S_10  and  C_4 
REMARK       I    between atoms: C_7  and  N_6 
REMARK       I    between atoms: N_8  and  C_7 
REMARK    3  A    between atoms: C_11  and  N_8 
REMARK    4  A    between atoms: C_12  and  S_10 
REMARK    5  A    between atoms: C_15  and  C_12 
ROOT
ATOM      1  N   UNL d   1      32.609  18.862 -22.955  0.00  0.00    -0.321 NA
ATOM      2  C   UNL d   1      32.880  19.246 -22.422  0.00  0.00     0.422 C 
ATOM      3  N   UNL d   1      33.231  19.703 -21.759  0.00  0.00    -0.180 NA
ATOM      4  O   UNL d   1      32.445  19.780 -22.562  0.00  0.00    -0.228 OA
ENDROOT
BRANCH   1   5
ATOM      5  C   UNL d   1      32.392  18.266 -23.559  0.00  0.00     0.271 A 
ATOM      6  S   UNL d   1      31.797  17.958 -23.791  0.00  0.00    -0.006 SA
ATOM      7  C   UNL d   1      31.840  17.475 -24.317  0.00  0.00     0.166 A 
ATOM      8  N   UNL d   1      32.470  17.308 -24.602  0.00  0.00    -0.132 NA
ATOM      9  N   UNL d   1      33.022  18.099 -23.844  0.00  0.00    -0.107 NA
BRANCH   7  10
ATOM     10  S   UNL d   1      31.316  17.091 -24.643  0.00  0.00    -0.059 SA
BRANCH  10  11
ATOM     11  C   UNL d   1      30.618  16.917 -24.237  0.00  0.00     0.037 C 
BRANCH  11  12
ATOM     12  C   UNL d   1      29.997  16.543 -24.629  0.00  0.00     0.007 C 
ATOM     13  C   UNL d   1      29.418  16.139 -24.204  0.00  0.00     0.001 C 
ENDBRANCH  11  12
ENDBRANCH  10  11
ENDBRANCH   7  10
ENDBRANCH   1   5
BRANCH   3  14
ATOM     14  C   UNL d   1      32.946  20.469 -21.591  0.00  0.00     0.087 A 
ATOM     15  C   UNL d   1      32.382  20.574 -21.010  0.00  0.00     0.019 A 
ATOM     16  C   UNL d   1      32.097  21.340 -20.842  0.00  0.00     0.002 A 
ATOM     17  C   UNL d   1      32.382  21.988 -21.259  0.00  0.00     0.000 A 
ATOM     18  C   UNL d   1      32.958  21.881 -21.852  0.00  0.00     0.002 A 
ATOM     19  C   UNL d   1      33.239  21.119 -22.016  0.00  0.00     0.019 A 
ENDBRANCH   3  14
TORSDOF 5
ENDMDL
MODEL 6
REMARK VINA RESULT:      -1.7      2.648      3.829
REMARK  5 active torsions:
REMARK  status: ('A' for Active; 'I' for Inactive)
REMARK    1  A    between atoms: N_6  and  C_1 
REMARK    2  A    between atoms: S_10  and  C_4 
REMARK       I    between atoms: C_7  and  N_6 
REMARK       I    between atoms: N_8  and  C_7 
REMARK    3  A    between atoms: C_11  and  N_8 
REMARK    4  A    between atoms: C_12  and  S_10 
REMARK    5  A    between atoms: C_15  and  C_12 
ROOT
ATOM      1  N   UNL d   1      33.032  22.716 -20.146  0.00  0.00    -0.321 NA
ATOM      2  C   UNL d   1      33.029  23.148 -19.583  0.00  0.00     0.422 C 
ATOM      3  N   UNL d   1      33.034  23.701 -18.900  0.00  0.00    -0.180 NA
ATOM      4  O   UNL d   1      32.774  22.639 -19.171  0.00  0.00    -0.228 OA
ENDROOT
BRANCH   1   5
ATOM      5  C   UNL d   1      33.100  22.324 -20.926  0.00  0.00     0.271 A 
ATOM      6  S   UNL d   1      33.138  21.659 -21.170  0.00  0.00    -0.006 SA
ATOM      7  C   UNL d   1      33.191  21.551 -21.875  0.00  0.00     0.166 A 
ATOM      8  N   UNL d   1      33.206  22.102 -22.323  0.00  0.00    -0.132 NA
ATOM      9  N   UNL d   1      33.115  22.876 -21.375  0.00  0.00    -0.107 NA
BRANCH   7  10
ATOM     10  S   UNL d   1      33.238  20.930 -22.250  0.00  0.00    -0.059 SA
BRANCH  10  11
ATOM     11  C   UNL d   1      32.785  20.277 -22.025  0.00  0.00     0.037 C 
BRANCH  11  12
ATOM     12  C   UNL d   1      32.935  19.538 -22.361  0.00  0.00     0.007 C 
ATOM     13  C   UNL d   1      32.313  19.065 -22.623  0.00  0.00     0.001 C 
ENDBRANCH  11  12
ENDBRANCH  10  11
ENDBRANCH   7  10
ENDBRANCH   1   5
BRANCH   3  14
ATOM     14  C   UNL d   1      32.773  23.435 -18.153  0.00  0.00     0.087 A 
ATOM     15  C   UNL d   1      33.240  22.926 -17.719  0.00  0.00     0.019 A 
ATOM     16  C   UNL d   1      32.979  22.659 -16.971  0.00  0.00     0.002 A 
ATOM     17  C   UNL d   1      32.255  22.908 -16.674  0.00  0.00     0.000 A 
ATOM     18  C   UNL d   1      31.779  23.428 -17.118  0.00  0.00     0.002 A 
ATOM     19  C   UNL d   1      32.041  23.690 -17.859  0.00  0.00     0.019 A 
ENDBRANCH   3  14
TORSDOF 5
ENDMDL
MODEL 7
REMARK VINA RESULT:      -1.6      2.390      5.327
REMARK  5 active torsions:
REMARK  status: ('A' for Active; 'I' for Inactive)
REMARK    1  A    between atoms: N_6  and  C_1 
REMARK    2  A    between atoms: S_10  and  C_4 
REMARK       I    between atoms: C_7  and  N_6 
REMARK       I    between atoms: N_8  and  C_7 
REMARK    3  A    between atoms: C_11  and  N_8 
REMARK    4  A    between atoms: C_12  and  S_10 
REMARK    5  A    between atoms: C_15  and  C_12 
ROOT
ATOM      1  N   UNL d   1      32.849  21.650 -21.464  0.00  0.00    -0.321 NA
ATOM      2  C   UNL d   1      33.019  21.258 -22.032  0.00  0.00     0.422 C 
ATOM      3  N   UNL d   1      33.235  20.794 -22.747  0.00  0.00    -0.180 NA
ATOM      4  O   UNL d   1      32.836  20.666 -21.700  0.00  0.00    -0.228 OA
ENDROOT
BRANCH   1   5
ATOM      5  C   UNL d   1      32.691  22.269 -20.866  0.00  0.00     0.271 A 
ATOM      6  S   UNL d   1      33.020  22.533 -20.295  0.00  0.00    -0.006 SA
ATOM      7  C   UNL d   1      32.706  23.061 -19.928  0.00  0.00     0.166 A 
ATOM      8  N   UNL d   1      32.075  23.315 -20.133  0.00  0.00    -0.132 NA
ATOM      9  N   UNL d   1      32.059  22.524 -21.070  0.00  0.00    -0.107 NA
BRANCH   7  10
ATOM     10  S   UNL d   1      32.931  23.415 -19.334  0.00  0.00    -0.059 SA
BRANCH  10  11
ATOM     11  C   UNL d   1      32.709  23.149 -18.585  0.00  0.00     0.037 C 
BRANCH  11  12
ATOM     12  C   UNL d   1      32.793  23.645 -17.931  0.00  0.00     0.007 C 
ATOM     13  C   UNL d   1      32.798  23.333 -17.169  0.00  0.00     0.001 C 
ENDBRANCH  11  12
ENDBRANCH  10  11
ENDBRANCH   7  10
ENDBRANCH   1   5
BRANCH   3  14
ATOM     14  C   UNL d   1      33.148  19.964 -22.739  0.00  0.00     0.087 A 
ATOM     15  C   UNL d   1      33.239  19.554 -22.039  0.00  0.00     0.019 A 
ATOM     16  C   UNL d   1      33.152  18.723 -22.032  0.00  0.00     0.002 A 
ATOM     17  C   UNL d   1      32.976  18.319 -22.726  0.00  0.00     0.000 A 
ATOM     18  C   UNL d   1      32.884  18.740 -23.440  0.00  0.00     0.002 A 
ATOM     19  C   UNL d   1      32.971  19.564 -23.443  0.00  0.00     0.019 A 
ENDBRANCH   3  14
TORSDOF 5
ENDMDL
MODEL 8
REMARK VINA RESULT:      -0.5      1.915      4.990
REMARK  5 active torsions:
REMARK  status: ('A' for Active; 'I' for Inactive)
REMARK    1  A    between atoms: N_6  and  C_1 
REMARK    2  A    between atoms: S_10  and  C_4 
REMARK       I    between atoms: C_7  and  N_6 
REMARK       I    between atoms: N_8  and  C_7 
REMARK    3  A    between atoms: C_11  and  N_8 
REMARK    4  A    between atoms: C_12  and  S_10 
REMARK    5  A    between atoms: C_15  and  C_12 
ROOT
ATOM      1  N   UNL d   1      32.961  19.379 -23.626  0.00  0.00    -0.321 NA
ATOM      2  C   UNL d   1      33.020  18.738 -23.926  0.00  0.00     0.422 C 
ATOM      3  N   UNL d   1      33.117  17.950 -24.303  0.00  0.00    -0.180 NA
ATOM      4  O   UNL d   1      32.347  18.591 -23.787  0.00  0.00    -0.228 OA
ENDROOT
BRANCH   1   5
ATOM      5  C   UNL d   1      33.060  20.186 -23.300  0.00  0.00     0.271 A 
ATOM      6  S   UNL d   1      33.085  20.847 -23.556  0.00  0.00    -0.006 SA
ATOM      7  C   UNL d   1      33.176  21.391 -23.100  0.00  0.00     0.166 A 
ATOM      8  N   UNL d   1      33.241  21.269 -22.402  0.00  0.00    -0.132 NA
ATOM      9  N   UNL d   1      33.124  20.064 -22.603  0.00  0.00    -0.107 NA
BRANCH   7  10
ATOM     10  S   UNL d   1      33.219  22.106 -23.227  0.00  0.00    -0.059 SA
BRANCH  10  11
ATOM     11  C   UNL d   1      33.171  22.391 -24.001  0.00  0.00     0.037 C 
BRANCH  11  12
ATOM     12  C   UNL d   1      32.966  23.178 -24.136  0.00  0.00     0.007 C 
ATOM     13  C   UNL d   1      32.908  23.468 -24.905  0.00  0.00     0.001 C 
ENDBRANCH  11  12
ENDBRANCH  10  11
ENDBRANCH   7  10
ENDBRANCH   1   5
BRANCH   3  14
ATOM     14  C   UNL d   1      32.467  17.428 -24.336  0.00  0.00     0.087 A 
ATOM     15  C   UNL d   1      32.405  16.823 -23.791  0.00  0.00     0.019 A 
ATOM     16  C   UNL d   1      31.755  16.300 -23.823  0.00  0.00     0.002 A 
ATOM     17  C   UNL d   1      31.178  16.393 -24.402  0.00  0.00     0.000 A 
ATOM     18  C   UNL d   1      31.242  17.011 -24.957  0.00  0.00     0.002 A 
ATOM     19  C   UNL d   1      31.889  17.527 -24.922  0.00  0.00     0.019 A 
ENDBRANCH   3  14
TORSDOF 5
ENDMDL
