MODEL 1
REMARK VINA RESULT:      -8.2      0.000      0.000
REMARK  4 active torsions:
REMARK  status: ('A' for Active; 'I' for Inactive)
REMARK    1  A    between atoms: C_7  and  C_1 
REMARK    2  A    between atoms: C_13  and  N_2 
REMARK    3  A    between atoms: C_8  and  C_7 
REMARK    4  A    between atoms: N_9  and  C_14 
ROOT
ATOM      1  N   UNL d   1     -46.462  13.147  22.748  0.00  0.00    -0.242 N 
ATOM      2  C   UNL d   1     -46.724  13.929  22.861  0.00  0.00     0.267 A 
ATOM      3  C   UNL d   1     -47.101  12.646  22.895  0.00  0.00     0.267 A 
ATOM      4  C   UNL d   1     -47.755  13.108  23.097  0.00  0.00     0.062 A 
ATOM      5  C   UNL d   1     -47.522  13.900  23.076  0.00  0.00     0.066 A 
ATOM      6  O   UNL d   1     -46.266  14.603  22.772  0.00  0.00    -0.267 OA
ATOM      7  O   UNL d   1     -47.084  11.820  22.847  0.00  0.00    -0.267 OA
ENDROOT
BRANCH   4   8
ATOM      8  C   UNL d   1     -48.506  12.829  23.287  0.00  0.00     0.018 C 
BRANCH   8   9
ATOM      9  C   UNL d   1     -49.103  13.196  22.865  0.00  0.00     0.045 A 
ATOM     10  N   UNL d   1     -49.453  13.914  23.047  0.00  0.00    -0.308 N 
ATOM     11  C   UNL d   1     -50.023  14.079  22.486  0.00  0.00     0.060 A 
ATOM     12  C   UNL d   1     -49.259  14.392  23.692  0.00  0.00     0.099 C 
ATOM     13  C   UNL d   1     -50.535  14.708  22.391  0.00  0.00     0.017 A 
ATOM     14  C   UNL d   1     -50.031  13.459  21.948  0.00  0.00    -0.002 A 
ATOM     15  C   UNL d   1     -51.064  14.722  21.753  0.00  0.00     0.002 A 
ATOM     16  C   UNL d   1     -51.064  14.093  21.216  0.00  0.00    -0.000 A 
ATOM     17  C   UNL d   1     -50.554  13.469  21.312  0.00  0.00    -0.003 A 
ATOM     18  C   UNL d   1     -49.460  12.911  22.182  0.00  0.00     0.054 A 
ATOM     19  C   UNL d   1     -49.315  12.211  21.763  0.00  0.00     0.010 C 
ATOM     20  C   UNL d   1     -49.896  12.740  21.499  0.00  0.00     0.010 C 
ENDBRANCH   8   9
ENDBRANCH   4   8
BRANCH   1  21
ATOM     21  C   UNL d   1     -45.708  12.915  22.531  0.00  0.00     0.070 A 
ATOM     22  C   UNL d   1     -45.292  12.362  22.987  0.00  0.00     0.019 A 
ATOM     23  C   UNL d   1     -44.534  12.134  22.762  0.00  0.00     0.025 A 
ATOM     24  C   UNL d   1     -44.191  12.451  22.089  0.00  0.00     0.127 A 
ATOM     25  C   UNL d   1     -44.608  13.004  21.633  0.00  0.00     0.025 A 
ATOM     26  C   UNL d   1     -45.365  13.236  21.854  0.00  0.00     0.019 A 
BRANCH  24  27
ATOM     27  N   UNL d   1     -43.433  12.223  21.864  0.00  0.00    -0.114 N 
ATOM     28  O   UNL d   1     -43.024  12.649  21.291  0.00  0.00    -0.532 OA
ATOM     29  O   UNL d   1     -43.085  11.569  22.212  0.00  0.00    -0.532 OA
ENDBRANCH  24  27
ENDBRANCH   1  21
TORSDOF 4
ENDMDL
MODEL 2
REMARK VINA RESULT:      -8.2      1.189      1.608
REMARK  4 active torsions:
REMARK  status: ('A' for Active; 'I' for Inactive)
REMARK    1  A    between atoms: C_7  and  C_1 
REMARK    2  A    between atoms: C_13  and  N_2 
REMARK    3  A    between atoms: C_8  and  C_7 
REMARK    4  A    between atoms: N_9  and  C_14 
ROOT
ATOM      1  N   UNL d   1     -46.380  13.010  22.631  0.00  0.00    -0.242 N 
ATOM      2  C   UNL d   1     -46.379  13.787  22.930  0.00  0.00     0.267 A 
ATOM      3  C   UNL d   1     -47.033  12.936  22.132  0.00  0.00     0.267 A 
ATOM      4  C   UNL d   1     -47.436  13.656  22.119  0.00  0.00     0.062 A 
ATOM      5  C   UNL d   1     -47.033  14.182  22.612  0.00  0.00     0.066 A 
ATOM      6  O   UNL d   1     -45.826  14.098  23.448  0.00  0.00    -0.267 OA
ATOM      7  O   UNL d   1     -47.244  12.252  21.717  0.00  0.00    -0.267 OA
ENDROOT
BRANCH   4   8
ATOM      8  C   UNL d   1     -48.120  13.822  21.691  0.00  0.00     0.018 C 
BRANCH   8   9
ATOM      9  C   UNL d   1     -48.741  14.073  22.159  0.00  0.00     0.045 A 
ATOM     10  N   UNL d   1     -48.863  14.836  22.434  0.00  0.00    -0.308 N 
ATOM     11  C   UNL d   1     -49.546  14.849  22.881  0.00  0.00     0.060 A 
ATOM     12  C   UNL d   1     -48.373  15.483  22.282  0.00  0.00     0.099 C 
ATOM     13  C   UNL d   1     -49.928  15.448  23.283  0.00  0.00     0.017 A 
ATOM     14  C   UNL d   1     -49.856  14.089  22.887  0.00  0.00    -0.002 A 
ATOM     15  C   UNL d   1     -50.629  15.291  23.698  0.00  0.00     0.002 A 
ATOM     16  C   UNL d   1     -50.933  14.523  23.698  0.00  0.00    -0.000 A 
ATOM     17  C   UNL d   1     -50.551  13.928  23.297  0.00  0.00    -0.003 A 
ATOM     18  C   UNL d   1     -49.357  13.607  22.440  0.00  0.00     0.054 A 
ATOM     19  C   UNL d   1     -49.501  12.799  22.326  0.00  0.00     0.010 C 
ATOM     20  C   UNL d   1     -50.024  13.254  22.782  0.00  0.00     0.010 C 
ENDBRANCH   8   9
ENDBRANCH   4   8
BRANCH   1  21
ATOM     21  C   UNL d   1     -45.833  12.426  22.799  0.00  0.00     0.070 A 
ATOM     22  C   UNL d   1     -45.067  12.465  22.485  0.00  0.00     0.019 A 
ATOM     23  C   UNL d   1     -44.523  11.873  22.659  0.00  0.00     0.025 A 
ATOM     24  C   UNL d   1     -44.737  11.246  23.141  0.00  0.00     0.127 A 
ATOM     25  C   UNL d   1     -45.503  11.207  23.454  0.00  0.00     0.025 A 
ATOM     26  C   UNL d   1     -46.051  11.795  23.284  0.00  0.00     0.019 A 
BRANCH  24  27
ATOM     27  N   UNL d   1     -44.193  10.653  23.315  0.00  0.00    -0.114 N 
ATOM     28  O   UNL d   1     -44.434   9.966  23.698  0.00  0.00    -0.532 OA
ATOM     29  O   UNL d   1     -43.406  10.748  23.106  0.00  0.00    -0.532 OA
ENDBRANCH  24  27
ENDBRANCH   1  21
TORSDOF 4
ENDMDL
MODEL 3
REMARK VINA RESULT:      -7.3      8.286      9.666
REMARK  4 active torsions:
REMARK  status: ('A' for Active; 'I' for Inactive)
REMARK    1  A    between atoms: C_7  and  C_1 
REMARK    2  A    between atoms: C_13  and  N_2 
REMARK    3  A    between atoms: C_8  and  C_7 
REMARK    4  A    between atoms: N_9  and  C_14 
ROOT
ATOM      1  N   UNL d   1     -39.924  14.672  18.889  0.00  0.00    -0.242 N 
ATOM      2  C   UNL d   1     -40.191  14.127  19.458  0.00  0.00     0.267 A 
ATOM      3  C   UNL d   1     -39.159  14.897  19.099  0.00  0.00     0.267 A 
ATOM      4  C   UNL d   1     -38.950  14.498  19.791  0.00  0.00     0.062 A 
ATOM      5  C   UNL d   1     -39.587  14.023  20.013  0.00  0.00     0.066 A 
ATOM      6  O   UNL d   1     -40.925  13.762  19.461  0.00  0.00    -0.267 OA
ATOM      7  O   UNL d   1     -38.685  15.433  18.683  0.00  0.00    -0.267 OA
ENDROOT
BRANCH   4   8
ATOM      8  C   UNL d   1     -38.232  14.563  20.190  0.00  0.00     0.018 C 
BRANCH   8   9
ATOM      9  C   UNL d   1     -38.295  14.422  20.993  0.00  0.00     0.045 A 
ATOM     10  N   UNL d   1     -38.502  14.971  21.566  0.00  0.00    -0.308 N 
ATOM     11  C   UNL d   1     -38.499  14.603  22.295  0.00  0.00     0.060 A 
ATOM     12  C   UNL d   1     -38.683  15.764  21.426  0.00  0.00     0.099 C 
ATOM     13  C   UNL d   1     -38.659  14.876  23.048  0.00  0.00     0.017 A 
ATOM     14  C   UNL d   1     -38.288  13.819  22.179  0.00  0.00    -0.002 A 
ATOM     15  C   UNL d   1     -38.609  14.362  23.697  0.00  0.00     0.002 A 
ATOM     16  C   UNL d   1     -38.396  13.573  23.570  0.00  0.00    -0.000 A 
ATOM     17  C   UNL d   1     -38.238  13.305  22.820  0.00  0.00    -0.003 A 
ATOM     18  C   UNL d   1     -38.162  13.705  21.371  0.00  0.00     0.054 A 
ATOM     19  C   UNL d   1     -37.940  12.974  21.053  0.00  0.00     0.010 C 
ATOM     20  C   UNL d   1     -38.059  13.052  21.870  0.00  0.00     0.010 C 
ENDBRANCH   8   9
ENDBRANCH   4   8
BRANCH   1  21
ATOM     21  C   UNL d   1     -40.343  14.938  18.238  0.00  0.00     0.070 A 
ATOM     22  C   UNL d   1     -40.339  14.505  17.531  0.00  0.00     0.019 A 
ATOM     23  C   UNL d   1     -40.762  14.778  16.882  0.00  0.00     0.025 A 
ATOM     24  C   UNL d   1     -41.187  15.477  16.931  0.00  0.00     0.127 A 
ATOM     25  C   UNL d   1     -41.192  15.909  17.638  0.00  0.00     0.025 A 
ATOM     26  C   UNL d   1     -40.770  15.641  18.291  0.00  0.00     0.019 A 
BRANCH  24  27
ATOM     27  N   UNL d   1     -41.611  15.751  16.282  0.00  0.00    -0.114 N 
ATOM     28  O   UNL d   1     -42.426  15.855  16.330  0.00  0.00    -0.532 OA
ATOM     29  O   UNL d   1     -41.220  15.921  15.583  0.00  0.00    -0.532 OA
ENDBRANCH  24  27
ENDBRANCH   1  21
TORSDOF 4
ENDMDL
MODEL 4
REMARK VINA RESULT:      -6.8      8.536     10.006
REMARK  4 active torsions:
REMARK  status: ('A' for Active; 'I' for Inactive)
REMARK    1  A    between atoms: C_7  and  C_1 
REMARK    2  A    between atoms: C_13  and  N_2 
REMARK    3  A    between atoms: C_8  and  C_7 
REMARK    4  A    between atoms: N_9  and  C_14 
ROOT
ATOM      1  N   UNL d   1     -39.028  14.532  20.028  0.00  0.00    -0.242 N 
ATOM      2  C   UNL d   1     -38.569  15.084  19.606  0.00  0.00     0.267 A 
ATOM      3  C   UNL d   1     -39.570  14.203  19.500  0.00  0.00     0.267 A 
ATOM      4  C   UNL d   1     -39.452  14.545  18.757  0.00  0.00     0.062 A 
ATOM      5  C   UNL d   1     -38.834  15.088  18.823  0.00  0.00     0.066 A 
ATOM      6  O   UNL d   1     -37.963  15.538  19.919  0.00  0.00    -0.267 OA
ATOM      7  O   UNL d   1     -40.135  13.629  19.688  0.00  0.00    -0.267 OA
ENDROOT
BRANCH   4   8
ATOM      8  C   UNL d   1     -39.876  14.373  18.073  0.00  0.00     0.018 C 
BRANCH   8   9
ATOM      9  C   UNL d   1     -39.456  14.525  17.387  0.00  0.00     0.045 A 
ATOM     10  N   UNL d   1     -39.439  15.235  16.977  0.00  0.00    -0.308 N 
ATOM     11  C   UNL d   1     -38.955  15.151  16.325  0.00  0.00     0.060 A 
ATOM     12  C   UNL d   1     -39.846  15.921  17.191  0.00  0.00     0.099 C 
ATOM     13  C   UNL d   1     -38.737  15.668  15.732  0.00  0.00     0.017 A 
ATOM     14  C   UNL d   1     -38.666  14.383  16.325  0.00  0.00    -0.002 A 
ATOM     15  C   UNL d   1     -38.225  15.420  15.129  0.00  0.00     0.002 A 
ATOM     16  C   UNL d   1     -37.940  14.644  15.138  0.00  0.00    -0.000 A 
ATOM     17  C   UNL d   1     -38.157  14.131  15.729  0.00  0.00    -0.003 A 
ATOM     18  C   UNL d   1     -38.977  13.994  16.984  0.00  0.00     0.054 A 
ATOM     19  C   UNL d   1     -38.801  13.204  17.159  0.00  0.00     0.010 C 
ATOM     20  C   UNL d   1     -38.471  13.563  16.489  0.00  0.00     0.010 C 
ENDBRANCH   8   9
ENDBRANCH   4   8
BRANCH   1  21
ATOM     21  C   UNL d   1     -38.956  14.348  20.822  0.00  0.00     0.070 A 
ATOM     22  C   UNL d   1     -39.563  14.539  21.353  0.00  0.00     0.019 A 
ATOM     23  C   UNL d   1     -39.483  14.350  22.149  0.00  0.00     0.025 A 
ATOM     24  C   UNL d   1     -38.807  13.975  22.419  0.00  0.00     0.127 A 
ATOM     25  C   UNL d   1     -38.200  13.784  21.887  0.00  0.00     0.025 A 
ATOM     26  C   UNL d   1     -38.274  13.970  21.090  0.00  0.00     0.019 A 
BRANCH  24  27
ATOM     27  N   UNL d   1     -38.727  13.786  23.215  0.00  0.00    -0.114 N 
ATOM     28  O   UNL d   1     -39.174  13.180  23.547  0.00  0.00    -0.532 OA
ATOM     29  O   UNL d   1     -38.198  14.204  23.682  0.00  0.00    -0.532 OA
ENDBRANCH  24  27
ENDBRANCH   1  21
TORSDOF 4
ENDMDL
MODEL 5
REMARK VINA RESULT:      -6.5      7.757      9.928
REMARK  4 active torsions:
REMARK  status: ('A' for Active; 'I' for Inactive)
REMARK    1  A    between atoms: C_7  and  C_1 
REMARK    2  A    between atoms: C_13  and  N_2 
REMARK    3  A    between atoms: C_8  and  C_7 
REMARK    4  A    between atoms: N_9  and  C_14 
ROOT
ATOM      1  N   UNL d   1     -39.300  14.623  18.160  0.00  0.00    -0.242 N 
ATOM      2  C   UNL d   1     -39.787  14.045  18.508  0.00  0.00     0.267 A 
ATOM      3  C   UNL d   1     -39.178  15.216  18.721  0.00  0.00     0.267 A 
ATOM      4  C   UNL d   1     -39.582  15.012  19.411  0.00  0.00     0.062 A 
ATOM      5  C   UNL d   1     -39.959  14.289  19.280  0.00  0.00     0.066 A 
ATOM      6  O   UNL d   1     -40.047  13.358  18.144  0.00  0.00    -0.267 OA
ATOM      7  O   UNL d   1     -38.725  15.899  18.606  0.00  0.00    -0.267 OA
ENDROOT
BRANCH   4   8
ATOM      8  C   UNL d   1     -39.607  15.451  20.106  0.00  0.00     0.018 C 
BRANCH   8   9
ATOM      9  C   UNL d   1     -39.396  15.020  20.769  0.00  0.00     0.045 A 
ATOM     10  N   UNL d   1     -39.887  14.526  21.201  0.00  0.00    -0.308 N 
ATOM     11  C   UNL d   1     -39.459  14.203  21.817  0.00  0.00     0.060 A 
ATOM     12  C   UNL d   1     -40.684  14.380  21.038  0.00  0.00     0.099 C 
ATOM     13  C   UNL d   1     -39.662  13.682  22.413  0.00  0.00     0.017 A 
ATOM     14  C   UNL d   1     -38.694  14.496  21.771  0.00  0.00    -0.002 A 
ATOM     15  C   UNL d   1     -39.096  13.449  22.972  0.00  0.00     0.002 A 
ATOM     16  C   UNL d   1     -38.328  13.750  22.918  0.00  0.00    -0.000 A 
ATOM     17  C   UNL d   1     -38.129  14.267  22.324  0.00  0.00    -0.003 A 
ATOM     18  C   UNL d   1     -38.654  15.003  21.121  0.00  0.00     0.054 A 
ATOM     19  C   UNL d   1     -37.959  15.400  20.907  0.00  0.00     0.010 C 
ATOM     20  C   UNL d   1     -37.964  14.898  21.567  0.00  0.00     0.010 C 
ENDBRANCH   8   9
ENDBRANCH   4   8
BRANCH   1  21
ATOM     21  C   UNL d   1     -38.998  14.609  17.401  0.00  0.00     0.070 A 
ATOM     22  C   UNL d   1     -38.313  14.173  17.230  0.00  0.00     0.019 A 
ATOM     23  C   UNL d   1     -38.015  14.163  16.464  0.00  0.00     0.025 A 
ATOM     24  C   UNL d   1     -38.392  14.582  15.869  0.00  0.00     0.127 A 
ATOM     25  C   UNL d   1     -39.077  15.017  16.040  0.00  0.00     0.025 A 
ATOM     26  C   UNL d   1     -39.379  15.031  16.804  0.00  0.00     0.019 A 
BRANCH  24  27
ATOM     27  N   UNL d   1     -38.094  14.572  15.102  0.00  0.00    -0.114 N 
ATOM     28  O   UNL d   1     -37.940  15.277  14.707  0.00  0.00    -0.532 OA
ATOM     29  O   UNL d   1     -37.950  13.857  14.731  0.00  0.00    -0.532 OA
ENDBRANCH  24  27
ENDBRANCH   1  21
TORSDOF 4
ENDMDL
MODEL 6
REMARK VINA RESULT:      -5.3      8.095     10.185
REMARK  4 active torsions:
REMARK  status: ('A' for Active; 'I' for Inactive)
REMARK    1  A    between atoms: C_7  and  C_1 
REMARK    2  A    between atoms: C_13  and  N_2 
REMARK    3  A    between atoms: C_8  and  C_7 
REMARK    4  A    between atoms: N_9  and  C_14 
ROOT
ATOM      1  N   UNL d   1     -38.456  14.310  16.955  0.00  0.00    -0.242 N 
ATOM      2  C   UNL d   1     -38.459  15.053  17.330  0.00  0.00     0.267 A 
ATOM      3  C   UNL d   1     -38.588  13.738  17.535  0.00  0.00     0.267 A 
ATOM      4  C   UNL d   1     -38.674  14.118  18.263  0.00  0.00     0.062 A 
ATOM      5  C   UNL d   1     -38.594  14.930  18.136  0.00  0.00     0.066 A 
ATOM      6  O   UNL d   1     -38.348  15.775  16.958  0.00  0.00    -0.267 OA
ATOM      7  O   UNL d   1     -38.628  12.922  17.404  0.00  0.00    -0.267 OA
ENDROOT
BRANCH   4   8
ATOM      8  C   UNL d   1     -38.814  13.752  18.987  0.00  0.00     0.018 C 
BRANCH   8   9
ATOM      9  C   UNL d   1     -39.217  14.228  19.517  0.00  0.00     0.045 A 
ATOM     10  N   UNL d   1     -38.881  14.712  20.087  0.00  0.00    -0.308 N 
ATOM     11  C   UNL d   1     -39.477  15.090  20.496  0.00  0.00     0.060 A 
ATOM     12  C   UNL d   1     -38.071  14.800  20.222  0.00  0.00     0.099 C 
ATOM     13  C   UNL d   1     -39.466  15.626  21.113  0.00  0.00     0.017 A 
ATOM     14  C   UNL d   1     -40.194  14.841  20.181  0.00  0.00    -0.002 A 
ATOM     15  C   UNL d   1     -40.177  15.920  21.421  0.00  0.00     0.002 A 
ATOM     16  C   UNL d   1     -40.893  15.664  21.098  0.00  0.00    -0.000 A 
ATOM     17  C   UNL d   1     -40.902  15.131  20.485  0.00  0.00    -0.003 A 
ATOM     18  C   UNL d   1     -40.033  14.307  19.574  0.00  0.00     0.054 A 
ATOM     19  C   UNL d   1     -40.630  13.943  19.131  0.00  0.00     0.010 C 
ATOM     20  C   UNL d   1     -40.828  14.475  19.734  0.00  0.00     0.010 C 
ENDBRANCH   8   9
ENDBRANCH   4   8
BRANCH   1  21
ATOM     21  C   UNL d   1     -38.342  14.169  16.158  0.00  0.00     0.070 A 
ATOM     22  C   UNL d   1     -38.057  13.436  15.897  0.00  0.00     0.019 A 
ATOM     23  C   UNL d   1     -37.946  13.302  15.094  0.00  0.00     0.025 A 
ATOM     24  C   UNL d   1     -38.114  13.892  14.550  0.00  0.00     0.127 A 
ATOM     25  C   UNL d   1     -38.399  14.626  14.811  0.00  0.00     0.025 A 
ATOM     26  C   UNL d   1     -38.512  14.765  15.613  0.00  0.00     0.019 A 
BRANCH  24  27
ATOM     27  N   UNL d   1     -38.002  13.759  13.746  0.00  0.00    -0.114 N 
ATOM     28  O   UNL d   1     -37.951  12.992  13.454  0.00  0.00    -0.532 OA
ATOM     29  O   UNL d   1     -37.942  14.395  13.233  0.00  0.00    -0.532 OA
ENDBRANCH  24  27
ENDBRANCH   1  21
TORSDOF 4
ENDMDL
