MODEL 1
REMARK VINA RESULT:       7.3      0.000      0.000
REMARK  5 active torsions:
REMARK  status: ('A' for Active; 'I' for Inactive)
REMARK    1  A    between atoms: N_5  and  C_1 
REMARK    2  A    between atoms: N_6  and  C_1 
REMARK       I    between atoms: C_2  and  N_3 
REMARK    3  A    between atoms: C_4  and  C_2 
REMARK    4  A    between atoms: N_3  and  N_5 
REMARK    5  A    between atoms: C_11  and  N_6 
ROOT
ATOM      1  N   UNL d   1      45.907 -16.341  44.110  0.00  0.00    -0.273 N 
ATOM      2  H   UNL d   1      46.212 -16.007  43.428  0.00  0.00     0.189 HD
ENDROOT
BRANCH   1   3
ATOM      3  N   UNL d   1      45.983 -17.161  44.232  0.00  0.00    -0.264 N 
ATOM      4  C   UNL d   1      46.294 -17.649  43.647  0.00  0.00     0.272 C 
ATOM      5  O   UNL d   1      46.531 -17.326  42.933  0.00  0.00    -0.266 OA
ATOM      6  H   UNL d   1      45.741 -17.491  44.961  0.00  0.00     0.190 HD
BRANCH   4   7
ATOM      7  C   UNL d   1      46.367 -18.459  43.771  0.00  0.00     0.058 A 
ATOM      8  C   UNL d   1      46.337 -18.987  43.128  0.00  0.00     0.011 A 
ATOM      9  C   UNL d   1      46.412 -19.795  43.265  0.00  0.00     0.035 A 
ATOM     10 BR   UNL d   1      46.383 -20.321  42.634  0.00  0.00    -0.049 Br
ATOM     11  C   UNL d   1      46.516 -20.080  44.026  0.00  0.00     0.007 A 
ATOM     12  C   UNL d   1      46.547 -19.563  44.665  0.00  0.00     0.001 A 
ATOM     13  C   UNL d   1      46.471 -18.744  44.532  0.00  0.00     0.005 A 
ENDBRANCH   4   7
ENDBRANCH   1   3
BRANCH   1  14
ATOM     14  C   UNL d   1      45.528 -15.879  44.670  0.00  0.00     0.191 C 
ATOM     15  S   UNL d   1      44.782 -16.086  44.954  0.00  0.00    -0.039 SA
BRANCH  14  16
ATOM     16  N   UNL d   1      45.909 -15.199  44.949  0.00  0.00    -0.331 N 
ATOM     17  H   UNL d   1      46.493 -15.255  45.520  0.00  0.00     0.168 HD
BRANCH  16  18
ATOM     18  C   UNL d   1      45.690 -14.478  44.643  0.00  0.00     0.058 A 
ATOM     19  C   UNL d   1      46.250 -13.853  44.631  0.00  0.00     0.017 A 
ATOM     20  C   UNL d   1      46.035 -13.116  44.322  0.00  0.00     0.002 A 
ATOM     21  C   UNL d   1      45.274 -12.993  44.027  0.00  0.00     0.000 A 
ATOM     22  C   UNL d   1      44.715 -13.617  44.039  0.00  0.00     0.002 A 
ATOM     23  C   UNL d   1      44.929 -14.355  44.348  0.00  0.00     0.017 A 
ENDBRANCH  16  18
ENDBRANCH  14  16
ENDBRANCH   1  14
TORSDOF 5
ENDMDL
MODEL 2
REMARK VINA RESULT:       8.3      1.997      5.026
REMARK  5 active torsions:
REMARK  status: ('A' for Active; 'I' for Inactive)
REMARK    1  A    between atoms: N_5  and  C_1 
REMARK    2  A    between atoms: N_6  and  C_1 
REMARK       I    between atoms: C_2  and  N_3 
REMARK    3  A    between atoms: C_4  and  C_2 
REMARK    4  A    between atoms: N_3  and  N_5 
REMARK    5  A    between atoms: C_11  and  N_6 
ROOT
ATOM      1  N   UNL d   1      45.648 -16.831  44.310  0.00  0.00    -0.273 N 
ATOM      2  H   UNL d   1      45.024 -17.071  44.783  0.00  0.00     0.189 HD
ENDROOT
BRANCH   1   3
ATOM      3  N   UNL d   1      45.824 -16.020  44.249  0.00  0.00    -0.264 N 
ATOM      4  C   UNL d   1      45.319 -15.451  44.564  0.00  0.00     0.272 C 
ATOM      5  O   UNL d   1      44.633 -15.685  44.945  0.00  0.00    -0.266 OA
ATOM      6  H   UNL d   1      46.525 -15.781  43.859  0.00  0.00     0.190 HD
BRANCH   4   7
ATOM      7  C   UNL d   1      45.497 -14.651  44.501  0.00  0.00     0.058 A 
ATOM      8  C   UNL d   1      45.054 -14.161  43.994  0.00  0.00     0.011 A 
ATOM      9  C   UNL d   1      45.241 -13.362  43.940  0.00  0.00     0.035 A 
ATOM     10 BR   UNL d   1      44.807 -12.874  43.441  0.00  0.00    -0.049 Br
ATOM     11  C   UNL d   1      45.857 -13.048  44.379  0.00  0.00     0.007 A 
ATOM     12  C   UNL d   1      46.299 -13.527  44.881  0.00  0.00     0.001 A 
ATOM     13  C   UNL d   1      46.114 -14.337  44.940  0.00  0.00     0.005 A 
ENDBRANCH   4   7
ENDBRANCH   1   3
BRANCH   1  14
ATOM     14  C   UNL d   1      46.097 -17.378  43.899  0.00  0.00     0.191 C 
ATOM     15  S   UNL d   1      46.248 -17.282  43.094  0.00  0.00    -0.039 SA
BRANCH  14  16
ATOM     16  N   UNL d   1      46.400 -18.032  44.307  0.00  0.00    -0.331 N 
ATOM     17  H   UNL d   1      46.674 -17.951  45.075  0.00  0.00     0.168 HD
BRANCH  16  18
ATOM     18  C   UNL d   1      46.419 -18.752  43.928  0.00  0.00     0.058 A 
ATOM     19  C   UNL d   1      46.589 -19.442  44.374  0.00  0.00     0.017 A 
ATOM     20  C   UNL d   1      46.610 -20.178  43.997  0.00  0.00     0.002 A 
ATOM     21  C   UNL d   1      46.466 -20.236  43.187  0.00  0.00     0.000 A 
ATOM     22  C   UNL d   1      46.297 -19.547  42.742  0.00  0.00     0.002 A 
ATOM     23  C   UNL d   1      46.275 -18.810  43.118  0.00  0.00     0.017 A 
ENDBRANCH  16  18
ENDBRANCH  14  16
ENDBRANCH   1  14
TORSDOF 5
ENDMDL
