MODEL 1
REMARK VINA RESULT:      63.5      0.000      0.000
REMARK  3 active torsions:
REMARK  status: ('A' for Active; 'I' for Inactive)
REMARK    1  A    between atoms: C_2  and  N_1 
REMARK    2  A    between atoms: C_5  and  C_8 
REMARK       I    between atoms: N_6  and  C_5 
REMARK    3  A    between atoms: C_13  and  N_6 
ROOT
ATOM      1  C   UNL d   1     -51.071  25.662  33.539  0.00  0.00     0.070 A 
ATOM      2  C   UNL d   1     -50.400  26.039  33.846  0.00  0.00     0.022 A 
ATOM      3  C   UNL d   1     -50.387  26.856  33.924  0.00  0.00     0.059 A 
ATOM      4  C   UNL d   1     -51.741  26.113  33.306  0.00  0.00     0.018 A 
ATOM      5  C   UNL d   1     -51.034  27.305  33.699  0.00  0.00     0.005 A 
ATOM      6  C   UNL d   1     -51.717  26.933  33.388  0.00  0.00     0.002 A 
ENDROOT
BRANCH   3   7
ATOM      7  C   UNL d   1     -49.720  27.234  34.229  0.00  0.00     0.279 C 
ATOM      8  N   UNL d   1     -49.778  28.005  34.518  0.00  0.00    -0.208 NA
ATOM      9  O   UNL d   1     -48.997  26.845  34.247  0.00  0.00    -0.265 OA
BRANCH   8  10
ATOM     10  C   UNL d   1     -49.101  28.388  34.828  0.00  0.00     0.085 A 
ATOM     11  C   UNL d   1     -48.911  29.150  34.587  0.00  0.00     0.020 A 
ATOM     12  C   UNL d   1     -48.246  29.547  34.882  0.00  0.00     0.008 A 
ATOM     13  C   UNL d   1     -47.921  30.302  34.746  0.00  0.00     0.007 A 
ATOM     14  C   UNL d   1     -47.763  29.162  35.432  0.00  0.00     0.030 A 
ATOM     15  C   UNL d   1     -47.254  30.363  35.209  0.00  0.00     0.035 A 
ATOM     16  S   UNL d   1     -47.140  29.682  35.635  0.00  0.00    -0.086 SA
ATOM     17  C   UNL d   1     -47.951  28.381  35.683  0.00  0.00     0.008 A 
ATOM     18  C   UNL d   1     -48.622  28.001  35.376  0.00  0.00     0.020 A 
ENDBRANCH   8  10
ENDBRANCH   3   7
BRANCH   1  19
ATOM     19  N   UNL d   1     -51.090  24.841  33.459  0.00  0.00    -0.242 N 
ATOM     20  C   UNL d   1     -50.461  24.323  33.364  0.00  0.00     0.267 A 
ATOM     21  C   UNL d   1     -50.729  23.559  33.307  0.00  0.00     0.066 A 
ATOM     22  O   UNL d   1     -49.622  24.552  33.327  0.00  0.00    -0.267 OA
ATOM     23  C   UNL d   1     -51.536  23.591  33.366  0.00  0.00     0.066 A 
ATOM     24  C   UNL d   1     -51.745  24.349  33.456  0.00  0.00     0.267 A 
ATOM     25  O   UNL d   1     -52.581  24.612  33.541  0.00  0.00    -0.267 OA
ENDBRANCH   1  19
TORSDOF 3
ENDMDL
