MODEL 1
REMARK VINA RESULT:     -10.0      0.000      0.000
REMARK  6 active torsions:
REMARK  status: ('A' for Active; 'I' for Inactive)
REMARK    1  A    between atoms: S_13  and  C_3 
REMARK    2  A    between atoms: C_21  and  C_4 
REMARK       I    between atoms: N_7  and  C_10 
REMARK    3  A    between atoms: C_10  and  C_20 
REMARK    4  A    between atoms: C_20  and  S_13 
REMARK    5  A    between atoms: O_24  and  C_16 
REMARK    6  A    between atoms: O_25  and  C_17 
ROOT
ATOM      1  N   UNL d   1      50.599  34.232  52.825  0.00  0.00    -0.272 N 
ATOM      2  C   UNL d   1      51.300  33.939  53.209  0.00  0.00     0.271 C 
ATOM      3  C   UNL d   1      49.423  35.026  52.854  0.00  0.00     0.020 A 
ATOM      4  C   UNL d   1      50.096  34.747  53.226  0.00  0.00     0.083 A 
ATOM      5  C   UNL d   1      49.252  34.800  52.098  0.00  0.00     0.005 A 
ATOM      6  C   UNL d   1      48.912  35.547  53.255  0.00  0.00     0.028 A 
ATOM      7  C   UNL d   1      48.232  35.831  52.883  0.00  0.00     0.116 A 
ATOM      8  C   UNL d   1      48.060  35.605  52.128  0.00  0.00     0.116 A 
ATOM      9  C   UNL d   1      48.563  35.087  51.718  0.00  0.00     0.026 A 
ATOM     10  C   UNL d   1      50.428  34.005  52.069  0.00  0.00     0.083 A 
ATOM     11  O   UNL d   1      51.468  34.176  53.983  0.00  0.00    -0.266 OA
ATOM     12  C   UNL d   1      49.747  34.287  51.689  0.00  0.00     0.019 A 
ENDROOT
BRANCH   2  13
ATOM     13  C   UNL d   1      51.803  33.423  52.806  0.00  0.00     0.099 C 
BRANCH  13  14
ATOM     14  S   UNL d   1      52.367  33.001  53.225  0.00  0.00    -0.043 SA
BRANCH  14  15
ATOM     15  C   UNL d   1      52.499  32.193  53.051  0.00  0.00     0.202 A 
ATOM     16  N   UNL d   1      53.123  31.759  53.316  0.00  0.00    -0.263 N 
ATOM     17  C   UNL d   1      53.036  31.002  53.016  0.00  0.00     0.202 A 
ATOM     18  C   UNL d   1      53.814  31.772  53.768  0.00  0.00     0.074 A 
ATOM     19  N   UNL d   1      52.356  30.975  52.567  0.00  0.00    -0.121 NA
ATOM     20  S   UNL d   1      53.672  30.541  53.280  0.00  0.00    -0.046 SA
ATOM     21  N   UNL d   1      52.025  31.721  52.592  0.00  0.00    -0.121 NA
ATOM     22  C   UNL d   1      54.156  31.020  53.747  0.00  0.00     0.056 A 
BRANCH  18  23
ATOM     23  C   UNL d   1      54.107  32.424  54.167  0.00  0.00     0.017 A 
ATOM     24  C   UNL d   1      53.912  32.534  54.971  0.00  0.00     0.002 A 
ATOM     25  C   UNL d   1      54.204  33.181  55.360  0.00  0.00     0.000 A 
ATOM     26  C   UNL d   1      54.685  33.731  54.988  0.00  0.00     0.000 A 
ATOM     27  C   UNL d   1      54.873  33.610  54.183  0.00  0.00     0.000 A 
ATOM     28  C   UNL d   1      54.583  32.964  53.790  0.00  0.00     0.002 A 
ENDBRANCH  18  23
ENDBRANCH  14  15
ENDBRANCH  13  14
ENDBRANCH   2  13
BRANCH   7  29
ATOM     29  O   UNL d   1      47.737  36.346  53.296  0.00  0.00    -0.326 OA
ATOM     30  C   UNL d   1      47.966  36.616  54.062  0.00  0.00     0.181 C 
ENDBRANCH   7  29
BRANCH   8  31
ATOM     31  O   UNL d   1      47.386  35.882  51.747  0.00  0.00    -0.326 OA
ATOM     32  C   UNL d   1      47.043  35.416  51.142  0.00  0.00     0.181 C 
ENDBRANCH   8  31
TORSDOF 6
ENDMDL
MODEL 2
REMARK VINA RESULT:      -8.1      1.334      2.266
REMARK  6 active torsions:
REMARK  status: ('A' for Active; 'I' for Inactive)
REMARK    1  A    between atoms: S_13  and  C_3 
REMARK    2  A    between atoms: C_21  and  C_4 
REMARK       I    between atoms: N_7  and  C_10 
REMARK    3  A    between atoms: C_10  and  C_20 
REMARK    4  A    between atoms: C_20  and  S_13 
REMARK    5  A    between atoms: O_24  and  C_16 
REMARK    6  A    between atoms: O_25  and  C_17 
ROOT
ATOM      1  N   UNL d   1      50.500  34.462  52.967  0.00  0.00    -0.272 N 
ATOM      2  C   UNL d   1      51.250  34.062  52.963  0.00  0.00     0.271 C 
ATOM      3  C   UNL d   1      49.311  34.850  52.295  0.00  0.00     0.020 A 
ATOM      4  C   UNL d   1      50.032  34.464  52.288  0.00  0.00     0.083 A 
ATOM      5  C   UNL d   1      49.057  35.227  52.961  0.00  0.00     0.005 A 
ATOM      6  C   UNL d   1      48.835  34.854  51.611  0.00  0.00     0.028 A 
ATOM      7  C   UNL d   1      48.106  35.242  51.614  0.00  0.00     0.116 A 
ATOM      8  C   UNL d   1      47.853  35.619  52.281  0.00  0.00     0.116 A 
ATOM      9  C   UNL d   1      48.319  35.622  52.968  0.00  0.00     0.026 A 
ATOM     10  C   UNL d   1      50.246  34.840  53.633  0.00  0.00     0.083 A 
ATOM     11  O   UNL d   1      51.503  33.678  52.276  0.00  0.00    -0.266 OA
ATOM     12  C   UNL d   1      49.516  35.232  53.644  0.00  0.00     0.019 A 
ENDROOT
BRANCH   2  13
ATOM     13  C   UNL d   1      51.718  34.061  53.643  0.00  0.00     0.099 C 
BRANCH  13  14
ATOM     14  S   UNL d   1      52.467  33.729  53.618  0.00  0.00    -0.043 SA
BRANCH  14  15
ATOM     15  C   UNL d   1      53.073  34.027  54.112  0.00  0.00     0.202 A 
ATOM     16  N   UNL d   1      53.698  33.598  54.385  0.00  0.00    -0.263 N 
ATOM     17  C   UNL d   1      54.152  34.102  54.846  0.00  0.00     0.202 A 
ATOM     18  C   UNL d   1      54.064  32.858  54.387  0.00  0.00     0.074 A 
ATOM     19  N   UNL d   1      53.802  34.838  54.852  0.00  0.00    -0.121 NA
ATOM     20  S   UNL d   1      54.802  33.677  55.136  0.00  0.00    -0.046 SA
ATOM     21  N   UNL d   1      53.130  34.785  54.393  0.00  0.00    -0.121 NA
ATOM     22  C   UNL d   1      54.746  32.903  54.850  0.00  0.00     0.056 A 
BRANCH  18  23
ATOM     23  C   UNL d   1      53.790  32.195  53.994  0.00  0.00     0.017 A 
ATOM     24  C   UNL d   1      53.284  31.662  54.390  0.00  0.00     0.002 A 
ATOM     25  C   UNL d   1      53.017  31.008  53.995  0.00  0.00     0.000 A 
ATOM     26  C   UNL d   1      53.229  30.853  53.219  0.00  0.00     0.000 A 
ATOM     27  C   UNL d   1      53.736  31.393  52.833  0.00  0.00     0.000 A 
ATOM     28  C   UNL d   1      54.005  32.049  53.224  0.00  0.00     0.002 A 
ENDBRANCH  18  23
ENDBRANCH  14  15
ENDBRANCH  13  14
ENDBRANCH   2  13
BRANCH   7  29
ATOM     29  O   UNL d   1      47.649  35.235  50.928  0.00  0.00    -0.326 OA
ATOM     30  C   UNL d   1      47.295  34.514  50.672  0.00  0.00     0.181 C 
ENDBRANCH   7  29
BRANCH   8  31
ATOM     31  O   UNL d   1      47.129  36.009  52.295  0.00  0.00    -0.326 OA
ATOM     32  C   UNL d   1      47.056  36.709  52.748  0.00  0.00     0.181 C 
ENDBRANCH   8  31
TORSDOF 6
ENDMDL
