MODEL 1
REMARK VINA RESULT:      -0.3      0.000      0.000
REMARK  4 active torsions:
REMARK  status: ('A' for Active; 'I' for Inactive)
REMARK    1  A    between atoms: C_8  and  C_1 
REMARK    2  A    between atoms: C_4  and  C_2 
REMARK    3  A    between atoms: O_16  and  C_8 
REMARK    4  A    between atoms: C_21  and  O_16 
ROOT
ATOM      1  C   UNL d   1      31.487  17.165 -24.631  0.00  0.00     0.099 A 
ATOM      2  C   UNL d   1      32.278  17.336 -24.469  0.00  0.00     0.096 A 
ATOM      3  C   UNL d   1      31.280  16.411 -24.933  0.00  0.00     0.093 A 
ATOM      4  C   UNL d   1      32.653  16.022 -24.903  0.00  0.00     0.369 A 
ATOM      5  N   UNL d   1      31.867  15.842 -25.067  0.00  0.00    -0.191 NA
ATOM      6  N   UNL d   1      32.857  16.766 -24.605  0.00  0.00    -0.191 NA
ATOM      7  O   UNL d   1      33.240  15.453 -25.037  0.00  0.00    -0.242 OA
ATOM      8  C   UNL d   1      30.499  16.230 -25.097  0.00  0.00     0.021 C 
ENDROOT
BRANCH   2   9
ATOM      9  C   UNL d   1      32.480  18.071 -24.175  0.00  0.00     0.057 A 
ATOM     10  C   UNL d   1      32.734  18.155 -23.395  0.00  0.00     0.005 A 
ATOM     11  C   UNL d   1      32.938  18.899 -23.097  0.00  0.00     0.000 A 
ATOM     12  C   UNL d   1      32.782  17.482 -22.911  0.00  0.00     0.000 A 
ATOM     13  C   UNL d   1      33.192  18.974 -22.314  0.00  0.00     0.000 A 
ATOM     14  C   UNL d   1      32.890  19.563 -23.578  0.00  0.00     0.003 A 
ATOM     15  C   UNL d   1      33.241  18.309 -21.830  0.00  0.00     0.000 A 
ATOM     16  C   UNL d   1      33.036  17.565 -22.128  0.00  0.00     0.000 A 
ATOM     17  C   UNL d   1      32.636  19.488 -24.362  0.00  0.00     0.042 A 
ATOM     18  C   UNL d   1      32.424  18.714 -24.671  0.00  0.00     0.197 A 
ATOM     19  O   UNL d   1      32.406  19.465 -25.097  0.00  0.00    -0.286 OA
ENDBRANCH   2   9
BRANCH   1  20
ATOM     20  C   UNL d   1      30.913  17.738 -24.494  0.00  0.00     0.303 C 
ATOM     21  O   UNL d   1      30.956  18.462 -24.874  0.00  0.00    -0.259 OA
BRANCH  20  22
ATOM     22  O   UNL d   1      30.298  17.572 -23.970  0.00  0.00    -0.271 OA
BRANCH  22  23
ATOM     23  C   UNL d   1      29.544  17.846 -24.145  0.00  0.00     0.126 C 
ATOM     24  C   UNL d   1      28.919  17.691 -23.637  0.00  0.00     0.029 C 
ENDBRANCH  22  23
ENDBRANCH  20  22
ENDBRANCH   1  20
TORSDOF 4
ENDMDL
MODEL 2
REMARK VINA RESULT:      -0.2      1.832      3.240
REMARK  4 active torsions:
REMARK  status: ('A' for Active; 'I' for Inactive)
REMARK    1  A    between atoms: C_8  and  C_1 
REMARK    2  A    between atoms: C_4  and  C_2 
REMARK    3  A    between atoms: O_16  and  C_8 
REMARK    4  A    between atoms: C_21  and  O_16 
ROOT
ATOM      1  C   UNL d   1      29.170  16.888 -23.766  0.00  0.00     0.099 A 
ATOM      2  C   UNL d   1      29.716  17.257 -24.262  0.00  0.00     0.096 A 
ATOM      3  C   UNL d   1      28.407  17.221 -23.670  0.00  0.00     0.093 A 
ATOM      4  C   UNL d   1      28.754  18.277 -24.563  0.00  0.00     0.369 A 
ATOM      5  N   UNL d   1      28.203  17.916 -24.071  0.00  0.00    -0.191 NA
ATOM      6  N   UNL d   1      29.507  17.949 -24.659  0.00  0.00    -0.191 NA
ATOM      7  O   UNL d   1      28.550  18.973 -24.964  0.00  0.00    -0.242 OA
ATOM      8  C   UNL d   1      27.857  16.862 -23.179  0.00  0.00     0.021 C 
ENDROOT
BRANCH   2   9
ATOM      9  C   UNL d   1      30.460  16.933 -24.357  0.00  0.00     0.057 A 
ATOM     10  C   UNL d   1      31.128  17.333 -24.086  0.00  0.00     0.005 A 
ATOM     11  C   UNL d   1      31.881  17.005 -24.182  0.00  0.00     0.000 A 
ATOM     12  C   UNL d   1      31.036  18.071 -23.716  0.00  0.00     0.000 A 
ATOM     13  C   UNL d   1      32.546  17.413 -23.907  0.00  0.00     0.000 A 
ATOM     14  C   UNL d   1      31.970  16.276 -24.548  0.00  0.00     0.003 A 
ATOM     15  C   UNL d   1      32.459  18.145 -23.540  0.00  0.00     0.000 A 
ATOM     16  C   UNL d   1      31.706  18.473 -23.444  0.00  0.00     0.000 A 
ATOM     17  C   UNL d   1      31.305  15.868 -24.822  0.00  0.00     0.042 A 
ATOM     18  C   UNL d   1      30.522  16.209 -24.723  0.00  0.00     0.197 A 
ATOM     19  O   UNL d   1      30.714  15.453 -25.093  0.00  0.00    -0.286 OA
ENDBRANCH   2   9
BRANCH   1  20
ATOM     20  C   UNL d   1      29.383  16.197 -23.373  0.00  0.00     0.303 C 
ATOM     21  O   UNL d   1      29.568  15.522 -23.799  0.00  0.00    -0.259 OA
BRANCH  20  22
ATOM     22  O   UNL d   1      29.408  16.196 -22.549  0.00  0.00    -0.271 OA
BRANCH  22  23
ATOM     23  C   UNL d   1      29.500  15.481 -22.156  0.00  0.00     0.126 C 
ATOM     24  C   UNL d   1      29.513  15.458 -21.337  0.00  0.00     0.029 C 
ENDBRANCH  22  23
ENDBRANCH  20  22
ENDBRANCH   1  20
TORSDOF 4
ENDMDL
MODEL 3
REMARK VINA RESULT:       1.9      1.507      2.697
REMARK  4 active torsions:
REMARK  status: ('A' for Active; 'I' for Inactive)
REMARK    1  A    between atoms: C_8  and  C_1 
REMARK    2  A    between atoms: C_4  and  C_2 
REMARK    3  A    between atoms: O_16  and  C_8 
REMARK    4  A    between atoms: C_21  and  O_16 
ROOT
ATOM      1  C   UNL d   1      31.007  17.690 -24.499  0.00  0.00     0.099 A 
ATOM      2  C   UNL d   1      31.056  16.874 -24.391  0.00  0.00     0.096 A 
ATOM      3  C   UNL d   1      30.284  18.032 -24.752  0.00  0.00     0.093 A 
ATOM      4  C   UNL d   1      29.683  16.738 -24.782  0.00  0.00     0.369 A 
ATOM      5  N   UNL d   1      29.625  17.551 -24.892  0.00  0.00    -0.191 NA
ATOM      6  N   UNL d   1      30.396  16.401 -24.533  0.00  0.00    -0.191 NA
ATOM      7  O   UNL d   1      29.023  16.257 -24.922  0.00  0.00    -0.242 OA
ATOM      8  C   UNL d   1      30.224  18.841 -24.862  0.00  0.00     0.021 C 
ENDROOT
BRANCH   2   9
ATOM      9  C   UNL d   1      31.760  16.541 -24.145  0.00  0.00     0.057 A 
ATOM     10  C   UNL d   1      31.817  16.179 -23.406  0.00  0.00     0.005 A 
ATOM     11  C   UNL d   1      32.530  15.842 -23.157  0.00  0.00     0.000 A 
ATOM     12  C   UNL d   1      31.149  16.158 -22.914  0.00  0.00     0.000 A 
ATOM     13  C   UNL d   1      32.578  15.482 -22.414  0.00  0.00     0.000 A 
ATOM     14  C   UNL d   1      33.190  15.865 -23.645  0.00  0.00     0.003 A 
ATOM     15  C   UNL d   1      31.917  15.458 -21.923  0.00  0.00     0.000 A 
ATOM     16  C   UNL d   1      31.204  15.796 -22.173  0.00  0.00     0.000 A 
ATOM     17  C   UNL d   1      33.142  16.225 -24.388  0.00  0.00     0.042 A 
ATOM     18  C   UNL d   1      32.401  16.576 -24.647  0.00  0.00     0.197 A 
ATOM     19  O   UNL d   1      33.143  16.550 -25.087  0.00  0.00    -0.286 OA
ENDBRANCH   2   9
BRANCH   1  20
ATOM     20  C   UNL d   1      31.669  18.158 -24.357  0.00  0.00     0.303 C 
ATOM     21  O   UNL d   1      32.183  18.340 -24.969  0.00  0.00    -0.259 OA
BRANCH  20  22
ATOM     22  O   UNL d   1      31.806  18.438 -23.594  0.00  0.00    -0.271 OA
BRANCH  22  23
ATOM     23  C   UNL d   1      32.313  19.075 -23.490  0.00  0.00     0.126 C 
ATOM     24  C   UNL d   1      32.421  19.401 -22.746  0.00  0.00     0.029 C 
ENDBRANCH  22  23
ENDBRANCH  20  22
ENDBRANCH   1  20
TORSDOF 4
ENDMDL
MODEL 4
REMARK VINA RESULT:       2.1      1.167      3.489
REMARK  4 active torsions:
REMARK  status: ('A' for Active; 'I' for Inactive)
REMARK    1  A    between atoms: C_8  and  C_1 
REMARK    2  A    between atoms: C_4  and  C_2 
REMARK    3  A    between atoms: O_16  and  C_8 
REMARK    4  A    between atoms: C_21  and  O_16 
ROOT
ATOM      1  C   UNL d   1      32.490  17.693 -23.693  0.00  0.00     0.099 A 
ATOM      2  C   UNL d   1      32.045  17.642 -24.386  0.00  0.00     0.096 A 
ATOM      3  C   UNL d   1      32.798  18.434 -23.452  0.00  0.00     0.093 A 
ATOM      4  C   UNL d   1      32.210  19.050 -24.598  0.00  0.00     0.369 A 
ATOM      5  N   UNL d   1      32.655  19.111 -23.909  0.00  0.00    -0.191 NA
ATOM      6  N   UNL d   1      31.906  18.319 -24.835  0.00  0.00    -0.191 NA
ATOM      7  O   UNL d   1      32.068  19.727 -25.054  0.00  0.00    -0.242 OA
ATOM      8  C   UNL d   1      33.241  18.496 -22.767  0.00  0.00     0.021 C 
ENDROOT
BRANCH   2   9
ATOM      9  C   UNL d   1      31.744  16.919 -24.620  0.00  0.00     0.057 A 
ATOM     10  C   UNL d   1      30.930  16.788 -24.633  0.00  0.00     0.005 A 
ATOM     11  C   UNL d   1      30.626  16.056 -24.870  0.00  0.00     0.000 A 
ATOM     12  C   UNL d   1      30.418  17.400 -24.403  0.00  0.00     0.000 A 
ATOM     13  C   UNL d   1      29.809  15.933 -24.879  0.00  0.00     0.000 A 
ATOM     14  C   UNL d   1      31.135  15.453 -25.097  0.00  0.00     0.003 A 
ATOM     15  C   UNL d   1      29.298  16.538 -24.652  0.00  0.00     0.000 A 
ATOM     16  C   UNL d   1      29.602  17.269 -24.415  0.00  0.00     0.000 A 
ATOM     17  C   UNL d   1      31.952  15.575 -25.088  0.00  0.00     0.042 A 
ATOM     18  C   UNL d   1      32.268  16.336 -24.840  0.00  0.00     0.197 A 
ATOM     19  O   UNL d   1      32.720  15.645 -25.094  0.00  0.00    -0.286 OA
ENDBRANCH   2   9
BRANCH   1  20
ATOM     20  C   UNL d   1      32.625  17.014 -23.248  0.00  0.00     0.303 C 
ATOM     21  O   UNL d   1      33.220  16.494 -23.462  0.00  0.00    -0.259 OA
BRANCH  20  22
ATOM     22  O   UNL d   1      32.154  16.867 -22.587  0.00  0.00    -0.271 OA
BRANCH  22  23
ATOM     23  C   UNL d   1      32.453  16.398 -21.983  0.00  0.00     0.126 C 
ATOM     24  C   UNL d   1      32.153  15.647 -21.855  0.00  0.00     0.029 C 
ENDBRANCH  22  23
ENDBRANCH  20  22
ENDBRANCH   1  20
TORSDOF 4
ENDMDL
