MODEL 1
REMARK VINA RESULT:      -6.1      0.000      0.000
REMARK  3 active torsions:
REMARK  status: ('A' for Active; 'I' for Inactive)
REMARK    1  A    between atoms: C_4  and  C_1 
REMARK    2  A    between atoms: N_2  and  C_9 
REMARK       I    between atoms: N_7  and  C_4 
REMARK    3  A    between atoms: C_11  and  N_7 
ROOT
ATOM      1  C   UNL d   1      57.208   0.094  31.212  0.00  0.00     0.087 A 
ATOM      2  S   UNL d   1      56.996  -0.638  31.529  0.00  0.00    -0.082 SA
ATOM      3  C   UNL d   1      56.851   0.679  31.654  0.00  0.00     0.012 A 
ATOM      4  C   UNL d   1      56.408   0.322  32.258  0.00  0.00     0.008 A 
ATOM      5  C   UNL d   1      56.500  -0.516  32.178  0.00  0.00     0.030 A 
ATOM      6  C   UNL d   1      55.569   0.124  33.376  0.00  0.00     0.127 A 
ATOM      7  C   UNL d   1      55.946   0.622  32.853  0.00  0.00     0.024 A 
ATOM      8  C   UNL d   1      56.125  -1.007  32.699  0.00  0.00     0.008 A 
ATOM      9  C   UNL d   1      55.661  -0.715  33.297  0.00  0.00     0.024 A 
ENDROOT
BRANCH   1  10
ATOM     10  C   UNL d   1      57.698   0.209  30.558  0.00  0.00     0.286 C 
ATOM     11  N   UNL d   1      58.450  -0.128  30.529  0.00  0.00    -0.189 NA
ATOM     12  O   UNL d   1      57.436   0.675  29.911  0.00  0.00    -0.265 OA
BRANCH  11  13
ATOM     13  C   UNL d   1      58.953  -0.022  29.884  0.00  0.00     0.166 A 
ATOM     14  N   UNL d   1      59.547   0.563  29.934  0.00  0.00    -0.225 NA
ATOM     15  C   UNL d   1      60.059   0.682  29.298  0.00  0.00     0.101 A 
ATOM     16  C   UNL d   1      59.980   0.216  28.605  0.00  0.00     0.021 A 
ATOM     17  C   UNL d   1      59.400  -0.352  28.561  0.00  0.00     0.005 A 
ATOM     18  C   UNL d   1      58.881  -0.472  29.206  0.00  0.00     0.039 A 
ENDBRANCH  11  13
ENDBRANCH   1  10
BRANCH   6  19
ATOM     19  N   UNL d   1      55.083   0.418  34.003  0.00  0.00    -0.114 N 
ATOM     20  O   UNL d   1      54.312   0.638  33.879  0.00  0.00    -0.532 OA
ATOM     21  O   UNL d   1      55.412   0.480  34.762  0.00  0.00    -0.532 OA
ENDBRANCH   6  19
TORSDOF 3
ENDMDL
MODEL 2
REMARK VINA RESULT:      -4.5      1.754      4.965
REMARK  3 active torsions:
REMARK  status: ('A' for Active; 'I' for Inactive)
REMARK    1  A    between atoms: C_4  and  C_1 
REMARK    2  A    between atoms: N_2  and  C_9 
REMARK       I    between atoms: N_7  and  C_4 
REMARK    3  A    between atoms: C_11  and  N_7 
ROOT
ATOM      1  C   UNL d   1      57.475  -0.177  30.944  0.00  0.00     0.087 A 
ATOM      2  S   UNL d   1      57.830   0.321  30.390  0.00  0.00    -0.082 SA
ATOM      3  C   UNL d   1      57.715  -0.942  30.793  0.00  0.00     0.012 A 
ATOM      4  C   UNL d   1      58.227  -0.935  30.140  0.00  0.00     0.008 A 
ATOM      5  C   UNL d   1      58.300  -0.131  29.883  0.00  0.00     0.030 A 
ATOM      6  C   UNL d   1      59.100  -1.343  29.108  0.00  0.00     0.127 A 
ATOM      7  C   UNL d   1      58.628  -1.521  29.747  0.00  0.00     0.024 A 
ATOM      8  C   UNL d   1      58.770   0.041  29.249  0.00  0.00     0.008 A 
ATOM      9  C   UNL d   1      59.173  -0.539  28.852  0.00  0.00     0.024 A 
ENDROOT
BRANCH   1  10
ATOM     10  C   UNL d   1      56.965   0.062  31.547  0.00  0.00     0.286 C 
ATOM     11  N   UNL d   1      56.999  -0.288  32.292  0.00  0.00    -0.189 NA
ATOM     12  O   UNL d   1      56.400   0.668  31.407  0.00  0.00    -0.265 OA
BRANCH  11  13
ATOM     13  C   UNL d   1      56.496  -0.061  32.906  0.00  0.00     0.166 A 
ATOM     14  N   UNL d   1      56.808   0.409  33.523  0.00  0.00    -0.225 NA
ATOM     15  C   UNL d   1      56.319   0.644  34.145  0.00  0.00     0.101 A 
ATOM     16  C   UNL d   1      55.514   0.412  34.154  0.00  0.00     0.021 A 
ATOM     17  C   UNL d   1      55.215  -0.045  33.551  0.00  0.00     0.005 A 
ATOM     18  C   UNL d   1      55.711  -0.283  32.922  0.00  0.00     0.039 A 
ENDBRANCH  11  13
ENDBRANCH   1  10
BRANCH   6  19
ATOM     19  N   UNL d   1      59.526  -1.941  28.687  0.00  0.00    -0.114 N 
ATOM     20  O   UNL d   1      59.173  -2.633  28.455  0.00  0.00    -0.532 OA
ATOM     21  O   UNL d   1      60.325  -1.807  28.510  0.00  0.00    -0.532 OA
ENDBRANCH   6  19
TORSDOF 3
ENDMDL
