MODEL 1
REMARK VINA RESULT:      51.0      0.000      0.000
REMARK  4 active torsions:
REMARK  status: ('A' for Active; 'I' for Inactive)
REMARK    1  A    between atoms: N_3  and  C_1 
REMARK    2  A    between atoms: N_5  and  N_2 
REMARK    3  A    between atoms: S_4  and  N_5 
REMARK    4  A    between atoms: C_13  and  S_4 
ROOT
ATOM      1  C   UNL d   1     -58.036 -98.793 -45.107  0.00  0.00     0.771 A 
ATOM      2  N   UNL d   1     -57.218 -98.802 -45.087  0.00  0.00    -0.026 N 
ATOM      3  N   UNL d   1     -58.266 -98.767 -45.899  0.00  0.00     0.048 NA
ATOM      4  C   UNL d   1     -56.936 -98.781 -45.851  0.00  0.00     0.204 A 
ATOM      5  N   UNL d   1     -57.584 -98.759 -46.361  0.00  0.00    -0.112 NA
ATOM      6  C   UNL d   1     -56.145 -98.782 -46.085  0.00  0.00     0.044 C 
ENDROOT
BRANCH   2   7
ATOM      7  N   UNL d   1     -56.745 -98.827 -44.412  0.00  0.00    -0.056 NA
BRANCH   7   8
ATOM      8  S   UNL d   1     -56.328 -99.507 -44.213  0.00  0.00     0.301 S 
ATOM      9  O   UNL d   1     -55.629 -99.161 -44.450  0.00  0.00    -0.197 OA
ATOM     10  O   UNL d   1     -57.040 -99.853 -43.974  0.00  0.00    -0.197 OA
BRANCH   8  11
ATOM     11  C   UNL d   1     -55.928-100.198 -44.006  0.00  0.00     0.107 A 
ATOM     12  C   UNL d   1     -56.311-100.924 -44.075  0.00  0.00     0.015 A 
ATOM     13  C   UNL d   1     -55.912-101.619 -43.869  0.00  0.00     0.030 A 
ATOM     14  C   UNL d   1     -55.132-101.579 -43.595  0.00  0.00     0.140 A 
ATOM     15  C   UNL d   1     -54.748-100.852 -43.526  0.00  0.00     0.030 A 
ATOM     16  F   UNL d   1     -54.740-102.269 -43.392  0.00  0.00    -0.204 F 
ATOM     17  C   UNL d   1     -55.146-100.157 -43.732  0.00  0.00     0.015 A 
ENDBRANCH   8  11
ENDBRANCH   7   8
ENDBRANCH   2   7
BRANCH   1  18
ATOM     18  N   UNL d   1     -58.536 -98.809 -44.451  0.00  0.00    -0.056 N 
ATOM     19  N   UNL d   1     -58.301 -98.833 -43.660  0.00  0.00    -0.150 NA
ATOM     20  C   UNL d   1     -58.979 -98.841 -43.192  0.00  0.00     0.103 A 
ATOM     21  C   UNL d   1     -59.002 -98.864 -42.372  0.00  0.00     0.022 C 
ATOM     22  C   UNL d   1     -59.635 -98.823 -43.692  0.00  0.00     0.041 A 
ATOM     23  C   UNL d   1     -59.353 -98.803 -44.470  0.00  0.00     0.102 A 
ATOM     24  C   UNL d   1     -59.822 -98.780 -45.148  0.00  0.00     0.021 C 
ENDBRANCH   1  18
TORSDOF 4
ENDMDL
