MODEL 1
REMARK VINA RESULT:      55.0      0.000      0.000
REMARK  5 active torsions:
REMARK  status: ('A' for Active; 'I' for Inactive)
REMARK    1  A    between atoms: N_2  and  S_1 
REMARK    2  A    between atoms: C_6  and  S_1 
REMARK       I    between atoms: C_3  and  N_4 
REMARK    3  A    between atoms: C_5  and  C_3 
REMARK    4  A    between atoms: O_20  and  C_21 
REMARK    5  A    between atoms: C_24  and  O_20 
ROOT
ATOM      1  S   UNL d   1      15.410  16.400  -0.913  0.00  0.00     0.271 S 
ATOM      2  O   UNL d   1      15.481  17.190  -1.129  0.00  0.00    -0.200 OA
ATOM      3  O   UNL d   1      15.729  16.573  -0.175  0.00  0.00    -0.200 OA
ENDROOT
BRANCH   1   4
ATOM      4  N   UNL d   1      15.090  16.222  -1.653  0.00  0.00    -0.226 N 
ATOM      5  C   UNL d   1      14.707  15.510  -1.781  0.00  0.00     0.111 A 
ATOM      6  C   UNL d   1      14.389  15.337  -2.520  0.00  0.00     0.103 A 
ATOM      7  N   UNL d   1      14.461  15.885  -3.129  0.00  0.00    -0.267 N 
ATOM      8  C   UNL d   1      14.143  15.712  -3.867  0.00  0.00     0.288 C 
ATOM      9  C   UNL d   1      14.842  16.599  -3.008  0.00  0.00     0.103 A 
ATOM     10  O   UNL d   1      14.209  16.255  -4.485  0.00  0.00    -0.264 OA
ATOM     11  C   UNL d   1      15.162  16.777  -2.268  0.00  0.00     0.111 A 
BRANCH   8  12
ATOM     12  C   UNL d   1      13.755  14.993  -3.997  0.00  0.00     0.156 A 
ATOM     13  O   UNL d   1      14.109  14.253  -4.105  0.00  0.00    -0.300 OA
ATOM     14  C   UNL d   1      13.517  13.696  -4.215  0.00  0.00     0.123 A 
ATOM     15  C   UNL d   1      12.787  14.082  -4.178  0.00  0.00     0.029 A 
ATOM     16  C   UNL d   1      12.940  14.887  -4.043  0.00  0.00     0.032 A 
ENDBRANCH   8  12
ENDBRANCH   1   4
BRANCH   1  17
ATOM     17  C   UNL d   1      15.340  15.608  -0.693  0.00  0.00     0.104 A 
ATOM     18  C   UNL d   1      14.627  15.311  -0.397  0.00  0.00     0.015 A 
ATOM     19  C   UNL d   1      14.564  14.522  -0.180  0.00  0.00     0.025 A 
ATOM     20  C   UNL d   1      15.212  14.025  -0.257  0.00  0.00     0.100 A 
ATOM     21  C   UNL d   1      15.929  14.310  -0.552  0.00  0.00     0.025 A 
ATOM     22  C   UNL d   1      15.996  15.101  -0.770  0.00  0.00     0.015 A 
BRANCH  20  23
ATOM     23  O   UNL d   1      15.145  13.225  -0.036  0.00  0.00    -0.307 OA
BRANCH  23  24
ATOM     24  C   UNL d   1      14.568  12.748  -0.394  0.00  0.00     0.100 A 
ATOM     25  C   UNL d   1      13.822  12.651  -0.043  0.00  0.00     0.025 A 
ATOM     26  C   UNL d   1      13.254  12.175  -0.406  0.00  0.00     0.002 A 
ATOM     27  C   UNL d   1      13.428  11.796  -1.117  0.00  0.00     0.000 A 
ATOM     28  C   UNL d   1      14.175  11.894  -1.469  0.00  0.00     0.002 A 
ATOM     29  C   UNL d   1      14.744  12.370  -1.107  0.00  0.00     0.025 A 
ENDBRANCH  23  24
ENDBRANCH  20  23
ENDBRANCH   1  17
TORSDOF 5
ENDMDL
MODEL 2
REMARK VINA RESULT:      57.0      1.798      3.477
REMARK  5 active torsions:
REMARK  status: ('A' for Active; 'I' for Inactive)
REMARK    1  A    between atoms: N_2  and  S_1 
REMARK    2  A    between atoms: C_6  and  S_1 
REMARK       I    between atoms: C_3  and  N_4 
REMARK    3  A    between atoms: C_5  and  C_3 
REMARK    4  A    between atoms: O_20  and  C_21 
REMARK    5  A    between atoms: C_24  and  O_20 
ROOT
ATOM      1  S   UNL d   1      13.144  12.572  -4.461  0.00  0.00     0.271 S 
ATOM      2  O   UNL d   1      12.968  12.751  -5.245  0.00  0.00    -0.200 OA
ATOM      3  O   UNL d   1      12.978  11.779  -4.605  0.00  0.00    -0.200 OA
ENDROOT
BRANCH   1   4
ATOM      4  N   UNL d   1      13.311  13.366  -4.314  0.00  0.00    -0.226 N 
ATOM      5  C   UNL d   1      13.861  13.578  -3.745  0.00  0.00     0.111 A 
ATOM      6  C   UNL d   1      14.025  14.372  -3.601  0.00  0.00     0.103 A 
ATOM      7  N   UNL d   1      13.631  14.950  -4.033  0.00  0.00    -0.267 N 
ATOM      8  C   UNL d   1      13.795  15.743  -3.888  0.00  0.00     0.288 C 
ATOM      9  C   UNL d   1      13.080  14.746  -4.602  0.00  0.00     0.103 A 
ATOM     10  O   UNL d   1      13.406  16.331  -4.316  0.00  0.00    -0.264 OA
ATOM     11  C   UNL d   1      12.912  13.951  -4.750  0.00  0.00     0.111 A 
BRANCH   8  12
ATOM     12  C   UNL d   1      14.351  15.957  -3.314  0.00  0.00     0.156 A 
ATOM     13  O   UNL d   1      15.095  16.293  -3.448  0.00  0.00    -0.300 OA
ATOM     14  C   UNL d   1      15.458  16.414  -2.722  0.00  0.00     0.123 A 
ATOM     15  C   UNL d   1      14.945  16.154  -2.128  0.00  0.00     0.029 A 
ATOM     16  C   UNL d   1      14.259  15.871  -2.500  0.00  0.00     0.032 A 
ENDBRANCH   8  12
ENDBRANCH   1   4
BRANCH   1  17
ATOM     17  C   UNL d   1      13.319  12.390  -3.676  0.00  0.00     0.104 A 
ATOM     18  C   UNL d   1      14.035  12.625  -3.335  0.00  0.00     0.015 A 
ATOM     19  C   UNL d   1      14.204  12.440  -2.554  0.00  0.00     0.025 A 
ATOM     20  C   UNL d   1      13.659  12.019  -2.107  0.00  0.00     0.100 A 
ATOM     21  C   UNL d   1      12.941  11.779  -2.437  0.00  0.00     0.025 A 
ATOM     22  C   UNL d   1      12.769  11.963  -3.220  0.00  0.00     0.015 A 
BRANCH  20  23
ATOM     23  O   UNL d   1      13.834  11.834  -1.315  0.00  0.00    -0.307 OA
BRANCH  23  24
ATOM     24  C   UNL d   1      14.371  12.304  -0.893  0.00  0.00     0.100 A 
ATOM     25  C   UNL d   1      14.103  12.941  -0.431  0.00  0.00     0.025 A 
ATOM     26  C   UNL d   1      14.643  13.405  -0.014  0.00  0.00     0.002 A 
ATOM     27  C   UNL d   1      15.449  13.235  -0.056  0.00  0.00     0.000 A 
ATOM     28  C   UNL d   1      15.717  12.598  -0.518  0.00  0.00     0.002 A 
ATOM     29  C   UNL d   1      15.177  12.134  -0.935  0.00  0.00     0.025 A 
ENDBRANCH  23  24
ENDBRANCH  20  23
ENDBRANCH   1  17
TORSDOF 5
ENDMDL
