MODEL 1
REMARK VINA RESULT:      -8.0      0.000      0.000
REMARK  7 active torsions:
REMARK  status: ('A' for Active; 'I' for Inactive)
REMARK    1  A    between atoms: N_4  and  C_1 
REMARK    2  A    between atoms: C_9  and  C_2 
REMARK    3  A    between atoms: C_7  and  N_4 
REMARK    4  A    between atoms: N_8  and  C_7 
REMARK       I    between atoms: C_10  and  N_8 
REMARK    5  A    between atoms: C_15  and  C_10 
REMARK    6  A    between atoms: C_18  and  C_15 
REMARK    7  A    between atoms: C_19  and  C_18 
ROOT
ATOM      1  C   UNL d   1      51.917  33.932  52.830  0.00  0.00     0.224 C 
ATOM      2  S   UNL d   1      52.479  34.468  52.546  0.00  0.00    -0.037 SA
ENDROOT
BRANCH   1   3
ATOM      3  N   UNL d   1      52.082  33.144  52.866  0.00  0.00    -0.211 NA
BRANCH   3   4
ATOM      4  C   UNL d   1      52.681  32.875  53.350  0.00  0.00     0.118 A 
ATOM      5  C   UNL d   1      52.956  32.098  53.400  0.00  0.00     0.084 A 
ATOM      6  C   UNL d   1      53.544  32.080  53.940  0.00  0.00     0.013 A 
ATOM      7  C   UNL d   1      53.979  31.403  54.164  0.00  0.00     0.001 C 
ATOM      8  C   UNL d   1      53.654  32.802  54.232  0.00  0.00     0.031 A 
ATOM      9  S   UNL d   1      53.129  33.305  53.879  0.00  0.00    -0.068 SA
ATOM     10  C   UNL d   1      54.221  32.991  54.808  0.00  0.00     0.007 C 
BRANCH   5  11
ATOM     11  C   UNL d   1      52.667  31.451  52.961  0.00  0.00     0.299 C 
ATOM     12  O   UNL d   1      52.963  31.296  52.205  0.00  0.00    -0.264 OA
ATOM     13  N   UNL d   1      52.075  30.954  53.277  0.00  0.00    -0.102 N 
ENDBRANCH   5  11
ENDBRANCH   3   4
ENDBRANCH   1   3
BRANCH   1  14
ATOM     14  N   UNL d   1      51.181  34.199  53.080  0.00  0.00    -0.179 NA
ATOM     15  C   UNL d   1      50.609  34.407  52.554  0.00  0.00     0.281 C 
ATOM     16  O   UNL d   1      50.752  34.358  51.757  0.00  0.00    -0.265 OA
BRANCH  15  17
ATOM     17  C   UNL d   1      49.859  34.678  52.808  0.00  0.00     0.063 C 
BRANCH  17  18
ATOM     18  C   UNL d   1      49.272  34.808  52.271  0.00  0.00     0.005 C 
BRANCH  18  19
ATOM     19  C   UNL d   1      48.642  35.294  52.485  0.00  0.00     0.000 A 
ATOM     20  C   UNL d   1      48.593  35.624  53.248  0.00  0.00     0.000 A 
ATOM     21  C   UNL d   1      47.966  36.101  53.446  0.00  0.00     0.000 A 
ATOM     22  C   UNL d   1      47.366  36.266  52.889  0.00  0.00     0.000 A 
ATOM     23  C   UNL d   1      47.418  35.938  52.139  0.00  0.00     0.000 A 
ATOM     24  C   UNL d   1      48.064  35.451  51.947  0.00  0.00     0.000 A 
ENDBRANCH  18  19
ENDBRANCH  17  18
ENDBRANCH  15  17
ENDBRANCH   1  14
TORSDOF 7
ENDMDL
MODEL 2
REMARK VINA RESULT:      -7.3      1.322      1.903
REMARK  7 active torsions:
REMARK  status: ('A' for Active; 'I' for Inactive)
REMARK    1  A    between atoms: N_4  and  C_1 
REMARK    2  A    between atoms: C_9  and  C_2 
REMARK    3  A    between atoms: C_7  and  N_4 
REMARK    4  A    between atoms: N_8  and  C_7 
REMARK       I    between atoms: C_10  and  N_8 
REMARK    5  A    between atoms: C_15  and  C_10 
REMARK    6  A    between atoms: C_18  and  C_15 
REMARK    7  A    between atoms: C_19  and  C_18 
ROOT
ATOM      1  C   UNL d   1      51.507  33.877  53.034  0.00  0.00     0.224 C 
ATOM      2  S   UNL d   1      51.591  33.200  52.567  0.00  0.00    -0.037 SA
ENDROOT
BRANCH   1   3
ATOM      3  N   UNL d   1      52.155  34.271  53.309  0.00  0.00    -0.211 NA
BRANCH   3   4
ATOM      4  C   UNL d   1      52.719  33.872  53.744  0.00  0.00     0.118 A 
ATOM      5  C   UNL d   1      53.254  34.210  54.274  0.00  0.00     0.084 A 
ATOM      6  C   UNL d   1      53.704  33.623  54.576  0.00  0.00     0.013 A 
ATOM      7  C   UNL d   1      54.317  33.719  55.135  0.00  0.00     0.001 C 
ATOM      8  C   UNL d   1      53.481  32.936  54.266  0.00  0.00     0.031 A 
ATOM      9  S   UNL d   1      52.874  33.071  53.749  0.00  0.00    -0.068 SA
ATOM     10  C   UNL d   1      53.828  32.205  54.453  0.00  0.00     0.007 C 
BRANCH   5  11
ATOM     11  C   UNL d   1      53.310  35.021  54.456  0.00  0.00     0.299 C 
ATOM     12  O   UNL d   1      53.000  35.310  55.166  0.00  0.00    -0.264 OA
ATOM     13  N   UNL d   1      53.680  35.551  53.927  0.00  0.00    -0.102 N 
ENDBRANCH   5  11
ENDBRANCH   3   4
ENDBRANCH   1   3
BRANCH   1  14
ATOM     14  N   UNL d   1      50.758  34.158  53.225  0.00  0.00    -0.179 NA
ATOM     15  C   UNL d   1      50.259  34.439  52.660  0.00  0.00     0.281 C 
ATOM     16  O   UNL d   1      50.490  34.450  51.883  0.00  0.00    -0.265 OA
BRANCH  15  17
ATOM     17  C   UNL d   1      49.497  34.725  52.854  0.00  0.00     0.063 C 
BRANCH  17  18
ATOM     18  C   UNL d   1      49.108  35.217  52.346  0.00  0.00     0.005 C 
BRANCH  18  19
ATOM     19  C   UNL d   1      48.410  35.573  52.600  0.00  0.00     0.000 A 
ATOM     20  C   UNL d   1      48.336  35.874  53.372  0.00  0.00     0.000 A 
ATOM     21  C   UNL d   1      47.642  36.223  53.610  0.00  0.00     0.000 A 
ATOM     22  C   UNL d   1      46.996  36.282  53.084  0.00  0.00     0.000 A 
ATOM     23  C   UNL d   1      47.073  35.984  52.324  0.00  0.00     0.000 A 
ATOM     24  C   UNL d   1      47.788  35.630  52.092  0.00  0.00     0.000 A 
ENDBRANCH  18  19
ENDBRANCH  17  18
ENDBRANCH  15  17
ENDBRANCH   1  14
TORSDOF 7
ENDMDL
MODEL 3
REMARK VINA RESULT:      -6.4      1.704      5.712
REMARK  7 active torsions:
REMARK  status: ('A' for Active; 'I' for Inactive)
REMARK    1  A    between atoms: N_4  and  C_1 
REMARK    2  A    between atoms: C_9  and  C_2 
REMARK    3  A    between atoms: C_7  and  N_4 
REMARK    4  A    between atoms: N_8  and  C_7 
REMARK       I    between atoms: C_10  and  N_8 
REMARK    5  A    between atoms: C_15  and  C_10 
REMARK    6  A    between atoms: C_18  and  C_15 
REMARK    7  A    between atoms: C_19  and  C_18 
ROOT
ATOM      1  C   UNL d   1      49.782  34.570  52.529  0.00  0.00     0.224 C 
ATOM      2  S   UNL d   1      49.709  34.446  51.715  0.00  0.00    -0.037 SA
ENDROOT
BRANCH   1   3
ATOM      3  N   UNL d   1      49.345  35.137  52.899  0.00  0.00    -0.211 NA
BRANCH   3   4
ATOM      4  C   UNL d   1      48.617  35.352  52.598  0.00  0.00     0.118 A 
ATOM      5  C   UNL d   1      48.046  35.808  52.981  0.00  0.00     0.084 A 
ATOM      6  C   UNL d   1      47.422  35.884  52.488  0.00  0.00     0.013 A 
ATOM      7  C   UNL d   1      46.719  36.303  52.655  0.00  0.00     0.001 C 
ATOM      8  C   UNL d   1      47.569  35.502  51.817  0.00  0.00     0.031 A 
ATOM      9  S   UNL d   1      48.303  35.167  51.868  0.00  0.00    -0.068 SA
ATOM     10  C   UNL d   1      47.042  35.463  51.178  0.00  0.00     0.007 C 
BRANCH   5  11
ATOM     11  C   UNL d   1      48.114  36.129  53.747  0.00  0.00     0.299 C 
ATOM     12  O   UNL d   1      48.681  36.708  53.906  0.00  0.00    -0.264 OA
ATOM     13  N   UNL d   1      47.613  35.870  54.363  0.00  0.00    -0.102 N 
ENDBRANCH   5  11
ENDBRANCH   3   4
ENDBRANCH   1   3
BRANCH   1  14
ATOM     14  N   UNL d   1      50.302  34.114  52.972  0.00  0.00    -0.179 NA
ATOM     15  C   UNL d   1      51.087  34.085  52.799  0.00  0.00     0.281 C 
ATOM     16  O   UNL d   1      51.382  34.512  52.175  0.00  0.00    -0.265 OA
BRANCH  15  17
ATOM     17  C   UNL d   1      51.618  33.621  53.250  0.00  0.00     0.063 C 
BRANCH  17  18
ATOM     18  C   UNL d   1      52.408  33.636  53.087  0.00  0.00     0.005 C 
BRANCH  18  19
ATOM     19  C   UNL d   1      52.917  33.198  53.566  0.00  0.00     0.000 A 
ATOM     20  C   UNL d   1      53.161  32.433  53.349  0.00  0.00     0.000 A 
ATOM     21  C   UNL d   1      53.663  32.013  53.829  0.00  0.00     0.000 A 
ATOM     22  C   UNL d   1      53.939  32.343  54.546  0.00  0.00     0.000 A 
ATOM     23  C   UNL d   1      53.696  33.098  54.756  0.00  0.00     0.000 A 
ATOM     24  C   UNL d   1      53.182  33.518  54.255  0.00  0.00     0.000 A 
ENDBRANCH  18  19
ENDBRANCH  17  18
ENDBRANCH  15  17
ENDBRANCH   1  14
TORSDOF 7
ENDMDL
MODEL 4
REMARK VINA RESULT:      -5.9      3.013      5.305
REMARK  7 active torsions:
REMARK  status: ('A' for Active; 'I' for Inactive)
REMARK    1  A    between atoms: N_4  and  C_1 
REMARK    2  A    between atoms: C_9  and  C_2 
REMARK    3  A    between atoms: C_7  and  N_4 
REMARK    4  A    between atoms: N_8  and  C_7 
REMARK       I    between atoms: C_10  and  N_8 
REMARK    5  A    between atoms: C_15  and  C_10 
REMARK    6  A    between atoms: C_18  and  C_15 
REMARK    7  A    between atoms: C_19  and  C_18 
ROOT
ATOM      1  C   UNL d   1      52.763  32.660  53.121  0.00  0.00     0.224 C 
ATOM      2  S   UNL d   1      52.190  32.957  52.605  0.00  0.00    -0.037 SA
ENDROOT
BRANCH   1   3
ATOM      3  N   UNL d   1      53.417  33.094  53.305  0.00  0.00    -0.211 NA
BRANCH   3   4
ATOM      4  C   UNL d   1      53.350  33.743  53.795  0.00  0.00     0.118 A 
ATOM      5  C   UNL d   1      53.860  33.943  54.412  0.00  0.00     0.084 A 
ATOM      6  C   UNL d   1      53.590  34.616  54.746  0.00  0.00     0.013 A 
ATOM      7  C   UNL d   1      53.942  35.014  55.391  0.00  0.00     0.001 C 
ATOM      8  C   UNL d   1      52.938  34.850  54.374  0.00  0.00     0.031 A 
ATOM      9  S   UNL d   1      52.775  34.322  53.784  0.00  0.00    -0.068 SA
ATOM     10  C   UNL d   1      52.507  35.531  54.573  0.00  0.00     0.007 C 
BRANCH   5  11
ATOM     11  C   UNL d   1      54.537  33.514  54.640  0.00  0.00     0.299 C 
ATOM     12  O   UNL d   1      55.219  33.535  54.175  0.00  0.00    -0.264 OA
ATOM     13  N   UNL d   1      54.535  33.057  55.340  0.00  0.00    -0.102 N 
ENDBRANCH   5  11
ENDBRANCH   3   4
ENDBRANCH   1   3
BRANCH   1  14
ATOM     14  N   UNL d   1      52.673  31.914  53.455  0.00  0.00    -0.179 NA
ATOM     15  C   UNL d   1      52.747  31.245  53.013  0.00  0.00     0.281 C 
ATOM     16  O   UNL d   1      52.914  31.297  52.221  0.00  0.00    -0.265 OA
BRANCH  15  17
ATOM     17  C   UNL d   1      52.655  30.485  53.352  0.00  0.00     0.063 C 
BRANCH  17  18
ATOM     18  C   UNL d   1      53.290  29.992  53.419  0.00  0.00     0.005 C 
BRANCH  18  19
ATOM     19  C   UNL d   1      53.315  29.466  54.052  0.00  0.00     0.000 A 
ATOM     20  C   UNL d   1      53.019  29.678  54.800  0.00  0.00     0.000 A 
ATOM     21  C   UNL d   1      53.049  29.150  55.416  0.00  0.00     0.000 A 
ATOM     22  C   UNL d   1      53.379  28.389  55.306  0.00  0.00     0.000 A 
ATOM     23  C   UNL d   1      53.670  28.185  54.568  0.00  0.00     0.000 A 
ATOM     24  C   UNL d   1      53.633  28.734  53.945  0.00  0.00     0.000 A 
ENDBRANCH  18  19
ENDBRANCH  17  18
ENDBRANCH  15  17
ENDBRANCH   1  14
TORSDOF 7
ENDMDL
MODEL 5
REMARK VINA RESULT:      -5.8      3.105      6.336
REMARK  7 active torsions:
REMARK  status: ('A' for Active; 'I' for Inactive)
REMARK    1  A    between atoms: N_4  and  C_1 
REMARK    2  A    between atoms: C_9  and  C_2 
REMARK    3  A    between atoms: C_7  and  N_4 
REMARK    4  A    between atoms: N_8  and  C_7 
REMARK       I    between atoms: C_10  and  N_8 
REMARK    5  A    between atoms: C_15  and  C_10 
REMARK    6  A    between atoms: C_18  and  C_15 
REMARK    7  A    between atoms: C_19  and  C_18 
ROOT
ATOM      1  C   UNL d   1      47.537  36.069  53.188  0.00  0.00     0.224 C 
ATOM      2  S   UNL d   1      47.559  36.700  53.722  0.00  0.00    -0.037 SA
ENDROOT
BRANCH   1   3
ATOM      3  N   UNL d   1      46.991  36.052  52.594  0.00  0.00    -0.211 NA
BRANCH   3   4
ATOM      4  C   UNL d   1      46.239  35.774  52.742  0.00  0.00     0.118 A 
ATOM      5  C   UNL d   1      45.683  35.547  52.175  0.00  0.00     0.084 A 
ATOM      6  C   UNL d   1      45.023  35.311  52.559  0.00  0.00     0.013 A 
ATOM      7  C   UNL d   1      44.322  35.036  52.197  0.00  0.00     0.001 C 
ATOM      8  C   UNL d   1      45.133  35.377  53.335  0.00  0.00     0.031 A 
ATOM      9  S   UNL d   1      45.879  35.662  53.466  0.00  0.00    -0.068 SA
ATOM     10  C   UNL d   1      44.563  35.181  53.905  0.00  0.00     0.007 C 
BRANCH   5  11
ATOM     11  C   UNL d   1      45.797  35.563  51.350  0.00  0.00     0.299 C 
ATOM     12  O   UNL d   1      46.143  34.919  50.965  0.00  0.00    -0.264 OA
ATOM     13  N   UNL d   1      45.563  36.229  50.902  0.00  0.00    -0.102 N 
ENDBRANCH   5  11
ENDBRANCH   3   4
ENDBRANCH   1   3
BRANCH   1  14
ATOM     14  N   UNL d   1      48.073  35.450  53.255  0.00  0.00    -0.179 NA
ATOM     15  C   UNL d   1      48.865  35.571  53.181  0.00  0.00     0.281 C 
ATOM     16  O   UNL d   1      49.151  36.316  53.037  0.00  0.00    -0.265 OA
BRANCH  15  17
ATOM     17  C   UNL d   1      49.412  34.941  53.250  0.00  0.00     0.063 C 
BRANCH  17  18
ATOM     18  C   UNL d   1      49.912  34.770  52.641  0.00  0.00     0.005 C 
BRANCH  18  19
ATOM     19  C   UNL d   1      50.564  34.289  52.789  0.00  0.00     0.000 A 
ATOM     20  C   UNL d   1      50.489  33.587  53.230  0.00  0.00     0.000 A 
ATOM     21  C   UNL d   1      51.140  33.121  53.370  0.00  0.00     0.000 A 
ATOM     22  C   UNL d   1      51.890  33.341  53.072  0.00  0.00     0.000 A 
ATOM     23  C   UNL d   1      51.958  34.033  52.638  0.00  0.00     0.000 A 
ATOM     24  C   UNL d   1      51.285  34.501  52.502  0.00  0.00     0.000 A 
ENDBRANCH  18  19
ENDBRANCH  17  18
ENDBRANCH  15  17
ENDBRANCH   1  14
TORSDOF 7
ENDMDL
