MODEL 1
REMARK VINA RESULT:      -7.5      0.000      0.000
REMARK  6 active torsions:
REMARK  status: ('A' for Active; 'I' for Inactive)
REMARK    1  A    between atoms: C_4  and  C_1 
REMARK    2  A    between atoms: N_7  and  C_2 
REMARK    3  A    between atoms: C_6  and  C_4 
REMARK    4  A    between atoms: C_8  and  C_4 
REMARK    5  A    between atoms: O_13  and  C_6 
REMARK    6  A    between atoms: C_19  and  O_13 
ROOT
ATOM      1  C   UNL d   1      52.241  33.093  53.052  0.00  0.00     0.122 A 
ATOM      2  C   UNL d   1      52.830  33.245  53.610  0.00  0.00     0.166 A 
ATOM      3  N   UNL d   1      53.316  32.626  53.871  0.00  0.00    -0.225 NA
ATOM      4  N   UNL d   1      52.131  32.329  52.752  0.00  0.00    -0.241 NA
ATOM      5  C   UNL d   1      53.209  31.863  53.573  0.00  0.00     0.101 A 
ATOM      6  C   UNL d   1      52.614  31.717  53.012  0.00  0.00     0.099 A 
ATOM      7  C   UNL d   1      53.694  31.248  53.833  0.00  0.00     0.021 A 
ATOM      8  C   UNL d   1      52.511  30.955  52.718  0.00  0.00     0.021 A 
ATOM      9  C   UNL d   1      52.995  30.340  52.978  0.00  0.00     0.002 A 
ATOM     10  C   UNL d   1      53.584  30.483  53.533  0.00  0.00     0.002 A 
ENDROOT
BRANCH   1  11
ATOM     11  C   UNL d   1      51.747  33.710  52.784  0.00  0.00     0.105 C 
BRANCH  11  12
ATOM     12  C   UNL d   1      50.953  33.738  52.999  0.00  0.00     0.303 C 
ATOM     13  O   UNL d   1      50.641  33.154  53.493  0.00  0.00    -0.259 OA
BRANCH  12  14
ATOM     14  O   UNL d   1      50.469  34.346  52.722  0.00  0.00    -0.273 OA
BRANCH  14  15
ATOM     15  C   UNL d   1      49.729  34.704  52.689  0.00  0.00     0.103 A 
ATOM     16  C   UNL d   1      49.248  34.573  52.036  0.00  0.00     0.025 A 
ATOM     17  C   UNL d   1      48.511  34.929  52.001  0.00  0.00     0.002 A 
ATOM     18  C   UNL d   1      48.245  35.415  52.611  0.00  0.00     0.000 A 
ATOM     19  C   UNL d   1      48.739  35.539  53.263  0.00  0.00     0.002 A 
ATOM     20  C   UNL d   1      49.478  35.184  53.301  0.00  0.00     0.025 A 
ENDBRANCH  14  15
ENDBRANCH  12  14
ENDBRANCH  11  12
BRANCH  11  21
ATOM     21  C   UNL d   1      52.059  34.310  52.290  0.00  0.00     0.129 C 
ATOM     22  N   UNL d   1      51.959  34.300  51.341  0.00  0.00    -0.146 N 
ENDBRANCH  11  21
ENDBRANCH   1  11
BRANCH   2  23
ATOM     23  N   UNL d   1      52.934  34.008  53.905  0.00  0.00    -0.285 N 
ATOM     24  C   UNL d   1      52.630  34.204  54.653  0.00  0.00     0.101 A 
ATOM     25  C   UNL d   1      52.728  34.961  54.956  0.00  0.00     0.100 A 
ATOM     26  N   UNL d   1      53.133  35.530  54.511  0.00  0.00    -0.299 N 
ATOM     27  C   UNL d   1      53.437  35.335  53.763  0.00  0.00     0.100 A 
ATOM     28  C   UNL d   1      53.237  36.303  54.812  0.00  0.00     0.100 C 
ATOM     29  C   UNL d   1      53.336  34.570  53.461  0.00  0.00     0.101 A 
ENDBRANCH   2  23
TORSDOF 6
ENDMDL
MODEL 2
REMARK VINA RESULT:      -6.7      1.345      1.696
REMARK  6 active torsions:
REMARK  status: ('A' for Active; 'I' for Inactive)
REMARK    1  A    between atoms: C_4  and  C_1 
REMARK    2  A    between atoms: N_7  and  C_2 
REMARK    3  A    between atoms: C_6  and  C_4 
REMARK    4  A    between atoms: C_8  and  C_4 
REMARK    5  A    between atoms: O_13  and  C_6 
REMARK    6  A    between atoms: C_19  and  O_13 
ROOT
ATOM      1  C   UNL d   1      53.111  32.345  53.438  0.00  0.00     0.122 A 
ATOM      2  C   UNL d   1      53.710  32.095  53.949  0.00  0.00     0.166 A 
ATOM      3  N   UNL d   1      53.844  31.284  54.056  0.00  0.00    -0.225 NA
ATOM      4  N   UNL d   1      52.645  31.793  53.032  0.00  0.00    -0.241 NA
ATOM      5  C   UNL d   1      53.381  30.731  53.653  0.00  0.00     0.101 A 
ATOM      6  C   UNL d   1      52.781  30.990  53.140  0.00  0.00     0.099 A 
ATOM      7  C   UNL d   1      53.516  29.924  53.760  0.00  0.00     0.021 A 
ATOM      8  C   UNL d   1      52.321  30.435  52.740  0.00  0.00     0.021 A 
ATOM      9  C   UNL d   1      52.456  29.628  52.847  0.00  0.00     0.002 A 
ATOM     10  C   UNL d   1      53.050  29.372  53.354  0.00  0.00     0.002 A 
ENDROOT
BRANCH   1  11
ATOM     11  C   UNL d   1      52.968  33.159  53.324  0.00  0.00     0.105 C 
BRANCH  11  12
ATOM     12  C   UNL d   1      52.242  33.491  53.524  0.00  0.00     0.303 C 
ATOM     13  O   UNL d   1      52.062  33.636  54.317  0.00  0.00    -0.259 OA
BRANCH  12  14
ATOM     14  O   UNL d   1      51.695  33.680  52.936  0.00  0.00    -0.273 OA
BRANCH  14  15
ATOM     15  C   UNL d   1      50.975  34.010  52.718  0.00  0.00     0.103 A 
ATOM     16  C   UNL d   1      50.725  33.952  51.936  0.00  0.00     0.025 A 
ATOM     17  C   UNL d   1      50.008  34.281  51.718  0.00  0.00     0.002 A 
ATOM     18  C   UNL d   1      49.532  34.668  52.268  0.00  0.00     0.000 A 
ATOM     19  C   UNL d   1      49.794  34.720  53.051  0.00  0.00     0.002 A 
ATOM     20  C   UNL d   1      50.513  34.391  53.274  0.00  0.00     0.025 A 
ENDBRANCH  14  15
ENDBRANCH  12  14
ENDBRANCH  11  12
BRANCH  11  21
ATOM     21  C   UNL d   1      53.568  33.647  53.002  0.00  0.00     0.129 C 
ATOM     22  N   UNL d   1      53.461  34.122  52.181  0.00  0.00    -0.146 N 
ENDBRANCH  11  21
ENDBRANCH   1  11
BRANCH   2  23
ATOM     23  N   UNL d   1      54.170  32.650  54.350  0.00  0.00    -0.285 N 
ATOM     24  C   UNL d   1      53.961  32.874  55.122  0.00  0.00     0.101 A 
ATOM     25  C   UNL d   1      54.413  33.426  55.530  0.00  0.00     0.100 A 
ATOM     26  N   UNL d   1      55.079  33.758  55.167  0.00  0.00    -0.299 N 
ATOM     27  C   UNL d   1      55.287  33.534  54.394  0.00  0.00     0.100 A 
ATOM     28  C   UNL d   1      55.544  34.320  55.575  0.00  0.00     0.100 C 
ATOM     29  C   UNL d   1      54.829  32.977  53.986  0.00  0.00     0.101 A 
ENDBRANCH   2  23
TORSDOF 6
ENDMDL
MODEL 3
REMARK VINA RESULT:      -5.3      1.547      4.156
REMARK  6 active torsions:
REMARK  status: ('A' for Active; 'I' for Inactive)
REMARK    1  A    between atoms: C_4  and  C_1 
REMARK    2  A    between atoms: N_7  and  C_2 
REMARK    3  A    between atoms: C_6  and  C_4 
REMARK    4  A    between atoms: C_8  and  C_4 
REMARK    5  A    between atoms: O_13  and  C_6 
REMARK    6  A    between atoms: C_19  and  O_13 
ROOT
ATOM      1  C   UNL d   1      52.792  33.060  53.203  0.00  0.00     0.122 A 
ATOM      2  C   UNL d   1      52.796  33.615  53.815  0.00  0.00     0.166 A 
ATOM      3  N   UNL d   1      52.177  34.163  53.875  0.00  0.00    -0.225 NA
ATOM      4  N   UNL d   1      52.176  33.047  52.650  0.00  0.00    -0.241 NA
ATOM      5  C   UNL d   1      51.560  34.152  53.324  0.00  0.00     0.101 A 
ATOM      6  C   UNL d   1      51.563  33.591  52.711  0.00  0.00     0.099 A 
ATOM      7  C   UNL d   1      50.944  34.698  53.384  0.00  0.00     0.021 A 
ATOM      8  C   UNL d   1      50.947  33.583  52.165  0.00  0.00     0.021 A 
ATOM      9  C   UNL d   1      50.331  34.129  52.225  0.00  0.00     0.002 A 
ATOM     10  C   UNL d   1      50.328  34.684  52.831  0.00  0.00     0.002 A 
ENDROOT
BRANCH   1  11
ATOM     11  C   UNL d   1      53.411  32.505  53.136  0.00  0.00     0.105 C 
BRANCH  11  12
ATOM     12  C   UNL d   1      53.253  31.716  52.962  0.00  0.00     0.303 C 
ATOM     13  O   UNL d   1      53.065  31.497  52.188  0.00  0.00    -0.259 OA
BRANCH  12  14
ATOM     14  O   UNL d   1      53.280  31.146  53.558  0.00  0.00    -0.273 OA
BRANCH  14  15
ATOM     15  C   UNL d   1      53.201  30.362  53.793  0.00  0.00     0.103 A 
ATOM     16  C   UNL d   1      53.671  30.075  54.403  0.00  0.00     0.025 A 
ATOM     17  C   UNL d   1      53.593  29.295  54.638  0.00  0.00     0.002 A 
ATOM     18  C   UNL d   1      53.052  28.793  54.272  0.00  0.00     0.000 A 
ATOM     19  C   UNL d   1      52.585  29.093  53.659  0.00  0.00     0.002 A 
ATOM     20  C   UNL d   1      52.660  29.875  53.420  0.00  0.00     0.025 A 
ENDBRANCH  14  15
ENDBRANCH  12  14
ENDBRANCH  11  12
BRANCH  11  21
ATOM     21  C   UNL d   1      54.205  32.749  53.246  0.00  0.00     0.129 C 
ATOM     22  N   UNL d   1      54.897  32.548  52.621  0.00  0.00    -0.146 N 
ENDBRANCH  11  21
ENDBRANCH   1  11
BRANCH   2  23
ATOM     23  N   UNL d   1      53.412  33.623  54.363  0.00  0.00    -0.285 N 
ATOM     24  C   UNL d   1      53.341  33.190  55.068  0.00  0.00     0.101 A 
ATOM     25  C   UNL d   1      53.949  33.191  55.620  0.00  0.00     0.100 A 
ATOM     26  N   UNL d   1      54.636  33.628  55.470  0.00  0.00    -0.299 N 
ATOM     27  C   UNL d   1      54.708  34.062  54.765  0.00  0.00     0.100 A 
ATOM     28  C   UNL d   1      55.260  33.635  56.027  0.00  0.00     0.100 C 
ATOM     29  C   UNL d   1      54.093  34.058  54.210  0.00  0.00     0.101 A 
ENDBRANCH   2  23
TORSDOF 6
ENDMDL
MODEL 4
REMARK VINA RESULT:      -5.2      1.221      4.307
REMARK  6 active torsions:
REMARK  status: ('A' for Active; 'I' for Inactive)
REMARK    1  A    between atoms: C_4  and  C_1 
REMARK    2  A    between atoms: N_7  and  C_2 
REMARK    3  A    between atoms: C_6  and  C_4 
REMARK    4  A    between atoms: C_8  and  C_4 
REMARK    5  A    between atoms: O_13  and  C_6 
REMARK    6  A    between atoms: C_19  and  O_13 
ROOT
ATOM      1  C   UNL d   1      52.066  33.624  53.493  0.00  0.00     0.122 A 
ATOM      2  C   UNL d   1      51.775  34.344  53.211  0.00  0.00     0.166 A 
ATOM      3  N   UNL d   1      52.089  35.054  53.503  0.00  0.00    -0.225 NA
ATOM      4  N   UNL d   1      52.666  33.605  54.063  0.00  0.00    -0.241 NA
ATOM      5  C   UNL d   1      52.688  35.039  54.072  0.00  0.00     0.101 A 
ATOM      6  C   UNL d   1      52.975  34.311  54.351  0.00  0.00     0.099 A 
ATOM      7  C   UNL d   1      52.999  35.746  54.362  0.00  0.00     0.021 A 
ATOM      8  C   UNL d   1      53.572  34.300  54.918  0.00  0.00     0.021 A 
ATOM      9  C   UNL d   1      53.883  35.007  55.208  0.00  0.00     0.002 A 
ATOM     10  C   UNL d   1      53.599  35.727  54.932  0.00  0.00     0.002 A 
ENDROOT
BRANCH   1  11
ATOM     11  C   UNL d   1      51.757  32.904  53.205  0.00  0.00     0.105 C 
BRANCH  11  12
ATOM     12  C   UNL d   1      52.250  32.341  52.863  0.00  0.00     0.303 C 
ATOM     13  O   UNL d   1      52.555  32.468  52.106  0.00  0.00    -0.259 OA
BRANCH  12  14
ATOM     14  O   UNL d   1      52.439  31.651  53.274  0.00  0.00    -0.273 OA
BRANCH  14  15
ATOM     15  C   UNL d   1      52.840  30.934  53.309  0.00  0.00     0.103 A 
ATOM     16  C   UNL d   1      53.561  30.894  53.700  0.00  0.00     0.025 A 
ATOM     17  C   UNL d   1      53.961  30.181  53.736  0.00  0.00     0.002 A 
ATOM     18  C   UNL d   1      53.651  29.502  53.385  0.00  0.00     0.000 A 
ATOM     19  C   UNL d   1      52.924  29.555  52.995  0.00  0.00     0.002 A 
ATOM     20  C   UNL d   1      52.520  30.268  52.957  0.00  0.00     0.025 A 
ENDBRANCH  14  15
ENDBRANCH  12  14
ENDBRANCH  11  12
BRANCH  11  21
ATOM     21  C   UNL d   1      50.936  32.751  53.262  0.00  0.00     0.129 C 
ATOM     22  N   UNL d   1      50.582  32.018  53.761  0.00  0.00    -0.146 N 
ENDBRANCH  11  21
ENDBRANCH   1  11
BRANCH   2  23
ATOM     23  N   UNL d   1      51.178  34.355  52.643  0.00  0.00    -0.285 N 
ATOM     24  C   UNL d   1      50.386  34.433  52.883  0.00  0.00     0.101 A 
ATOM     25  C   UNL d   1      49.783  34.445  52.325  0.00  0.00     0.100 A 
ATOM     26  N   UNL d   1      49.968  34.380  51.520  0.00  0.00    -0.299 N 
ATOM     27  C   UNL d   1      50.760  34.303  51.281  0.00  0.00     0.100 A 
ATOM     28  C   UNL d   1      49.360  34.392  50.946  0.00  0.00     0.100 C 
ATOM     29  C   UNL d   1      51.366  34.291  51.846  0.00  0.00     0.101 A 
ENDBRANCH   2  23
TORSDOF 6
ENDMDL
MODEL 5
REMARK VINA RESULT:      -4.5      1.576      3.698
REMARK  6 active torsions:
REMARK  status: ('A' for Active; 'I' for Inactive)
REMARK    1  A    between atoms: C_4  and  C_1 
REMARK    2  A    between atoms: N_7  and  C_2 
REMARK    3  A    between atoms: C_6  and  C_4 
REMARK    4  A    between atoms: C_8  and  C_4 
REMARK    5  A    between atoms: O_13  and  C_6 
REMARK    6  A    between atoms: C_19  and  O_13 
ROOT
ATOM      1  C   UNL d   1      52.550  32.953  53.064  0.00  0.00     0.122 A 
ATOM      2  C   UNL d   1      51.758  32.725  53.012  0.00  0.00     0.166 A 
ATOM      3  N   UNL d   1      51.566  31.919  52.998  0.00  0.00    -0.225 NA
ATOM      4  N   UNL d   1      53.152  32.385  53.103  0.00  0.00    -0.241 NA
ATOM      5  C   UNL d   1      52.163  31.349  53.037  0.00  0.00     0.101 A 
ATOM      6  C   UNL d   1      52.958  31.587  53.090  0.00  0.00     0.099 A 
ATOM      7  C   UNL d   1      51.970  30.547  53.024  0.00  0.00     0.021 A 
ATOM      8  C   UNL d   1      53.551  31.016  53.129  0.00  0.00     0.021 A 
ATOM      9  C   UNL d   1      53.358  30.214  53.116  0.00  0.00     0.002 A 
ATOM     10  C   UNL d   1      52.572  29.979  53.063  0.00  0.00     0.002 A 
ENDROOT
BRANCH   1  11
ATOM     11  C   UNL d   1      52.754  33.763  53.078  0.00  0.00     0.105 C 
BRANCH  11  12
ATOM     12  C   UNL d   1      53.078  34.104  53.753  0.00  0.00     0.303 C 
ATOM     13  O   UNL d   1      52.716  34.765  54.092  0.00  0.00    -0.259 OA
BRANCH  12  14
ATOM     14  O   UNL d   1      53.761  33.788  54.091  0.00  0.00    -0.273 OA
BRANCH  14  15
ATOM     15  C   UNL d   1      54.343  33.816  54.672  0.00  0.00     0.103 A 
ATOM     16  C   UNL d   1      55.115  34.002  54.460  0.00  0.00     0.025 A 
ATOM     17  C   UNL d   1      55.694  34.030  55.037  0.00  0.00     0.002 A 
ATOM     18  C   UNL d   1      55.517  33.875  55.826  0.00  0.00     0.000 A 
ATOM     19  C   UNL d   1      54.736  33.688  56.027  0.00  0.00     0.002 A 
ATOM     20  C   UNL d   1      54.152  33.659  55.451  0.00  0.00     0.025 A 
ENDBRANCH  14  15
ENDBRANCH  12  14
ENDBRANCH  11  12
BRANCH  11  21
ATOM     21  C   UNL d   1      52.629  34.236  52.399  0.00  0.00     0.129 C 
ATOM     22  N   UNL d   1      53.307  34.798  52.030  0.00  0.00    -0.146 N 
ENDBRANCH  11  21
ENDBRANCH   1  11
BRANCH   2  23
ATOM     23  N   UNL d   1      51.164  33.295  52.973  0.00  0.00    -0.285 N 
ATOM     24  C   UNL d   1      50.925  33.589  52.233  0.00  0.00     0.101 A 
ATOM     25  C   UNL d   1      50.334  34.157  52.183  0.00  0.00     0.100 A 
ATOM     26  N   UNL d   1      49.977  34.437  52.876  0.00  0.00    -0.299 N 
ATOM     27  C   UNL d   1      50.216  34.144  53.616  0.00  0.00     0.100 A 
ATOM     28  C   UNL d   1      49.375  35.016  52.834  0.00  0.00     0.100 C 
ATOM     29  C   UNL d   1      50.812  33.571  53.662  0.00  0.00     0.101 A 
ENDBRANCH   2  23
TORSDOF 6
ENDMDL
