MODEL 1
REMARK VINA RESULT:      82.7      0.000      0.000
REMARK  8 active torsions:
REMARK  status: ('A' for Active; 'I' for Inactive)
REMARK    1  A    between atoms: C_9  and  N_1 
REMARK    2  A    between atoms: C_7  and  C_2 
REMARK    3  A    between atoms: C_6  and  C_4 
REMARK    4  A    between atoms: C_8  and  C_11 
REMARK       I    between atoms: N_23  and  C_8 
REMARK    5  A    between atoms: C_26  and  N_23 
REMARK    6  A    between atoms: C_24  and  C_26 
REMARK    7  A    between atoms: C_27  and  C_24 
REMARK    8  A    between atoms: O_25  and  C_27 
ROOT
ATOM      1  N   UNL d   1      61.030  48.243  51.275  0.00  0.00    -0.229 N 
ATOM      2  C   UNL d   1      60.728  48.972  50.985  0.00  0.00     0.090 A 
ATOM      3  N   UNL d   1      61.164  48.329  52.070  0.00  0.00    -0.161 NA
ATOM      4  C   UNL d   1      60.956  49.099  52.300  0.00  0.00     0.174 A 
ATOM      5  C   UNL d   1      60.684  49.495  51.621  0.00  0.00     0.044 A 
ENDROOT
BRANCH   1   6
ATOM      6  C   UNL d   1      61.165  47.564  50.832  0.00  0.00     0.083 A 
ATOM      7  C   UNL d   1      60.630  46.934  50.867  0.00  0.00     0.019 A 
ATOM      8  C   UNL d   1      60.759  46.250  50.425  0.00  0.00     0.006 A 
ATOM      9  C   UNL d   1      61.433  46.199  49.942  0.00  0.00     0.058 A 
ATOM     10  C   UNL d   1      61.970  46.834  49.908  0.00  0.00     0.006 A 
ATOM     11  C   UNL d   1      61.833  47.508  50.350  0.00  0.00     0.019 A 
BRANCH   9  12
ATOM     12  C   UNL d   1      61.568  45.511  49.494  0.00  0.00     0.279 C 
ATOM     13  O   UNL d   1      61.109  45.353  48.830  0.00  0.00    -0.265 OA
ATOM     14  N   UNL d   1      62.161  44.988  49.716  0.00  0.00    -0.206 NA
BRANCH  14  15
ATOM     15  C   UNL d   1      62.300  44.307  49.278  0.00  0.00     0.104 C 
BRANCH  15  16
ATOM     16  C   UNL d   1      62.190  43.562  49.615  0.00  0.00     0.047 C 
BRANCH  16  17
ATOM     17  C   UNL d   1      62.725  43.278  50.181  0.00  0.00     0.118 C 
BRANCH  17  18
ATOM     18  O   UNL d   1      62.841  42.463  50.252  0.00  0.00    -0.326 OA
ATOM     19  C   UNL d   1      63.138  42.148  50.962  0.00  0.00     0.181 C 
ENDBRANCH  17  18
ENDBRANCH  16  17
ENDBRANCH  15  16
ENDBRANCH  14  15
ENDBRANCH   9  12
ENDBRANCH   1   6
BRANCH   2  20
ATOM     20  C   UNL d   1      60.492  49.214  50.232  0.00  0.00     0.047 A 
ATOM     21  S   UNL d   1      60.742  49.302  49.440  0.00  0.00    -0.085 SA
ATOM     22  C   UNL d   1      60.105  49.609  49.006  0.00  0.00     0.035 A 
ATOM     23  C   UNL d   1      59.478  49.706  49.526  0.00  0.00     0.007 A 
ATOM     24  C   UNL d   1      59.712  49.465  50.276  0.00  0.00     0.009 A 
ENDBRANCH   2  20
BRANCH   4  25
ATOM     25  C   UNL d   1      61.006  49.417  53.060  0.00  0.00     0.437 C 
ATOM     26  F   UNL d   1      61.055  49.708  53.753  0.00  0.00    -0.164 F 
ATOM     27  F   UNL d   1      61.700  49.703  53.483  0.00  0.00    -0.164 F 
ATOM     28  F   UNL d   1      60.379  49.552  53.642  0.00  0.00    -0.164 F 
ENDBRANCH   4  25
TORSDOF 8
ENDMDL
