MODEL 1
REMARK VINA RESULT:      -4.4      0.000      0.000
REMARK  1 active torsions:
REMARK  status: ('A' for Active; 'I' for Inactive)
REMARK    1  A    between atoms: N_8  and  C_7 
REMARK       I    between atoms: C_11  and  N_8 
ROOT
ATOM      1  N   UNL d   1      56.153   0.675  34.369  0.00  0.00    -0.273 N 
ATOM      2  C   UNL d   1      56.446   0.674  33.597  0.00  0.00     0.067 A 
ATOM      3  C   UNL d   1      57.260   0.677  33.466  0.00  0.00     0.019 A 
ATOM      4  C   UNL d   1      55.932   0.669  32.961  0.00  0.00     0.018 A 
ATOM      5  C   UNL d   1      55.346   0.672  34.504  0.00  0.00     0.265 A 
ATOM      6  C   UNL d   1      56.797   0.680  34.879  0.00  0.00     0.083 A 
ATOM      7  C   UNL d   1      57.032   0.671  32.055  0.00  0.00     0.085 A 
ATOM      8  C   UNL d   1      57.554   0.676  32.695  0.00  0.00     0.021 A 
ATOM      9  C   UNL d   1      56.225   0.667  32.190  0.00  0.00     0.021 A 
ATOM     10  C   UNL d   1      57.644   0.682  34.200  0.00  0.00     0.021 A 
ATOM     11  C   UNL d   1      55.109   0.665  33.089  0.00  0.00     0.006 A 
ATOM     12  C   UNL d   1      54.816   0.667  33.860  0.00  0.00     0.061 A 
ATOM     13  O   UNL d   1      55.053   0.673  35.275  0.00  0.00    -0.267 OA
ENDROOT
BRANCH   7  14
ATOM     14  N   UNL d   1      57.325   0.669  31.285  0.00  0.00    -0.208 NA
ATOM     15  C   UNL d   1      57.476  -0.032  30.907  0.00  0.00     0.279 C 
ATOM     16  O   UNL d   1      57.338  -0.761  31.293  0.00  0.00    -0.265 OA
ATOM     17  C   UNL d   1      57.770  -0.039  30.136  0.00  0.00     0.068 C 
ENDBRANCH   7  14
TORSDOF 1
ENDMDL
MODEL 2
REMARK VINA RESULT:      -3.1      1.182      3.240
REMARK  1 active torsions:
REMARK  status: ('A' for Active; 'I' for Inactive)
REMARK    1  A    between atoms: N_8  and  C_7 
REMARK       I    between atoms: C_11  and  N_8 
ROOT
ATOM      1  N   UNL d   1      58.474   0.658  31.702  0.00  0.00    -0.273 N 
ATOM      2  C   UNL d   1      57.760   0.663  32.117  0.00  0.00     0.067 A 
ATOM      3  C   UNL d   1      57.764   0.677  32.942  0.00  0.00     0.019 A 
ATOM      4  C   UNL d   1      57.049   0.656  31.714  0.00  0.00     0.018 A 
ATOM      5  C   UNL d   1      58.475   0.645  30.884  0.00  0.00     0.265 A 
ATOM      6  C   UNL d   1      59.082   0.668  32.255  0.00  0.00     0.083 A 
ATOM      7  C   UNL d   1      56.334   0.674  32.947  0.00  0.00     0.085 A 
ATOM      8  C   UNL d   1      57.051   0.682  33.357  0.00  0.00     0.021 A 
ATOM      9  C   UNL d   1      56.336   0.661  32.129  0.00  0.00     0.021 A 
ATOM     10  C   UNL d   1      58.551   0.682  33.200  0.00  0.00     0.021 A 
ATOM     11  C   UNL d   1      57.041   0.642  30.881  0.00  0.00     0.006 A 
ATOM     12  C   UNL d   1      57.754   0.637  30.466  0.00  0.00     0.061 A 
ATOM     13  O   UNL d   1      59.188   0.639  30.469  0.00  0.00    -0.267 OA
ENDROOT
BRANCH   7  14
ATOM     14  N   UNL d   1      55.622   0.680  33.361  0.00  0.00    -0.208 NA
ATOM     15  C   UNL d   1      55.225  -0.014  33.499  0.00  0.00     0.279 C 
ATOM     16  O   UNL d   1      55.531  -0.741  33.224  0.00  0.00    -0.265 OA
ATOM     17  C   UNL d   1      54.512  -0.013  33.913  0.00  0.00     0.068 C 
ENDBRANCH   7  14
TORSDOF 1
ENDMDL
MODEL 3
REMARK VINA RESULT:      -3.1      1.960      4.652
REMARK  1 active torsions:
REMARK  status: ('A' for Active; 'I' for Inactive)
REMARK    1  A    between atoms: N_8  and  C_7 
REMARK       I    between atoms: C_11  and  N_8 
ROOT
ATOM      1  N   UNL d   1      59.552   0.629  29.481  0.00  0.00    -0.273 N 
ATOM      2  C   UNL d   1      58.944   0.642  30.038  0.00  0.00     0.067 A 
ATOM      3  C   UNL d   1      58.157   0.632  29.790  0.00  0.00     0.019 A 
ATOM      4  C   UNL d   1      59.117   0.664  30.836  0.00  0.00     0.018 A 
ATOM      5  C   UNL d   1      60.333   0.638  29.722  0.00  0.00     0.265 A 
ATOM      6  C   UNL d   1      59.205   0.607  28.735  0.00  0.00     0.083 A 
ATOM      7  C   UNL d   1      57.728   0.668  31.153  0.00  0.00     0.085 A 
ATOM      8  C   UNL d   1      57.549   0.645  30.347  0.00  0.00     0.021 A 
ATOM      9  C   UNL d   1      58.509   0.678  31.394  0.00  0.00     0.021 A 
ATOM     10  C   UNL d   1      58.144   0.609  28.962  0.00  0.00     0.021 A 
ATOM     11  C   UNL d   1      59.910   0.674  31.092  0.00  0.00     0.006 A 
ATOM     12  C   UNL d   1      60.518   0.661  30.534  0.00  0.00     0.061 A 
ATOM     13  O   UNL d   1      60.942   0.625  29.164  0.00  0.00    -0.267 OA
ENDROOT
BRANCH   7  14
ATOM     14  N   UNL d   1      57.120   0.681  31.709  0.00  0.00    -0.208 NA
ATOM     15  C   UNL d   1      56.768  -0.010  31.945  0.00  0.00     0.279 C 
ATOM     16  O   UNL d   1      57.015  -0.742  31.628  0.00  0.00    -0.265 OA
ATOM     17  C   UNL d   1      56.159  -0.002  32.502  0.00  0.00     0.068 C 
ENDBRANCH   7  14
TORSDOF 1
ENDMDL
MODEL 4
REMARK VINA RESULT:      -2.9     10.414     11.172
REMARK  1 active torsions:
REMARK  status: ('A' for Active; 'I' for Inactive)
REMARK    1  A    between atoms: N_8  and  C_7 
REMARK       I    between atoms: C_11  and  N_8 
ROOT
ATOM      1  N   UNL d   1      59.333  -9.816  31.502  0.00  0.00    -0.273 N 
ATOM      2  C   UNL d   1      59.452  -9.815  32.318  0.00  0.00     0.067 A 
ATOM      3  C   UNL d   1      58.805  -9.815  32.829  0.00  0.00     0.019 A 
ATOM      4  C   UNL d   1      60.211  -9.814  32.623  0.00  0.00     0.018 A 
ATOM      5  C   UNL d   1      59.971  -9.815  30.991  0.00  0.00     0.265 A 
ATOM      6  C   UNL d   1      58.521  -9.816  31.370  0.00  0.00     0.083 A 
ATOM      7  C   UNL d   1      59.691  -9.813  33.950  0.00  0.00     0.085 A 
ATOM      8  C   UNL d   1      58.924  -9.814  33.645  0.00  0.00     0.021 A 
ATOM      9  C   UNL d   1      60.330  -9.813  33.440  0.00  0.00     0.021 A 
ATOM     10  C   UNL d   1      58.112  -9.816  32.375  0.00  0.00     0.021 A 
ATOM     11  C   UNL d   1      60.867  -9.813  32.111  0.00  0.00     0.006 A 
ATOM     12  C   UNL d   1      60.748  -9.814  31.294  0.00  0.00     0.061 A 
ATOM     13  O   UNL d   1      59.852  -9.816  30.174  0.00  0.00    -0.267 OA
ENDROOT
BRANCH   7  14
ATOM     14  N   UNL d   1      59.811  -9.812  34.766  0.00  0.00    -0.208 NA
ATOM     15  C   UNL d   1      59.897  -9.111  35.165  0.00  0.00     0.279 C 
ATOM     16  O   UNL d   1      59.865  -8.383  34.756  0.00  0.00    -0.265 OA
ATOM     17  C   UNL d   1      60.016  -9.105  35.981  0.00  0.00     0.068 C 
ENDBRANCH   7  14
TORSDOF 1
ENDMDL
MODEL 5
REMARK VINA RESULT:      -2.9      3.409      5.936
REMARK  1 active torsions:
REMARK  status: ('A' for Active; 'I' for Inactive)
REMARK    1  A    between atoms: N_8  and  C_7 
REMARK       I    between atoms: C_11  and  N_8 
ROOT
ATOM      1  N   UNL d   1      60.396  -2.451  28.793  0.00  0.00    -0.273 N 
ATOM      2  C   UNL d   1      59.826  -1.880  28.966  0.00  0.00     0.067 A 
ATOM      3  C   UNL d   1      60.043  -1.087  29.032  0.00  0.00     0.019 A 
ATOM      4  C   UNL d   1      59.045  -2.097  29.074  0.00  0.00     0.018 A 
ATOM      5  C   UNL d   1      60.186  -3.238  28.728  0.00  0.00     0.265 A 
ATOM      6  C   UNL d   1      61.119  -2.065  28.718  0.00  0.00     0.083 A 
ATOM      7  C   UNL d   1      58.685  -0.739  29.312  0.00  0.00     0.085 A 
ATOM      8  C   UNL d   1      59.473  -0.516  29.205  0.00  0.00     0.021 A 
ATOM      9  C   UNL d   1      58.475  -1.527  29.247  0.00  0.00     0.021 A 
ATOM     10  C   UNL d   1      60.858  -1.027  28.898  0.00  0.00     0.021 A 
ATOM     11  C   UNL d   1      58.822  -2.897  29.009  0.00  0.00     0.006 A 
ATOM     12  C   UNL d   1      59.392  -3.468  28.836  0.00  0.00     0.061 A 
ATOM     13  O   UNL d   1      60.756  -3.809  28.555  0.00  0.00    -0.267 OA
ENDROOT
BRANCH   7  14
ATOM     14  N   UNL d   1      58.116  -0.169  29.485  0.00  0.00    -0.208 NA
ATOM     15  C   UNL d   1      58.036   0.111  30.242  0.00  0.00     0.279 C 
ATOM     16  O   UNL d   1      58.529  -0.172  30.854  0.00  0.00    -0.265 OA
ATOM     17  C   UNL d   1      57.467   0.682  30.420  0.00  0.00     0.068 C 
ENDBRANCH   7  14
TORSDOF 1
ENDMDL
MODEL 6
REMARK VINA RESULT:      -2.4      0.631      1.559
REMARK  1 active torsions:
REMARK  status: ('A' for Active; 'I' for Inactive)
REMARK    1  A    between atoms: N_8  and  C_7 
REMARK       I    between atoms: C_11  and  N_8 
ROOT
ATOM      1  N   UNL d   1      55.964   0.681  33.575  0.00  0.00    -0.273 N 
ATOM      2  C   UNL d   1      56.527   0.681  32.972  0.00  0.00     0.067 A 
ATOM      3  C   UNL d   1      56.286   0.681  32.183  0.00  0.00     0.019 A 
ATOM      4  C   UNL d   1      57.324   0.680  33.154  0.00  0.00     0.018 A 
ATOM      5  C   UNL d   1      56.197   0.681  34.359  0.00  0.00     0.265 A 
ATOM      6  C   UNL d   1      55.221   0.682  33.221  0.00  0.00     0.083 A 
ATOM      7  C   UNL d   1      57.654   0.680  31.767  0.00  0.00     0.085 A 
ATOM      8  C   UNL d   1      56.850   0.681  31.580  0.00  0.00     0.021 A 
ATOM      9  C   UNL d   1      57.887   0.680  32.551  0.00  0.00     0.021 A 
ATOM     10  C   UNL d   1      55.458   0.682  32.162  0.00  0.00     0.021 A 
ATOM     11  C   UNL d   1      57.571   0.680  33.949  0.00  0.00     0.006 A 
ATOM     12  C   UNL d   1      57.008   0.680  34.552  0.00  0.00     0.061 A 
ATOM     13  O   UNL d   1      55.634   0.681  34.961  0.00  0.00    -0.267 OA
ENDROOT
BRANCH   7  14
ATOM     14  N   UNL d   1      58.217   0.680  31.165  0.00  0.00    -0.208 NA
ATOM     15  C   UNL d   1      58.174   0.134  30.567  0.00  0.00     0.279 C 
ATOM     16  O   UNL d   1      57.561  -0.434  30.553  0.00  0.00    -0.265 OA
ATOM     17  C   UNL d   1      58.735   0.129  29.962  0.00  0.00     0.068 C 
ENDBRANCH   7  14
TORSDOF 1
ENDMDL
MODEL 7
REMARK VINA RESULT:      -1.9      5.923      6.637
REMARK  1 active torsions:
REMARK  status: ('A' for Active; 'I' for Inactive)
REMARK    1  A    between atoms: N_8  and  C_7 
REMARK       I    between atoms: C_11  and  N_8 
ROOT
ATOM      1  N   UNL d   1      59.656  -3.632  28.496  0.00  0.00    -0.273 N 
ATOM      2  C   UNL d   1      59.902  -2.844  28.501  0.00  0.00     0.067 A 
ATOM      3  C   UNL d   1      60.707  -2.664  28.523  0.00  0.00     0.019 A 
ATOM      4  C   UNL d   1      59.351  -2.241  28.485  0.00  0.00     0.018 A 
ATOM      5  C   UNL d   1      58.859  -3.816  28.474  0.00  0.00     0.265 A 
ATOM      6  C   UNL d   1      60.330  -4.102  28.515  0.00  0.00     0.083 A 
ATOM      7  C   UNL d   1      60.394  -1.270  28.512  0.00  0.00     0.085 A 
ATOM      8  C   UNL d   1      60.953  -1.877  28.528  0.00  0.00     0.021 A 
ATOM      9  C   UNL d   1      59.597  -1.453  28.491  0.00  0.00     0.021 A 
ATOM     10  C   UNL d   1      61.133  -3.374  28.535  0.00  0.00     0.021 A 
ATOM     11  C   UNL d   1      58.537  -2.418  28.463  0.00  0.00     0.006 A 
ATOM     12  C   UNL d   1      58.291  -3.205  28.458  0.00  0.00     0.061 A 
ATOM     13  O   UNL d   1      58.613  -4.603  28.469  0.00  0.00    -0.267 OA
ENDROOT
BRANCH   7  14
ATOM     14  N   UNL d   1      60.639  -0.483  28.517  0.00  0.00    -0.208 NA
ATOM     15  C   UNL d   1      60.885  -0.137  29.209  0.00  0.00     0.279 C 
ATOM     16  O   UNL d   1      60.893  -0.572  29.922  0.00  0.00    -0.265 OA
ATOM     17  C   UNL d   1      61.132   0.650  29.219  0.00  0.00     0.068 C 
ENDBRANCH   7  14
TORSDOF 1
ENDMDL
