MODEL 1
REMARK VINA RESULT:      -3.2      0.000      0.000
REMARK  1 active torsions:
REMARK  status: ('A' for Active; 'I' for Inactive)
REMARK       I    between atoms: N_2  and  C_1 
REMARK       I    between atoms: N_4  and  C_1 
REMARK    1  A    between atoms: C_5  and  N_3 
ROOT
ATOM      1  C   UNL d   1      33.052  18.134 -24.301  0.00  0.00     0.339 C 
ATOM      2  N   UNL d   1      33.057  18.717 -23.718  0.00  0.00    -0.254 N 
ATOM      3  N   UNL d   1      33.066  19.872 -22.564  0.00  0.00    -0.301 N 
ATOM      4  N   UNL d   1      32.879  17.352 -24.109  0.00  0.00    -0.258 N 
ATOM      5  O   UNL d   1      33.223  18.339 -25.083  0.00  0.00    -0.245 OA
ATOM      6  C   UNL d   1      33.229  19.492 -23.914  0.00  0.00     0.104 A 
ATOM      7  C   UNL d   1      32.884  18.510 -22.928  0.00  0.00     0.104 A 
ATOM      8  C   UNL d   1      32.888  19.086 -22.352  0.00  0.00     0.100 A 
ATOM      9  C   UNL d   1      33.234  20.069 -23.337  0.00  0.00     0.100 A 
ATOM     10  C   UNL d   1      32.856  16.721 -24.631  0.00  0.00     0.085 A 
ATOM     11  C   UNL d   1      32.700  17.070 -23.357  0.00  0.00     0.085 A 
ATOM     12  C   UNL d   1      32.565  16.265 -23.415  0.00  0.00     0.021 A 
ATOM     13  C   UNL d   1      32.660  16.044 -24.200  0.00  0.00     0.021 A 
ENDROOT
BRANCH   3  14
ATOM     14  C   UNL d   1      33.070  20.462 -21.973  0.00  0.00     0.064 A 
ATOM     15  C   UNL d   1      32.911  21.250 -22.177  0.00  0.00     0.018 A 
ATOM     16  C   UNL d   1      32.915  21.844 -21.590  0.00  0.00     0.001 A 
ATOM     17  C   UNL d   1      32.758  22.625 -21.788  0.00  0.00     0.000 C 
ATOM     18  C   UNL d   1      33.080  21.641 -20.789  0.00  0.00     0.000 A 
ATOM     19  C   UNL d   1      33.240  20.843 -20.591  0.00  0.00     0.002 A 
ATOM     20  C   UNL d   1      33.085  22.223 -20.207  0.00  0.00     0.000 C 
ATOM     21  C   UNL d   1      33.236  20.255 -21.179  0.00  0.00     0.018 A 
ENDBRANCH   3  14
TORSDOF 1
ENDMDL
MODEL 2
REMARK VINA RESULT:      -3.0      0.895      1.411
REMARK  1 active torsions:
REMARK  status: ('A' for Active; 'I' for Inactive)
REMARK       I    between atoms: N_2  and  C_1 
REMARK       I    between atoms: N_4  and  C_1 
REMARK    1  A    between atoms: C_5  and  N_3 
ROOT
ATOM      1  C   UNL d   1      32.957  17.524 -23.116  0.00  0.00     0.339 C 
ATOM      2  N   UNL d   1      32.959  18.311 -22.873  0.00  0.00    -0.254 N 
ATOM      3  N   UNL d   1      32.963  19.871 -22.391  0.00  0.00    -0.301 N 
ATOM      4  N   UNL d   1      32.687  17.318 -23.868  0.00  0.00    -0.258 N 
ATOM      5  O   UNL d   1      33.228  16.938 -22.601  0.00  0.00    -0.245 OA
ATOM      6  C   UNL d   1      33.228  18.510 -22.127  0.00  0.00     0.104 A 
ATOM      7  C   UNL d   1      32.685  18.903 -23.394  0.00  0.00     0.104 A 
ATOM      8  C   UNL d   1      32.687  19.682 -23.154  0.00  0.00     0.100 A 
ATOM      9  C   UNL d   1      33.230  19.289 -21.886  0.00  0.00     0.100 A 
ATOM     10  C   UNL d   1      32.655  16.561 -24.178  0.00  0.00     0.085 A 
ATOM     11  C   UNL d   1      32.402  17.842 -24.435  0.00  0.00     0.085 A 
ATOM     12  C   UNL d   1      32.195  17.407 -25.097  0.00  0.00     0.021 A 
ATOM     13  C   UNL d   1      32.348  16.615 -24.943  0.00  0.00     0.021 A 
ENDROOT
BRANCH   3  14
ATOM     14  C   UNL d   1      32.966  20.669 -22.145  0.00  0.00     0.064 A 
ATOM     15  C   UNL d   1      32.698  20.867 -21.386  0.00  0.00     0.018 A 
ATOM     16  C   UNL d   1      32.698  21.663 -21.135  0.00  0.00     0.001 A 
ATOM     17  C   UNL d   1      32.434  21.863 -20.384  0.00  0.00     0.000 C 
ATOM     18  C   UNL d   1      32.972  22.267 -21.655  0.00  0.00     0.000 A 
ATOM     19  C   UNL d   1      33.241  22.059 -22.421  0.00  0.00     0.002 A 
ATOM     20  C   UNL d   1      32.974  23.053 -21.412  0.00  0.00     0.000 C 
ATOM     21  C   UNL d   1      33.238  21.265 -22.666  0.00  0.00     0.018 A 
ENDBRANCH   3  14
TORSDOF 1
ENDMDL
MODEL 3
REMARK VINA RESULT:      -2.7      1.961      4.992
REMARK  1 active torsions:
REMARK  status: ('A' for Active; 'I' for Inactive)
REMARK       I    between atoms: N_2  and  C_1 
REMARK       I    between atoms: N_4  and  C_1 
REMARK    1  A    between atoms: C_5  and  N_3 
ROOT
ATOM      1  C   UNL d   1      32.752  22.744 -20.611  0.00  0.00     0.339 C 
ATOM      2  N   UNL d   1      32.821  22.048 -21.047  0.00  0.00    -0.254 N 
ATOM      3  N   UNL d   1      32.957  20.668 -21.910  0.00  0.00    -0.301 N 
ATOM      4  N   UNL d   1      32.911  22.749 -19.802  0.00  0.00    -0.258 N 
ATOM      5  O   UNL d   1      32.523  23.441 -20.991  0.00  0.00    -0.245 OA
ATOM      6  C   UNL d   1      32.663  22.048 -21.849  0.00  0.00     0.104 A 
ATOM      7  C   UNL d   1      33.053  21.343 -20.663  0.00  0.00     0.104 A 
ATOM      8  C   UNL d   1      33.121  20.655 -21.094  0.00  0.00     0.100 A 
ATOM      9  C   UNL d   1      32.731  21.359 -22.280  0.00  0.00     0.100 A 
ATOM     10  C   UNL d   1      32.864  23.398 -19.305  0.00  0.00     0.085 A 
ATOM     11  C   UNL d   1      33.143  22.098 -19.354  0.00  0.00     0.085 A 
ATOM     12  C   UNL d   1      33.240  22.347 -18.581  0.00  0.00     0.021 A 
ATOM     13  C   UNL d   1      33.069  23.150 -18.545  0.00  0.00     0.021 A 
ENDROOT
BRANCH   3  14
ATOM     14  C   UNL d   1      33.027  19.963 -22.352  0.00  0.00     0.064 A 
ATOM     15  C   UNL d   1      33.046  19.996 -23.180  0.00  0.00     0.018 A 
ATOM     16  C   UNL d   1      33.115  19.293 -23.626  0.00  0.00     0.001 A 
ATOM     17  C   UNL d   1      33.134  19.321 -24.446  0.00  0.00     0.000 C 
ATOM     18  C   UNL d   1      33.167  18.550 -23.232  0.00  0.00     0.000 A 
ATOM     19  C   UNL d   1      33.147  18.525 -22.395  0.00  0.00     0.002 A 
ATOM     20  C   UNL d   1      33.235  17.855 -23.668  0.00  0.00     0.000 C 
ATOM     21  C   UNL d   1      33.078  19.227 -21.955  0.00  0.00     0.018 A 
ENDBRANCH   3  14
TORSDOF 1
ENDMDL
MODEL 4
REMARK VINA RESULT:      -2.4      1.106      4.557
REMARK  1 active torsions:
REMARK  status: ('A' for Active; 'I' for Inactive)
REMARK       I    between atoms: N_2  and  C_1 
REMARK       I    between atoms: N_4  and  C_1 
REMARK    1  A    between atoms: C_5  and  N_3 
ROOT
ATOM      1  C   UNL d   1      33.009  21.046 -22.300  0.00  0.00     0.339 C 
ATOM      2  N   UNL d   1      32.963  20.259 -22.542  0.00  0.00    -0.254 N 
ATOM      3  N   UNL d   1      32.872  18.702 -23.023  0.00  0.00    -0.301 N 
ATOM      4  N   UNL d   1      32.958  21.241 -21.500  0.00  0.00    -0.258 N 
ATOM      5  O   UNL d   1      33.107  21.641 -22.864  0.00  0.00    -0.245 OA
ATOM      6  C   UNL d   1      33.014  20.071 -23.336  0.00  0.00     0.104 A 
ATOM      7  C   UNL d   1      32.864  19.658 -21.971  0.00  0.00     0.104 A 
ATOM      8  C   UNL d   1      32.819  18.881 -22.211  0.00  0.00     0.100 A 
ATOM      9  C   UNL d   1      32.969  19.293 -23.577  0.00  0.00     0.100 A 
ATOM     10  C   UNL d   1      32.995  21.996 -21.185  0.00  0.00     0.085 A 
ATOM     11  C   UNL d   1      32.860  20.708 -20.881  0.00  0.00     0.085 A 
ATOM     12  C   UNL d   1      32.837  21.134 -20.184  0.00  0.00     0.021 A 
ATOM     13  C   UNL d   1      32.920  21.931 -20.365  0.00  0.00     0.021 A 
ENDROOT
BRANCH   3  14
ATOM     14  C   UNL d   1      32.826  17.905 -23.269  0.00  0.00     0.064 A 
ATOM     15  C   UNL d   1      32.387  17.707 -23.944  0.00  0.00     0.018 A 
ATOM     16  C   UNL d   1      32.337  16.912 -24.193  0.00  0.00     0.001 A 
ATOM     17  C   UNL d   1      31.904  16.711 -24.861  0.00  0.00     0.000 C 
ATOM     18  C   UNL d   1      32.735  16.310 -23.758  0.00  0.00     0.000 A 
ATOM     19  C   UNL d   1      33.177  16.518 -23.077  0.00  0.00     0.002 A 
ATOM     20  C   UNL d   1      32.689  15.525 -24.001  0.00  0.00     0.000 C 
ATOM     21  C   UNL d   1      33.223  17.311 -22.833  0.00  0.00     0.018 A 
ENDBRANCH   3  14
TORSDOF 1
ENDMDL
MODEL 5
REMARK VINA RESULT:      -0.2      3.490      5.374
REMARK  1 active torsions:
REMARK  status: ('A' for Active; 'I' for Inactive)
REMARK       I    between atoms: N_2  and  C_1 
REMARK       I    between atoms: N_4  and  C_1 
REMARK    1  A    between atoms: C_5  and  N_3 
ROOT
ATOM      1  C   UNL d   1      32.940  21.755 -19.487  0.00  0.00     0.339 C 
ATOM      2  N   UNL d   1      32.983  21.982 -20.278  0.00  0.00    -0.254 N 
ATOM      3  N   UNL d   1      33.068  22.432 -21.846  0.00  0.00    -0.301 N 
ATOM      4  N   UNL d   1      32.956  22.320 -18.888  0.00  0.00    -0.258 N 
ATOM      5  O   UNL d   1      32.880  20.953 -19.296  0.00  0.00    -0.245 OA
ATOM      6  C   UNL d   1      32.966  21.417 -20.869  0.00  0.00     0.104 A 
ATOM      7  C   UNL d   1      33.043  22.792 -20.471  0.00  0.00     0.104 A 
ATOM      8  C   UNL d   1      33.085  23.017 -21.253  0.00  0.00     0.100 A 
ATOM      9  C   UNL d   1      33.009  21.641 -21.652  0.00  0.00     0.100 A 
ATOM     10  C   UNL d   1      32.918  22.172 -18.083  0.00  0.00     0.085 A 
ATOM     11  C   UNL d   1      33.014  23.134 -18.997  0.00  0.00     0.085 A 
ATOM     12  C   UNL d   1      33.011  23.487 -18.259  0.00  0.00     0.021 A 
ATOM     13  C   UNL d   1      32.952  22.897 -17.691  0.00  0.00     0.021 A 
ENDROOT
BRANCH   3  14
ATOM     14  C   UNL d   1      33.111  22.662 -22.647  0.00  0.00     0.064 A 
ATOM     15  C   UNL d   1      33.094  22.086 -23.243  0.00  0.00     0.018 A 
ATOM     16  C   UNL d   1      33.137  22.311 -24.046  0.00  0.00     0.001 A 
ATOM     17  C   UNL d   1      33.120  21.743 -24.639  0.00  0.00     0.000 C 
ATOM     18  C   UNL d   1      33.198  23.126 -24.250  0.00  0.00     0.000 A 
ATOM     19  C   UNL d   1      33.214  23.702 -23.642  0.00  0.00     0.002 A 
ATOM     20  C   UNL d   1      33.241  23.352 -25.040  0.00  0.00     0.000 C 
ATOM     21  C   UNL d   1      33.171  23.473 -22.844  0.00  0.00     0.018 A 
ENDBRANCH   3  14
TORSDOF 1
ENDMDL
