MODEL 1
REMARK VINA RESULT:      -3.2      0.000      0.000
REMARK  4 active torsions:
REMARK  status: ('A' for Active; 'I' for Inactive)
REMARK       I    between atoms: N_2  and  C_1 
REMARK       I    between atoms: N_3  and  C_1 
REMARK    1  A    between atoms: C_7  and  N_3 
REMARK    2  A    between atoms: C_8  and  C_12 
REMARK    3  A    between atoms: C_17  and  C_8 
REMARK    4  A    between atoms: O_18  and  C_9 
ROOT
ATOM      1  C   UNL d   1      32.958  20.280 -21.723  0.00  0.00     0.354 C 
ATOM      2  N   UNL d   1      32.963  19.650 -22.255  0.00  0.00    -0.256 N 
ATOM      3  N   UNL d   1      32.690  21.018 -21.969  0.00  0.00    -0.192 NA
ATOM      4  O   UNL d   1      33.220  20.171 -20.947  0.00  0.00    -0.244 OA
ATOM      5  C   UNL d   1      33.234  18.906 -22.006  0.00  0.00     0.085 A 
ATOM      6  C   UNL d   1      32.703  19.755 -23.031  0.00  0.00     0.085 A 
ATOM      7  C   UNL d   1      33.239  18.269 -22.544  0.00  0.00     0.019 A 
ATOM      8  C   UNL d   1      32.710  19.127 -23.555  0.00  0.00     0.019 A 
ATOM      9  C   UNL d   1      32.979  18.384 -23.309  0.00  0.00     0.003 A 
ENDROOT
BRANCH   3  10
ATOM     10  C   UNL d   1      32.683  21.656 -21.435  0.00  0.00     0.086 A 
ATOM     11  C   UNL d   1      32.118  21.684 -20.841  0.00  0.00     0.021 A 
ATOM     12  C   UNL d   1      32.107  22.314 -20.309  0.00  0.00     0.026 A 
ATOM     13  C   UNL d   1      32.669  22.914 -20.383  0.00  0.00     0.094 A 
ATOM     14  C   UNL d   1      33.241  22.884 -20.987  0.00  0.00     0.026 A 
ATOM     15  C   UNL d   1      33.241  22.249 -21.511  0.00  0.00     0.021 A 
BRANCH  13  16
ATOM     16  O   UNL d   1      32.667  23.553 -19.852  0.00  0.00    -0.328 OA
ATOM     17  C   UNL d   1      32.765  23.421 -19.044  0.00  0.00     0.181 C 
ENDBRANCH  13  16
ENDBRANCH   3  10
BRANCH   9  18
ATOM     18  C   UNL d   1      32.985  17.750 -23.842  0.00  0.00     0.000 C 
BRANCH  18  19
ATOM     19  C   UNL d   1      32.352  17.229 -23.881  0.00  0.00     0.000 A 
ATOM     20  C   UNL d   1      31.699  17.407 -24.350  0.00  0.00     0.000 A 
ATOM     21  C   UNL d   1      31.061  16.880 -24.388  0.00  0.00     0.000 A 
ATOM     22  C   UNL d   1      31.081  16.175 -23.953  0.00  0.00     0.000 A 
ATOM     23  C   UNL d   1      31.739  15.998 -23.482  0.00  0.00     0.000 A 
ATOM     24  C   UNL d   1      32.372  16.524 -23.446  0.00  0.00     0.000 A 
ENDBRANCH  18  19
ENDBRANCH   9  18
TORSDOF 4
ENDMDL
MODEL 2
REMARK VINA RESULT:      -2.4      1.227      5.930
REMARK  4 active torsions:
REMARK  status: ('A' for Active; 'I' for Inactive)
REMARK       I    between atoms: N_2  and  C_1 
REMARK       I    between atoms: N_3  and  C_1 
REMARK    1  A    between atoms: C_7  and  N_3 
REMARK    2  A    between atoms: C_8  and  C_12 
REMARK    3  A    between atoms: C_17  and  C_8 
REMARK    4  A    between atoms: O_18  and  C_9 
ROOT
ATOM      1  C   UNL d   1      32.483  20.866 -21.561  0.00  0.00     0.354 C 
ATOM      2  N   UNL d   1      32.503  21.498 -21.031  0.00  0.00    -0.256 N 
ATOM      3  N   UNL d   1      33.187  20.544 -21.839  0.00  0.00    -0.192 NA
ATOM      4  O   UNL d   1      31.759  20.559 -21.813  0.00  0.00    -0.244 OA
ATOM      5  C   UNL d   1      31.792  21.821 -20.752  0.00  0.00     0.085 A 
ATOM      6  C   UNL d   1      33.225  21.808 -20.777  0.00  0.00     0.085 A 
ATOM      7  C   UNL d   1      31.813  22.459 -20.216  0.00  0.00     0.019 A 
ATOM      8  C   UNL d   1      33.240  22.434 -20.251  0.00  0.00     0.019 A 
ATOM      9  C   UNL d   1      32.533  22.758 -19.972  0.00  0.00     0.003 A 
ENDROOT
BRANCH   3  10
ATOM     10  C   UNL d   1      33.171  19.907 -22.374  0.00  0.00     0.086 A 
ATOM     11  C   UNL d   1      33.227  19.138 -22.093  0.00  0.00     0.021 A 
ATOM     12  C   UNL d   1      33.211  18.504 -22.620  0.00  0.00     0.026 A 
ATOM     13  C   UNL d   1      33.137  18.652 -23.428  0.00  0.00     0.094 A 
ATOM     14  C   UNL d   1      33.080  19.433 -23.710  0.00  0.00     0.026 A 
ATOM     15  C   UNL d   1      33.098  20.057 -23.173  0.00  0.00     0.021 A 
BRANCH  13  16
ATOM     16  O   UNL d   1      33.120  18.020 -23.967  0.00  0.00    -0.328 OA
ATOM     17  C   UNL d   1      32.415  17.613 -24.105  0.00  0.00     0.181 C 
ENDBRANCH  13  16
ENDBRANCH   3  10
BRANCH   9  18
ATOM     18  C   UNL d   1      32.552  23.392 -19.439  0.00  0.00     0.000 C 
BRANCH  18  19
ATOM     19  C   UNL d   1      32.632  23.260 -18.633  0.00  0.00     0.000 A 
ATOM     20  C   UNL d   1      33.159  22.689 -18.359  0.00  0.00     0.000 A 
ATOM     21  C   UNL d   1      33.239  22.557 -17.546  0.00  0.00     0.000 A 
ATOM     22  C   UNL d   1      32.789  22.999 -17.008  0.00  0.00     0.000 A 
ATOM     23  C   UNL d   1      32.260  23.572 -17.286  0.00  0.00     0.000 A 
ATOM     24  C   UNL d   1      32.182  23.702 -18.096  0.00  0.00     0.000 A 
ENDBRANCH  18  19
ENDBRANCH   9  18
TORSDOF 4
ENDMDL
MODEL 3
REMARK VINA RESULT:      -2.4      1.450      5.586
REMARK  4 active torsions:
REMARK  status: ('A' for Active; 'I' for Inactive)
REMARK       I    between atoms: N_2  and  C_1 
REMARK       I    between atoms: N_3  and  C_1 
REMARK    1  A    between atoms: C_7  and  N_3 
REMARK    2  A    between atoms: C_8  and  C_12 
REMARK    3  A    between atoms: C_17  and  C_8 
REMARK    4  A    between atoms: O_18  and  C_9 
ROOT
ATOM      1  C   UNL d   1      32.835  19.242 -22.621  0.00  0.00     0.354 C 
ATOM      2  N   UNL d   1      32.936  20.036 -22.420  0.00  0.00    -0.256 N 
ATOM      3  N   UNL d   1      32.677  19.036 -23.402  0.00  0.00    -0.192 NA
ATOM      4  O   UNL d   1      32.892  18.657 -22.041  0.00  0.00    -0.244 OA
ATOM      5  C   UNL d   1      33.095  20.242 -21.633  0.00  0.00     0.085 A 
ATOM      6  C   UNL d   1      32.879  20.624 -22.997  0.00  0.00     0.085 A 
ATOM      7  C   UNL d   1      33.197  21.044 -21.430  0.00  0.00     0.019 A 
ATOM      8  C   UNL d   1      32.980  21.409 -22.793  0.00  0.00     0.019 A 
ATOM      9  C   UNL d   1      33.139  21.618 -22.009  0.00  0.00     0.003 A 
ENDROOT
BRANCH   3  10
ATOM     10  C   UNL d   1      32.574  18.237 -23.608  0.00  0.00     0.086 A 
ATOM     11  C   UNL d   1      31.818  17.922 -23.653  0.00  0.00     0.021 A 
ATOM     12  C   UNL d   1      31.712  17.130 -23.857  0.00  0.00     0.026 A 
ATOM     13  C   UNL d   1      32.372  16.661 -24.013  0.00  0.00     0.094 A 
ATOM     14  C   UNL d   1      33.139  16.983 -23.966  0.00  0.00     0.026 A 
ATOM     15  C   UNL d   1      33.231  17.775 -23.762  0.00  0.00     0.021 A 
BRANCH  13  16
ATOM     16  O   UNL d   1      32.276  15.862 -24.219  0.00  0.00    -0.328 OA
ATOM     17  C   UNL d   1      31.519  15.546 -24.312  0.00  0.00     0.181 C 
ENDBRANCH  13  16
ENDBRANCH   3  10
BRANCH   9  18
ATOM     18  C   UNL d   1      33.240  22.414 -21.806  0.00  0.00     0.000 C 
BRANCH  18  19
ATOM     19  C   UNL d   1      32.683  22.804 -21.347  0.00  0.00     0.000 A 
ATOM     20  C   UNL d   1      32.130  23.302 -21.702  0.00  0.00     0.000 A 
ATOM     21  C   UNL d   1      31.569  23.694 -21.238  0.00  0.00     0.000 A 
ATOM     22  C   UNL d   1      31.562  23.585 -20.416  0.00  0.00     0.000 A 
ATOM     23  C   UNL d   1      32.118  23.085 -20.062  0.00  0.00     0.000 A 
ATOM     24  C   UNL d   1      32.676  22.696 -20.525  0.00  0.00     0.000 A 
ENDBRANCH  18  19
ENDBRANCH   9  18
TORSDOF 4
ENDMDL
MODEL 4
REMARK VINA RESULT:      -0.2      0.849      1.297
REMARK  4 active torsions:
REMARK  status: ('A' for Active; 'I' for Inactive)
REMARK       I    between atoms: N_2  and  C_1 
REMARK       I    between atoms: N_3  and  C_1 
REMARK    1  A    between atoms: C_7  and  N_3 
REMARK    2  A    between atoms: C_8  and  C_12 
REMARK    3  A    between atoms: C_17  and  C_8 
REMARK    4  A    between atoms: O_18  and  C_9 
ROOT
ATOM      1  C   UNL d   1      33.059  20.919 -20.894  0.00  0.00     0.354 C 
ATOM      2  N   UNL d   1      33.103  20.429 -21.556  0.00  0.00    -0.256 N 
ATOM      3  N   UNL d   1      32.968  21.731 -20.993  0.00  0.00    -0.192 NA
ATOM      4  O   UNL d   1      33.106  20.597 -20.134  0.00  0.00    -0.244 OA
ATOM      5  C   UNL d   1      33.194  19.611 -21.453  0.00  0.00     0.085 A 
ATOM      6  C   UNL d   1      33.056  20.747 -22.316  0.00  0.00     0.085 A 
ATOM      7  C   UNL d   1      33.238  19.115 -22.122  0.00  0.00     0.019 A 
ATOM      8  C   UNL d   1      33.099  20.257 -22.969  0.00  0.00     0.019 A 
ATOM      9  C   UNL d   1      33.191  19.440 -22.870  0.00  0.00     0.003 A 
ENDROOT
BRANCH   3  10
ATOM     10  C   UNL d   1      32.924  22.229 -20.328  0.00  0.00     0.086 A 
ATOM     11  C   UNL d   1      32.604  22.980 -20.403  0.00  0.00     0.021 A 
ATOM     12  C   UNL d   1      32.558  23.477 -19.746  0.00  0.00     0.026 A 
ATOM     13  C   UNL d   1      32.837  23.210 -19.017  0.00  0.00     0.094 A 
ATOM     14  C   UNL d   1      33.161  22.447 -18.944  0.00  0.00     0.026 A 
ATOM     15  C   UNL d   1      33.201  21.961 -19.608  0.00  0.00     0.021 A 
BRANCH  13  16
ATOM     16  O   UNL d   1      32.795  23.703 -18.349  0.00  0.00    -0.328 OA
ATOM     17  C   UNL d   1      32.747  23.373 -17.595  0.00  0.00     0.181 C 
ENDBRANCH  13  16
ENDBRANCH   3  10
BRANCH   9  18
ATOM     18  C   UNL d   1      33.235  18.946 -23.533  0.00  0.00     0.000 C 
BRANCH  18  19
ATOM     19  C   UNL d   1      32.710  18.323 -23.627  0.00  0.00     0.000 A 
ATOM     20  C   UNL d   1      31.969  18.453 -23.964  0.00  0.00     0.000 A 
ATOM     21  C   UNL d   1      31.441  17.823 -24.057  0.00  0.00     0.000 A 
ATOM     22  C   UNL d   1      31.657  17.061 -23.811  0.00  0.00     0.000 A 
ATOM     23  C   UNL d   1      32.401  16.933 -23.473  0.00  0.00     0.000 A 
ATOM     24  C   UNL d   1      32.926  17.561 -23.380  0.00  0.00     0.000 A 
ENDBRANCH  18  19
ENDBRANCH   9  18
TORSDOF 4
ENDMDL
