MODEL 1
REMARK VINA RESULT:       7.6      0.000      0.000
REMARK  2 active torsions:
REMARK  status: ('A' for Active; 'I' for Inactive)
REMARK    1  A    between atoms: C_6  and  N_2 
REMARK    2  A    between atoms: C_8  and  C_5 
ROOT
ATOM      1  C   UNL d   1     -41.299-120.384 -50.936  0.00  0.00     0.265 A 
ATOM      2  N   UNL d   1     -41.487-121.118 -51.261  0.00  0.00    -0.275 N 
ATOM      3  C   UNL d   1     -41.230-120.277 -52.263  0.00  0.00     0.021 A 
ATOM      4  C   UNL d   1     -41.139-119.863 -51.555  0.00  0.00     0.063 A 
ATOM      5  C   UNL d   1     -41.445-121.054 -52.078  0.00  0.00     0.067 A 
ATOM      6  O   UNL d   1     -41.273-120.198 -50.126  0.00  0.00    -0.267 OA
ATOM      7  C   UNL d   1     -41.124-119.969 -53.020  0.00  0.00     0.002 C 
ENDROOT
BRANCH   2   8
ATOM      8  C   UNL d   1     -41.683-121.798 -50.828  0.00  0.00     0.067 A 
ATOM      9  C   UNL d   1     -42.452-121.882 -50.532  0.00  0.00     0.018 A 
ATOM     10  C   UNL d   1     -42.660-122.548 -50.103  0.00  0.00     0.002 A 
ATOM     11  C   UNL d   1     -42.098-123.143 -49.963  0.00  0.00     0.000 A 
ATOM     12  C   UNL d   1     -41.326-123.053 -50.263  0.00  0.00     0.002 A 
ATOM     13  C   UNL d   1     -42.300-123.816 -49.531  0.00  0.00     0.000 C 
ATOM     14  C   UNL d   1     -41.124-122.383 -50.692  0.00  0.00     0.018 A 
ENDBRANCH   2   8
BRANCH   5  15
ATOM     15  C   UNL d   1     -41.591-121.657 -52.622  0.00  0.00     0.016 A 
ATOM     16  C   UNL d   1     -42.192-121.570 -53.185  0.00  0.00     0.002 A 
ATOM     17  C   UNL d   1     -42.338-122.173 -53.729  0.00  0.00     0.011 A 
ATOM     18  C   UNL d   1     -41.883-122.868 -53.713  0.00  0.00     0.058 A 
ATOM     19  C   UNL d   1     -41.284-122.956 -53.153  0.00  0.00     0.011 A 
ATOM     20 CL   UNL d   1     -42.034-123.474 -54.264  0.00  0.00    -0.082 Cl
ATOM     21  C   UNL d   1     -41.136-122.352 -52.606  0.00  0.00     0.002 A 
ENDBRANCH   5  15
TORSDOF 2
ENDMDL
