MODEL 1
REMARK VINA RESULT:      -6.0      0.000      0.000
REMARK  5 active torsions:
REMARK  status: ('A' for Active; 'I' for Inactive)
REMARK    1  A    between atoms: C_2  and  C_1 
REMARK    2  A    between atoms: N_5  and  C_2 
REMARK    3  A    between atoms: C_9  and  C_4 
REMARK    4  A    between atoms: C_21  and  N_10 
REMARK    5  A    between atoms: C_18  and  C_21 
ROOT
ATOM      1  N   UNL d   1     -43.930   9.854  23.547  0.00  0.00    -0.191 NA
ATOM      2  C   UNL d   1     -44.280  10.575  23.374  0.00  0.00     0.103 C 
ATOM      3  C   UNL d   1     -44.642  11.300  23.199  0.00  0.00     0.097 C 
ENDROOT
BRANCH   3   4
ATOM      4  C   UNL d   1     -45.459  11.356  23.194  0.00  0.00     0.091 C 
BRANCH   4   5
ATOM      5  N   UNL d   1     -45.817  12.093  23.082  0.00  0.00    -0.299 N 
ATOM      6  C   UNL d   1     -46.261  12.437  23.689  0.00  0.00     0.100 A 
ATOM      7  C   UNL d   1     -46.618  13.168  23.584  0.00  0.00     0.100 A 
ATOM      8  N   UNL d   1     -46.533  13.562  22.862  0.00  0.00    -0.291 N 
ATOM      9  C   UNL d   1     -46.094  13.230  22.251  0.00  0.00     0.100 A 
ATOM     10  C   UNL d   1     -45.734  12.491  22.361  0.00  0.00     0.100 A 
BRANCH   8  11
ATOM     11  C   UNL d   1     -46.893  14.297  22.757  0.00  0.00     0.143 C 
ATOM     12  S   UNL d   1     -46.435  14.980  22.691  0.00  0.00    -0.057 SA
BRANCH  11  13
ATOM     13  C   UNL d   1     -47.723  14.349  22.716  0.00  0.00     0.126 A 
ATOM     14  O   UNL d   1     -48.230  13.757  22.437  0.00  0.00    -0.305 OA
ATOM     15  C   UNL d   1     -49.002  14.040  22.495  0.00  0.00     0.100 A 
ATOM     16  C   UNL d   1     -48.972  14.809  22.811  0.00  0.00     0.027 A 
ATOM     17  C   UNL d   1     -48.182  14.995  22.946  0.00  0.00     0.029 A 
BRANCH  15  18
ATOM     18  C   UNL d   1     -49.686  13.639  22.280  0.00  0.00     0.024 A 
ATOM     19  C   UNL d   1     -50.005  13.078  22.794  0.00  0.00     0.013 A 
ATOM     20  C   UNL d   1     -50.693  12.666  22.589  0.00  0.00     0.058 A 
ATOM     21 CL   UNL d   1     -51.015  12.102  23.104  0.00  0.00    -0.082 Cl
ATOM     22  C   UNL d   1     -51.062  12.824  21.859  0.00  0.00     0.011 A 
ATOM     23  C   UNL d   1     -50.737  13.388  21.349  0.00  0.00     0.001 A 
ATOM     24  C   UNL d   1     -50.051  13.794  21.559  0.00  0.00     0.002 A 
ENDBRANCH  15  18
ENDBRANCH  11  13
ENDBRANCH   8  11
ENDBRANCH   4   5
ENDBRANCH   3   4
TORSDOF 5
ENDMDL
MODEL 2
REMARK VINA RESULT:      -5.1      1.828      2.416
REMARK  5 active torsions:
REMARK  status: ('A' for Active; 'I' for Inactive)
REMARK    1  A    between atoms: C_2  and  C_1 
REMARK    2  A    between atoms: N_5  and  C_2 
REMARK    3  A    between atoms: C_9  and  C_4 
REMARK    4  A    between atoms: C_21  and  N_10 
REMARK    5  A    between atoms: C_18  and  C_21 
ROOT
ATOM      1  N   UNL d   1     -43.176  13.360  21.134  0.00  0.00    -0.191 NA
ATOM      2  C   UNL d   1     -43.821  13.021  21.510  0.00  0.00     0.103 C 
ATOM      3  C   UNL d   1     -44.476  12.685  21.891  0.00  0.00     0.097 C 
ENDROOT
BRANCH   3   4
ATOM      4  C   UNL d   1     -45.050  13.171  22.216  0.00  0.00     0.091 C 
BRANCH   4   5
ATOM      5  N   UNL d   1     -45.758  12.841  22.486  0.00  0.00    -0.299 N 
ATOM      6  C   UNL d   1     -46.379  12.697  21.959  0.00  0.00     0.100 A 
ATOM      7  C   UNL d   1     -47.084  12.370  22.221  0.00  0.00     0.100 A 
ATOM      8  N   UNL d   1     -47.172  12.184  23.022  0.00  0.00    -0.291 N 
ATOM      9  C   UNL d   1     -46.563  12.323  23.556  0.00  0.00     0.100 A 
ATOM     10  C   UNL d   1     -45.851  12.654  23.287  0.00  0.00     0.100 A 
BRANCH   8  11
ATOM     11  C   UNL d   1     -47.882  11.856  23.286  0.00  0.00     0.143 C 
ATOM     12  S   UNL d   1     -47.923  11.057  23.484  0.00  0.00    -0.057 SA
BRANCH  11  13
ATOM     13  C   UNL d   1     -48.561  12.334  23.352  0.00  0.00     0.126 A 
ATOM     14  O   UNL d   1     -48.626  13.117  23.088  0.00  0.00    -0.305 OA
ATOM     15  C   UNL d   1     -49.388  13.377  23.264  0.00  0.00     0.100 A 
ATOM     16  C   UNL d   1     -49.795  12.755  23.637  0.00  0.00     0.027 A 
ATOM     17  C   UNL d   1     -49.281  12.114  23.689  0.00  0.00     0.029 A 
BRANCH  15  18
ATOM     18  C   UNL d   1     -49.698  14.121  23.102  0.00  0.00     0.024 A 
ATOM     19  C   UNL d   1     -50.220  14.214  22.471  0.00  0.00     0.013 A 
ATOM     20  C   UNL d   1     -50.539  14.957  22.297  0.00  0.00     0.058 A 
ATOM     21 CL   UNL d   1     -51.064  15.053  21.663  0.00  0.00    -0.082 Cl
ATOM     22  C   UNL d   1     -50.329  15.613  22.766  0.00  0.00     0.011 A 
ATOM     23  C   UNL d   1     -49.805  15.512  23.398  0.00  0.00     0.001 A 
ATOM     24  C   UNL d   1     -49.490  14.769  23.566  0.00  0.00     0.002 A 
ENDBRANCH  15  18
ENDBRANCH  11  13
ENDBRANCH   8  11
ENDBRANCH   4   5
ENDBRANCH   3   4
TORSDOF 5
ENDMDL
MODEL 3
REMARK VINA RESULT:      -5.1      9.048     10.350
REMARK  5 active torsions:
REMARK  status: ('A' for Active; 'I' for Inactive)
REMARK    1  A    between atoms: C_2  and  C_1 
REMARK    2  A    between atoms: N_5  and  C_2 
REMARK    3  A    between atoms: C_9  and  C_4 
REMARK    4  A    between atoms: C_21  and  N_10 
REMARK    5  A    between atoms: C_18  and  C_21 
ROOT
ATOM      1  N   UNL d   1     -37.941  13.341  14.023  0.00  0.00    -0.191 NA
ATOM      2  C   UNL d   1     -37.980  13.853  14.662  0.00  0.00     0.103 C 
ATOM      3  C   UNL d   1     -38.017  14.365  15.312  0.00  0.00     0.097 C 
ENDROOT
BRANCH   3   4
ATOM      4  C   UNL d   1     -37.946  14.065  16.071  0.00  0.00     0.091 C 
BRANCH   4   5
ATOM      5  N   UNL d   1     -38.429  14.359  16.674  0.00  0.00    -0.299 N 
ATOM      6  C   UNL d   1     -39.016  13.881  17.008  0.00  0.00     0.100 A 
ATOM      7  C   UNL d   1     -39.498  14.167  17.607  0.00  0.00     0.100 A 
ATOM      8  N   UNL d   1     -39.394  14.941  17.877  0.00  0.00    -0.291 N 
ATOM      9  C   UNL d   1     -38.815  15.426  17.553  0.00  0.00     0.100 A 
ATOM     10  C   UNL d   1     -38.329  15.134  16.948  0.00  0.00     0.100 A 
BRANCH   8  11
ATOM     11  C   UNL d   1     -39.880  15.228  18.479  0.00  0.00     0.143 C 
ATOM     12  S   UNL d   1     -40.610  15.567  18.301  0.00  0.00    -0.057 SA
BRANCH  11  13
ATOM     13  C   UNL d   1     -39.631  15.177  19.272  0.00  0.00     0.126 A 
ATOM     14  O   UNL d   1     -39.384  14.484  19.655  0.00  0.00    -0.305 OA
ATOM     15  C   UNL d   1     -39.187  14.685  20.430  0.00  0.00     0.100 A 
ATOM     16  C   UNL d   1     -39.313  15.501  20.527  0.00  0.00     0.027 A 
ATOM     17  C   UNL d   1     -39.586  15.800  19.811  0.00  0.00     0.029 A 
BRANCH  15  18
ATOM     18  C   UNL d   1     -38.915  14.172  21.012  0.00  0.00     0.024 A 
ATOM     19  C   UNL d   1     -39.348  14.080  21.707  0.00  0.00     0.013 A 
ATOM     20  C   UNL d   1     -39.084  13.567  22.300  0.00  0.00     0.058 A 
ATOM     21 CL   UNL d   1     -39.518  13.473  23.001  0.00  0.00    -0.082 Cl
ATOM     22  C   UNL d   1     -38.376  13.142  22.189  0.00  0.00     0.011 A 
ATOM     23  C   UNL d   1     -37.947  13.239  21.489  0.00  0.00     0.001 A 
ATOM     24  C   UNL d   1     -38.215  13.752  20.902  0.00  0.00     0.002 A 
ENDBRANCH  15  18
ENDBRANCH  11  13
ENDBRANCH   8  11
ENDBRANCH   4   5
ENDBRANCH   3   4
TORSDOF 5
ENDMDL
MODEL 4
REMARK VINA RESULT:      -4.9      1.482      1.677
REMARK  5 active torsions:
REMARK  status: ('A' for Active; 'I' for Inactive)
REMARK    1  A    between atoms: C_2  and  C_1 
REMARK    2  A    between atoms: N_5  and  C_2 
REMARK    3  A    between atoms: C_9  and  C_4 
REMARK    4  A    between atoms: C_21  and  N_10 
REMARK    5  A    between atoms: C_18  and  C_21 
ROOT
ATOM      1  N   UNL d   1     -43.089  12.169  21.882  0.00  0.00    -0.191 NA
ATOM      2  C   UNL d   1     -43.841  12.495  21.857  0.00  0.00     0.103 C 
ATOM      3  C   UNL d   1     -44.600  12.826  21.839  0.00  0.00     0.097 C 
ENDROOT
BRANCH   3   4
ATOM      4  C   UNL d   1     -44.957  13.063  22.537  0.00  0.00     0.091 C 
BRANCH   4   5
ATOM      5  N   UNL d   1     -45.665  13.488  22.510  0.00  0.00    -0.299 N 
ATOM      6  C   UNL d   1     -45.902  13.946  23.158  0.00  0.00     0.100 A 
ATOM      7  C   UNL d   1     -46.603  14.370  23.136  0.00  0.00     0.100 A 
ATOM      8  N   UNL d   1     -47.078  14.337  22.461  0.00  0.00    -0.291 N 
ATOM      9  C   UNL d   1     -46.854  13.885  21.811  0.00  0.00     0.100 A 
ATOM     10  C   UNL d   1     -46.144  13.458  21.835  0.00  0.00     0.100 A 
BRANCH   8  11
ATOM     11  C   UNL d   1     -47.784  14.764  22.440  0.00  0.00     0.143 C 
ATOM     12  S   UNL d   1     -47.819  15.494  22.059  0.00  0.00    -0.057 SA
BRANCH  11  13
ATOM     13  C   UNL d   1     -48.465  14.455  22.806  0.00  0.00     0.126 A 
ATOM     14  O   UNL d   1     -48.694  13.658  22.803  0.00  0.00    -0.305 OA
ATOM     15  C   UNL d   1     -49.398  13.599  23.228  0.00  0.00     0.100 A 
ATOM     16  C   UNL d   1     -49.605  14.360  23.494  0.00  0.00     0.027 A 
ATOM     17  C   UNL d   1     -49.027  14.884  23.231  0.00  0.00     0.029 A 
BRANCH  15  18
ATOM     18  C   UNL d   1     -49.826  12.912  23.369  0.00  0.00     0.024 A 
ATOM     19  C   UNL d   1     -49.433  12.188  23.395  0.00  0.00     0.013 A 
ATOM     20  C   UNL d   1     -49.852  11.488  23.536  0.00  0.00     0.058 A 
ATOM     21 CL   UNL d   1     -49.459  10.759  23.562  0.00  0.00    -0.082 Cl
ATOM     22  C   UNL d   1     -50.677  11.522  23.651  0.00  0.00     0.011 A 
ATOM     23  C   UNL d   1     -51.064  12.252  23.624  0.00  0.00     0.001 A 
ATOM     24  C   UNL d   1     -50.641  12.945  23.483  0.00  0.00     0.002 A 
ENDBRANCH  15  18
ENDBRANCH  11  13
ENDBRANCH   8  11
ENDBRANCH   4   5
ENDBRANCH   3   4
TORSDOF 5
ENDMDL
MODEL 5
REMARK VINA RESULT:      -4.6      9.049      9.931
REMARK  5 active torsions:
REMARK  status: ('A' for Active; 'I' for Inactive)
REMARK    1  A    between atoms: C_2  and  C_1 
REMARK    2  A    between atoms: N_5  and  C_2 
REMARK    3  A    between atoms: C_9  and  C_4 
REMARK    4  A    between atoms: C_21  and  N_10 
REMARK    5  A    between atoms: C_18  and  C_21 
ROOT
ATOM      1  N   UNL d   1     -37.940  10.041  17.208  0.00  0.00    -0.191 NA
ATOM      2  C   UNL d   1     -38.042  10.788  17.529  0.00  0.00     0.103 C 
ATOM      3  C   UNL d   1     -38.149  11.546  17.846  0.00  0.00     0.097 C 
ENDROOT
BRANCH   3   4
ATOM      4  C   UNL d   1     -38.432  12.150  17.370  0.00  0.00     0.091 C 
BRANCH   4   5
ATOM      5  N   UNL d   1     -38.563  12.899  17.695  0.00  0.00    -0.299 N 
ATOM      6  C   UNL d   1     -37.940  13.316  18.045  0.00  0.00     0.100 A 
ATOM      7  C   UNL d   1     -38.063  14.059  18.369  0.00  0.00     0.100 A 
ATOM      8  N   UNL d   1     -38.819  14.393  18.344  0.00  0.00    -0.291 N 
ATOM      9  C   UNL d   1     -39.446  13.988  17.999  0.00  0.00     0.100 A 
ATOM     10  C   UNL d   1     -39.318  13.237  17.673  0.00  0.00     0.100 A 
BRANCH   8  11
ATOM     11  C   UNL d   1     -38.944  15.141  18.670  0.00  0.00     0.143 C 
ATOM     12  S   UNL d   1     -38.821  15.819  18.217  0.00  0.00    -0.057 SA
BRANCH  11  13
ATOM     13  C   UNL d   1     -39.194  15.211  19.461  0.00  0.00     0.126 A 
ATOM     14  O   UNL d   1     -38.783  14.930  20.124  0.00  0.00    -0.305 OA
ATOM     15  C   UNL d   1     -39.228  15.117  20.791  0.00  0.00     0.100 A 
ATOM     16  C   UNL d   1     -39.915  15.515  20.543  0.00  0.00     0.027 A 
ATOM     17  C   UNL d   1     -39.890  15.570  19.722  0.00  0.00     0.029 A 
BRANCH  15  18
ATOM     18  C   UNL d   1     -39.033  14.945  21.571  0.00  0.00     0.024 A 
ATOM     19  C   UNL d   1     -39.154  14.182  21.860  0.00  0.00     0.013 A 
ATOM     20  C   UNL d   1     -38.961  13.995  22.643  0.00  0.00     0.058 A 
ATOM     21 CL   UNL d   1     -39.082  13.229  22.935  0.00  0.00    -0.082 Cl
ATOM     22  C   UNL d   1     -38.644  14.585  23.138  0.00  0.00     0.011 A 
ATOM     23  C   UNL d   1     -38.525  15.348  22.841  0.00  0.00     0.001 A 
ATOM     24  C   UNL d   1     -38.719  15.527  22.061  0.00  0.00     0.002 A 
ENDBRANCH  15  18
ENDBRANCH  11  13
ENDBRANCH   8  11
ENDBRANCH   4   5
ENDBRANCH   3   4
TORSDOF 5
ENDMDL
MODEL 6
REMARK VINA RESULT:      -4.3      7.908      9.393
REMARK  5 active torsions:
REMARK  status: ('A' for Active; 'I' for Inactive)
REMARK    1  A    between atoms: C_2  and  C_1 
REMARK    2  A    between atoms: N_5  and  C_2 
REMARK    3  A    between atoms: C_9  and  C_4 
REMARK    4  A    between atoms: C_21  and  N_10 
REMARK    5  A    between atoms: C_18  and  C_21 
ROOT
ATOM      1  N   UNL d   1     -37.989   9.522  17.657  0.00  0.00    -0.191 NA
ATOM      2  C   UNL d   1     -38.146  10.313  17.805  0.00  0.00     0.103 C 
ATOM      3  C   UNL d   1     -38.300  11.115  17.948  0.00  0.00     0.097 C 
ENDROOT
BRANCH   3   4
ATOM      4  C   UNL d   1     -37.942  11.687  17.483  0.00  0.00     0.091 C 
BRANCH   4   5
ATOM      5  N   UNL d   1     -38.086  12.486  17.636  0.00  0.00    -0.299 N 
ATOM      6  C   UNL d   1     -38.052  12.775  18.410  0.00  0.00     0.100 A 
ATOM      7  C   UNL d   1     -38.193  13.567  18.568  0.00  0.00     0.100 A 
ATOM      8  N   UNL d   1     -38.371  14.080  17.945  0.00  0.00    -0.291 N 
ATOM      9  C   UNL d   1     -38.408  13.805  17.171  0.00  0.00     0.100 A 
ATOM     10  C   UNL d   1     -38.264  13.004  17.015  0.00  0.00     0.100 A 
BRANCH   8  11
ATOM     11  C   UNL d   1     -38.513  14.877  18.105  0.00  0.00     0.143 C 
ATOM     12  S   UNL d   1     -37.940  15.445  17.936  0.00  0.00    -0.057 SA
BRANCH  11  13
ATOM     13  C   UNL d   1     -39.240  15.110  18.437  0.00  0.00     0.126 A 
ATOM     14  O   UNL d   1     -39.514  14.902  19.192  0.00  0.00    -0.305 OA
ATOM     15  C   UNL d   1     -40.254  15.250  19.294  0.00  0.00     0.100 A 
ATOM     16  C   UNL d   1     -40.439  15.673  18.602  0.00  0.00     0.027 A 
ATOM     17  C   UNL d   1     -39.812  15.584  18.077  0.00  0.00     0.029 A 
BRANCH  15  18
ATOM     18  C   UNL d   1     -40.731  15.192  19.960  0.00  0.00     0.024 A 
ATOM     19  C   UNL d   1     -40.835  14.459  20.322  0.00  0.00     0.013 A 
ATOM     20  C   UNL d   1     -41.313  14.387  20.994  0.00  0.00     0.058 A 
ATOM     21 CL   UNL d   1     -41.420  13.651  21.359  0.00  0.00    -0.082 Cl
ATOM     22  C   UNL d   1     -41.689  15.064  21.302  0.00  0.00     0.011 A 
ATOM     23  C   UNL d   1     -41.580  15.796  20.934  0.00  0.00     0.001 A 
ATOM     24  C   UNL d   1     -41.103  15.860  20.266  0.00  0.00     0.002 A 
ENDBRANCH  15  18
ENDBRANCH  11  13
ENDBRANCH   8  11
ENDBRANCH   4   5
ENDBRANCH   3   4
TORSDOF 5
ENDMDL
MODEL 7
REMARK VINA RESULT:      -3.7      7.807      9.605
REMARK  5 active torsions:
REMARK  status: ('A' for Active; 'I' for Inactive)
REMARK    1  A    between atoms: C_2  and  C_1 
REMARK    2  A    between atoms: N_5  and  C_2 
REMARK    3  A    between atoms: C_9  and  C_4 
REMARK    4  A    between atoms: C_21  and  N_10 
REMARK    5  A    between atoms: C_18  and  C_21 
ROOT
ATOM      1  N   UNL d   1     -43.572  12.300  21.746  0.00  0.00    -0.191 NA
ATOM      2  C   UNL d   1     -42.938  12.693  21.404  0.00  0.00     0.103 C 
ATOM      3  C   UNL d   1     -42.300  13.096  21.064  0.00  0.00     0.097 C 
ENDROOT
BRANCH   3   4
ATOM      4  C   UNL d   1     -42.126  13.860  21.304  0.00  0.00     0.091 C 
BRANCH   4   5
ATOM      5  N   UNL d   1     -41.414  14.210  21.071  0.00  0.00    -0.299 N 
ATOM      6  C   UNL d   1     -41.418  14.915  20.638  0.00  0.00     0.100 A 
ATOM      7  C   UNL d   1     -40.716  15.267  20.405  0.00  0.00     0.100 A 
ATOM      8  N   UNL d   1     -39.997  14.911  20.604  0.00  0.00    -0.291 N 
ATOM      9  C   UNL d   1     -39.980  14.210  21.033  0.00  0.00     0.100 A 
ATOM     10  C   UNL d   1     -40.692  13.857  21.268  0.00  0.00     0.100 A 
BRANCH   8  11
ATOM     11  C   UNL d   1     -39.290  15.265  20.368  0.00  0.00     0.143 C 
ATOM     12  S   UNL d   1     -38.994  15.918  20.776  0.00  0.00    -0.057 SA
BRANCH  11  13
ATOM     13  C   UNL d   1     -38.872  14.961  19.715  0.00  0.00     0.126 A 
ATOM     14  O   UNL d   1     -39.115  15.006  18.924  0.00  0.00    -0.305 OA
ATOM     15  C   UNL d   1     -38.540  14.637  18.464  0.00  0.00     0.100 A 
ATOM     16  C   UNL d   1     -37.939  14.363  18.971  0.00  0.00     0.027 A 
ATOM     17  C   UNL d   1     -38.149  14.565  19.741  0.00  0.00     0.029 A 
BRANCH  15  18
ATOM     18  C   UNL d   1     -38.550  14.551  17.647  0.00  0.00     0.024 A 
ATOM     19  C   UNL d   1     -38.525  15.221  17.168  0.00  0.00     0.013 A 
ATOM     20  C   UNL d   1     -38.535  15.149  16.344  0.00  0.00     0.058 A 
ATOM     21 CL   UNL d   1     -38.509  15.822  15.861  0.00  0.00    -0.082 Cl
ATOM     22  C   UNL d   1     -38.571  14.390  16.001  0.00  0.00     0.011 A 
ATOM     23  C   UNL d   1     -38.597  13.722  16.487  0.00  0.00     0.001 A 
ATOM     24  C   UNL d   1     -38.586  13.801  17.307  0.00  0.00     0.002 A 
ENDBRANCH  15  18
ENDBRANCH  11  13
ENDBRANCH   8  11
ENDBRANCH   4   5
ENDBRANCH   3   4
TORSDOF 5
ENDMDL
