MODEL 1
REMARK VINA RESULT:      15.7      0.000      0.000
REMARK  4 active torsions:
REMARK  status: ('A' for Active; 'I' for Inactive)
REMARK    1  A    between atoms: C_2  and  S_1 
REMARK    2  A    between atoms: N_3  and  S_1 
REMARK    3  A    between atoms: C_12  and  N_3 
REMARK    4  A    between atoms: N_4  and  C_8 
ROOT
ATOM      1  S   UNL d   1      46.050 -17.686  44.351  0.00  0.00     0.285 S 
ATOM      2  O   UNL d   1      46.644 -18.073  44.832  0.00  0.00    -0.198 OA
ATOM      3  O   UNL d   1      45.486 -17.315  43.897  0.00  0.00    -0.198 OA
ENDROOT
BRANCH   1   4
ATOM      4  C   UNL d   1      46.168 -18.252  43.795  0.00  0.00     0.105 A 
ATOM      5  C   UNL d   1      46.287 -18.077  43.000  0.00  0.00     0.013 A 
ATOM      6  C   UNL d   1      46.408 -18.669  42.430  0.00  0.00     0.001 A 
ATOM      7  C   UNL d   1      46.525 -18.466  41.644  0.00  0.00     0.000 A 
ATOM      8  C   UNL d   1      46.410 -19.454  42.665  0.00  0.00     0.000 A 
ATOM      9  C   UNL d   1      46.646 -19.057  41.077  0.00  0.00     0.000 A 
ATOM     10  C   UNL d   1      46.647 -19.872  41.323  0.00  0.00     0.000 A 
ATOM     11  C   UNL d   1      46.529 -20.051  42.112  0.00  0.00     0.000 A 
ATOM     12  C   UNL d   1      46.290 -19.647  43.470  0.00  0.00     0.001 A 
ATOM     13  C   UNL d   1      46.168 -19.075  44.045  0.00  0.00     0.013 A 
ENDBRANCH   1   4
BRANCH   1  14
ATOM     14  N   UNL d   1      45.947 -17.102  44.955  0.00  0.00    -0.158 NA
BRANCH  14  15
ATOM     15  C   UNL d   1      45.846 -16.321  44.766  0.00  0.00     0.094 A 
ATOM     16  C   UNL d   1      46.470 -15.841  44.541  0.00  0.00     0.021 A 
ATOM     17  C   UNL d   1      46.386 -15.043  44.345  0.00  0.00     0.019 A 
ATOM     18  C   UNL d   1      45.608 -14.707  44.381  0.00  0.00     0.064 A 
ATOM     19  C   UNL d   1      44.974 -15.176  44.605  0.00  0.00     0.019 A 
ATOM     20  C   UNL d   1      45.064 -15.989  44.804  0.00  0.00     0.021 A 
BRANCH  18  21
ATOM     21  N   UNL d   1      45.506 -13.907  44.187  0.00  0.00    -0.300 N 
ATOM     22  C   UNL d   1      45.034 -13.656  43.551  0.00  0.00     0.107 A 
ATOM     23  C   UNL d   1      44.941 -12.867  43.372  0.00  0.00     0.142 A 
ATOM     24  O   UNL d   1      45.318 -12.293  43.823  0.00  0.00    -0.300 OA
ATOM     25  C   UNL d   1      45.793 -12.512  44.461  0.00  0.00     0.142 A 
ATOM     26  C   UNL d   1      45.893 -13.323  44.651  0.00  0.00     0.107 A 
ENDBRANCH  18  21
ENDBRANCH  14  15
ENDBRANCH   1  14
TORSDOF 4
ENDMDL
