MODEL 1
REMARK VINA RESULT:      92.8      0.000      0.000
REMARK  6 active torsions:
REMARK  status: ('A' for Active; 'I' for Inactive)
REMARK    1  A    between atoms: C_9  and  N_1 
REMARK    2  A    between atoms: N_6  and  C_2 
REMARK    3  A    between atoms: C_7  and  C_5 
REMARK    4  A    between atoms: C_13  and  N_6 
REMARK    5  A    between atoms: C_8  and  C_7 
REMARK       I    between atoms: N_10  and  C_8 
REMARK    6  A    between atoms: C_14  and  N_10 
ROOT
ATOM      1  N   UNL d   1     -50.340  26.920  34.712  0.00  0.00    -0.254 N 
ATOM      2  C   UNL d   1     -50.335  26.934  35.537  0.00  0.00     0.182 A 
ATOM      3  C   UNL d   1     -49.770  27.403  34.442  0.00  0.00     0.272 A 
ATOM      4  S   UNL d   1     -49.721  27.461  35.768  0.00  0.00    -0.045 SA
ATOM      5  C   UNL d   1     -49.373  27.750  35.082  0.00  0.00     0.093 A 
ATOM      6  O   UNL d   1     -49.593  27.544  33.652  0.00  0.00    -0.266 OA
ENDROOT
BRANCH   5   7
ATOM      7  C   UNL d   1     -48.755  28.277  35.044  0.00  0.00     0.074 C 
BRANCH   7   8
ATOM      8  C   UNL d   1     -47.990  27.992  34.942  0.00  0.00     0.280 C 
ATOM      9  N   UNL d   1     -47.346  28.519  35.073  0.00  0.00    -0.208 NA
ATOM     10  O   UNL d   1     -47.862  27.234  34.723  0.00  0.00    -0.265 OA
BRANCH   9  11
ATOM     11  C   UNL d   1     -47.495  29.288  35.295  0.00  0.00     0.085 A 
ATOM     12  C   UNL d   1     -47.478  29.497  36.100  0.00  0.00     0.019 A 
ATOM     13  C   UNL d   1     -47.628  30.281  36.339  0.00  0.00     0.002 A 
ATOM     14  C   UNL d   1     -47.795  30.845  35.760  0.00  0.00     0.000 A 
ATOM     15  C   UNL d   1     -47.813  30.640  34.954  0.00  0.00     0.002 A 
ATOM     16  C   UNL d   1     -47.664  29.864  34.722  0.00  0.00     0.019 A 
ENDBRANCH   9  11
ENDBRANCH   7   8
ENDBRANCH   5   7
BRANCH   1  17
ATOM     17  C   UNL d   1     -50.844  26.483  34.250  0.00  0.00     0.069 A 
ATOM     18  C   UNL d   1     -51.500  26.857  33.902  0.00  0.00     0.018 A 
ATOM     19  C   UNL d   1     -52.025  26.420  33.427  0.00  0.00     0.002 A 
ATOM     20  C   UNL d   1     -51.887  25.614  33.306  0.00  0.00     0.000 A 
ATOM     21  C   UNL d   1     -51.231  25.241  33.654  0.00  0.00     0.002 A 
ATOM     22  C   UNL d   1     -50.717  25.681  34.123  0.00  0.00     0.018 A 
ENDBRANCH   1  17
BRANCH   2  23
ATOM     23  N   UNL d   1     -50.800  26.543  36.081  0.00  0.00    -0.222 NA
BRANCH  23  24
ATOM     24  C   UNL d   1     -50.821  26.782  36.862  0.00  0.00     0.084 A 
ATOM     25  C   UNL d   1     -50.349  27.409  37.115  0.00  0.00     0.019 A 
ATOM     26  C   UNL d   1     -50.377  27.647  37.915  0.00  0.00     0.002 A 
ATOM     27  C   UNL d   1     -50.862  27.266  38.435  0.00  0.00     0.000 A 
ATOM     28  C   UNL d   1     -51.338  26.634  38.180  0.00  0.00     0.002 A 
ATOM     29  C   UNL d   1     -51.317  26.392  37.392  0.00  0.00     0.019 A 
ENDBRANCH  23  24
ENDBRANCH   2  23
TORSDOF 6
ENDMDL
MODEL 2
REMARK VINA RESULT:      95.3      2.876      4.699
REMARK  6 active torsions:
REMARK  status: ('A' for Active; 'I' for Inactive)
REMARK    1  A    between atoms: C_9  and  N_1 
REMARK    2  A    between atoms: N_6  and  C_2 
REMARK    3  A    between atoms: C_7  and  C_5 
REMARK    4  A    between atoms: C_13  and  N_6 
REMARK    5  A    between atoms: C_8  and  C_7 
REMARK       I    between atoms: N_10  and  C_8 
REMARK    6  A    between atoms: C_14  and  N_10 
ROOT
ATOM      1  N   UNL d   1     -51.435  26.659  37.147  0.00  0.00    -0.254 N 
ATOM      2  C   UNL d   1     -52.139  26.228  37.138  0.00  0.00     0.182 A 
ATOM      3  C   UNL d   1     -51.087  26.600  36.435  0.00  0.00     0.272 A 
ATOM      4  S   UNL d   1     -52.209  25.893  36.370  0.00  0.00    -0.045 SA
ATOM      5  C   UNL d   1     -51.552  26.127  35.937  0.00  0.00     0.093 A 
ATOM      6  O   UNL d   1     -50.376  26.949  36.216  0.00  0.00    -0.266 OA
ENDROOT
BRANCH   5   7
ATOM      7  C   UNL d   1     -51.393  25.930  35.165  0.00  0.00     0.074 C 
BRANCH   7   8
ATOM      8  C   UNL d   1     -51.600  26.455  34.565  0.00  0.00     0.280 C 
ATOM      9  N   UNL d   1     -51.598  26.176  33.771  0.00  0.00    -0.208 NA
ATOM     10  O   UNL d   1     -51.798  27.211  34.734  0.00  0.00    -0.265 OA
BRANCH   9  11
ATOM     11  C   UNL d   1     -51.394  25.402  33.617  0.00  0.00     0.085 A 
ATOM     12  C   UNL d   1     -51.981  24.813  33.612  0.00  0.00     0.019 A 
ATOM     13  C   UNL d   1     -51.783  24.018  33.456  0.00  0.00     0.002 A 
ATOM     14  C   UNL d   1     -50.993  23.830  33.306  0.00  0.00     0.000 A 
ATOM     15  C   UNL d   1     -50.404  24.417  33.309  0.00  0.00     0.002 A 
ATOM     16  C   UNL d   1     -50.603  25.201  33.464  0.00  0.00     0.019 A 
ENDBRANCH   9  11
ENDBRANCH   7   8
ENDBRANCH   5   7
BRANCH   1  17
ATOM     17  C   UNL d   1     -51.145  27.077  37.779  0.00  0.00     0.069 A 
ATOM     18  C   UNL d   1     -50.579  26.721  38.273  0.00  0.00     0.018 A 
ATOM     19  C   UNL d   1     -50.274  27.138  38.925  0.00  0.00     0.002 A 
ATOM     20  C   UNL d   1     -50.539  27.906  39.074  0.00  0.00     0.000 A 
ATOM     21  C   UNL d   1     -51.105  28.261  38.580  0.00  0.00     0.002 A 
ATOM     22  C   UNL d   1     -51.401  27.841  37.937  0.00  0.00     0.018 A 
ENDBRANCH   1  17
BRANCH   2  23
ATOM     23  N   UNL d   1     -52.699  26.108  37.719  0.00  0.00    -0.222 NA
BRANCH  23  24
ATOM     24  C   UNL d   1     -52.790  25.374  38.067  0.00  0.00     0.084 A 
ATOM     25  C   UNL d   1     -52.519  25.245  38.834  0.00  0.00     0.019 A 
ATOM     26  C   UNL d   1     -52.616  24.492  39.183  0.00  0.00     0.002 A 
ATOM     27  C   UNL d   1     -52.973  23.898  38.770  0.00  0.00     0.000 A 
ATOM     28  C   UNL d   1     -53.246  24.028  37.996  0.00  0.00     0.002 A 
ATOM     29  C   UNL d   1     -53.155  24.768  37.644  0.00  0.00     0.019 A 
ENDBRANCH  23  24
ENDBRANCH   2  23
TORSDOF 6
ENDMDL
MODEL 3
REMARK VINA RESULT:      95.7      1.369      4.657
REMARK  6 active torsions:
REMARK  status: ('A' for Active; 'I' for Inactive)
REMARK    1  A    between atoms: C_9  and  N_1 
REMARK    2  A    between atoms: N_6  and  C_2 
REMARK    3  A    between atoms: C_7  and  C_5 
REMARK    4  A    between atoms: C_13  and  N_6 
REMARK    5  A    between atoms: C_8  and  C_7 
REMARK       I    between atoms: N_10  and  C_8 
REMARK    6  A    between atoms: C_14  and  N_10 
ROOT
ATOM      1  N   UNL d   1     -49.318  27.827  35.789  0.00  0.00    -0.254 N 
ATOM      2  C   UNL d   1     -49.820  27.417  35.277  0.00  0.00     0.182 A 
ATOM      3  C   UNL d   1     -49.547  27.692  36.538  0.00  0.00     0.272 A 
ATOM      4  S   UNL d   1     -50.381  27.015  35.758  0.00  0.00    -0.045 SA
ATOM      5  C   UNL d   1     -50.206  27.190  36.541  0.00  0.00     0.093 A 
ATOM      6  O   UNL d   1     -49.191  27.999  37.212  0.00  0.00    -0.266 OA
ENDROOT
BRANCH   5   7
ATOM      7  C   UNL d   1     -50.608  26.918  37.193  0.00  0.00     0.074 C 
BRANCH   7   8
ATOM      8  C   UNL d   1     -50.733  27.427  37.829  0.00  0.00     0.280 C 
ATOM      9  N   UNL d   1     -51.292  27.202  38.417  0.00  0.00    -0.208 NA
ATOM     10  O   UNL d   1     -50.332  28.116  37.886  0.00  0.00    -0.265 OA
BRANCH   9  11
ATOM     11  C   UNL d   1     -51.692  26.496  38.343  0.00  0.00     0.085 A 
ATOM     12  C   UNL d   1     -52.415  26.471  37.932  0.00  0.00     0.019 A 
ATOM     13  C   UNL d   1     -52.832  25.754  37.850  0.00  0.00     0.002 A 
ATOM     14  C   UNL d   1     -52.513  25.071  38.186  0.00  0.00     0.000 A 
ATOM     15  C   UNL d   1     -51.790  25.093  38.597  0.00  0.00     0.002 A 
ATOM     16  C   UNL d   1     -51.381  25.803  38.676  0.00  0.00     0.019 A 
ENDBRANCH   9  11
ENDBRANCH   7   8
ENDBRANCH   5   7
BRANCH   1  17
ATOM     17  C   UNL d   1     -48.692  28.292  35.564  0.00  0.00     0.069 A 
ATOM     18  C   UNL d   1     -48.769  29.119  35.599  0.00  0.00     0.018 A 
ATOM     19  C   UNL d   1     -48.135  29.606  35.372  0.00  0.00     0.002 A 
ATOM     20  C   UNL d   1     -47.431  29.260  35.111  0.00  0.00     0.000 A 
ATOM     21  C   UNL d   1     -47.355  28.433  35.076  0.00  0.00     0.002 A 
ATOM     22  C   UNL d   1     -47.988  27.959  35.304  0.00  0.00     0.018 A 
ENDBRANCH   1  17
BRANCH   2  23
ATOM     23  N   UNL d   1     -49.828  27.367  34.463  0.00  0.00    -0.222 NA
BRANCH  23  24
ATOM     24  C   UNL d   1     -50.356  26.876  34.080  0.00  0.00     0.084 A 
ATOM     25  C   UNL d   1     -50.202  26.068  34.024  0.00  0.00     0.019 A 
ATOM     26  C   UNL d   1     -50.746  25.572  33.630  0.00  0.00     0.002 A 
ATOM     27  C   UNL d   1     -51.417  25.883  33.308  0.00  0.00     0.000 A 
ATOM     28  C   UNL d   1     -51.573  26.697  33.364  0.00  0.00     0.002 A 
ATOM     29  C   UNL d   1     -51.041  27.194  33.751  0.00  0.00     0.019 A 
ENDBRANCH  23  24
ENDBRANCH   2  23
TORSDOF 6
ENDMDL
