MODEL 1
REMARK VINA RESULT:      51.9      0.000      0.000
REMARK  1 active torsions:
REMARK  status: ('A' for Active; 'I' for Inactive)
REMARK    1  A    between atoms: C_6  and  C_1 
REMARK       I    between atoms: N_9  and  C_6 
ROOT
ATOM      1  C   UNL d   1      13.610  12.875  -3.060  0.00  0.00     0.107 A 
ATOM      2  C   UNL d   1      14.260  13.460  -2.054  0.00  0.00     0.044 A 
ATOM      3  S   UNL d   1      13.684  13.676  -3.234  0.00  0.00    -0.061 SA
ATOM      4  C   UNL d   1      14.085  14.038  -2.612  0.00  0.00     0.112 A 
ATOM      5  C   UNL d   1      13.969  12.744  -2.326  0.00  0.00     0.116 A 
ATOM      6  N   UNL d   1      14.319  14.826  -2.477  0.00  0.00    -0.239 NA
ATOM      7  C   UNL d   1      14.665  13.661  -1.362  0.00  0.00     0.005 A 
ATOM      8  C   UNL d   1      14.721  15.021  -1.788  0.00  0.00     0.082 A 
ATOM      9  C   UNL d   1      14.891  14.432  -1.234  0.00  0.00     0.018 A 
ATOM     10  N   UNL d   1      14.019  12.030  -1.950  0.00  0.00    -0.147 N 
ATOM     11  C   UNL d   1      14.860  15.833  -1.843  0.00  0.00     0.019 A 
ATOM     12  C   UNL d   1      15.274  14.410  -0.497  0.00  0.00     0.002 A 
ATOM     13  C   UNL d   1      15.229  16.393  -1.360  0.00  0.00     0.002 A 
ATOM     14  C   UNL d   1      15.645  14.982  -0.015  0.00  0.00     0.000 A 
ATOM     15  C   UNL d   1      15.783  15.794  -0.071  0.00  0.00     0.000 A 
ATOM     16  C   UNL d   1      15.610  16.377  -0.629  0.00  0.00     0.000 A 
ENDROOT
BRANCH   1  17
ATOM     17  C   UNL d   1      13.255  12.323  -3.520  0.00  0.00     0.272 C 
ATOM     18  N   UNL d   1      13.386  12.319  -4.305  0.00  0.00    -0.272 N 
ATOM     19  C   UNL d   1      13.851  12.820  -4.717  0.00  0.00     0.083 A 
ATOM     20  C   UNL d   1      13.064  11.795  -4.831  0.00  0.00     0.083 A 
ATOM     21  C   UNL d   1      13.821  12.614  -5.484  0.00  0.00     0.021 A 
ATOM     22  C   UNL d   1      13.341  11.989  -5.559  0.00  0.00     0.021 A 
ATOM     23  O   UNL d   1      12.769  11.779  -3.186  0.00  0.00    -0.266 OA
ENDBRANCH   1  17
TORSDOF 1
ENDMDL
