MODEL 1
REMARK VINA RESULT:      -5.6      0.000      0.000
REMARK  3 active torsions:
REMARK  status: ('A' for Active; 'I' for Inactive)
REMARK    1  A    between atoms: N_2  and  S_1 
REMARK    2  A    between atoms: N_3  and  S_1 
REMARK    3  A    between atoms: C_6  and  N_3 
ROOT
ATOM      1  S   UNL d   1     -41.305-122.370 -52.474  0.00  0.00     0.351 S 
ATOM      2  O   UNL d   1     -41.186-123.173 -52.336  0.00  0.00    -0.180 OA
ATOM      3  O   UNL d   1     -41.424-121.568 -52.612  0.00  0.00    -0.180 OA
ENDROOT
BRANCH   1   4
ATOM      4  N   UNL d   1     -41.498-122.534 -53.257  0.00  0.00    -0.215 N 
ATOM      5  C   UNL d   1     -41.126-123.164 -53.649  0.00  0.00     0.093 C 
ATOM      6  C   UNL d   1     -41.320-123.323 -54.425  0.00  0.00     0.020 C 
ATOM      7  C   UNL d   1     -41.789-122.809 -54.853  0.00  0.00     0.003 C 
ATOM      8  C   UNL d   1     -42.070-122.122 -54.497  0.00  0.00     0.020 C 
ATOM      9  C   UNL d   1     -41.881-121.949 -53.711  0.00  0.00     0.093 C 
ENDBRANCH   1   4
BRANCH   1  10
ATOM     10  N   UNL d   1     -41.123-122.138 -51.704  0.00  0.00    -0.144 NA
BRANCH  10  11
ATOM     11  C   UNL d   1     -41.570-122.433 -51.056  0.00  0.00     0.095 A 
ATOM     12  C   UNL d   1     -41.312-123.111 -50.647  0.00  0.00     0.020 A 
ATOM     13  C   UNL d   1     -41.746-123.393 -50.001  0.00  0.00     0.002 A 
ATOM     14  C   UNL d   1     -42.442-123.001 -49.767  0.00  0.00     0.000 A 
ATOM     15  C   UNL d   1     -42.711-122.318 -50.167  0.00  0.00     0.002 A 
ATOM     16  C   UNL d   1     -42.880-123.300 -49.130  0.00  0.00     0.000 C 
ATOM     17  C   UNL d   1     -42.264-122.033 -50.818  0.00  0.00     0.020 A 
ENDBRANCH  10  11
ENDBRANCH   1  10
TORSDOF 3
ENDMDL
MODEL 2
REMARK VINA RESULT:      -5.5      0.632      3.718
REMARK  3 active torsions:
REMARK  status: ('A' for Active; 'I' for Inactive)
REMARK    1  A    between atoms: N_2  and  S_1 
REMARK    2  A    between atoms: N_3  and  S_1 
REMARK    3  A    between atoms: C_6  and  N_3 
ROOT
ATOM      1  S   UNL d   1     -41.398-122.393 -52.055  0.00  0.00     0.351 S 
ATOM      2  O   UNL d   1     -41.261-123.144 -52.365  0.00  0.00    -0.180 OA
ATOM      3  O   UNL d   1     -41.535-121.644 -51.744  0.00  0.00    -0.180 OA
ENDROOT
BRANCH   1   4
ATOM      4  N   UNL d   1     -41.686-122.733 -51.362  0.00  0.00    -0.215 N 
ATOM      5  C   UNL d   1     -42.062-122.256 -50.796  0.00  0.00     0.093 C 
ATOM      6  C   UNL d   1     -42.345-122.597 -50.111  0.00  0.00     0.020 C 
ATOM      7  C   UNL d   1     -42.170-123.373 -49.925  0.00  0.00     0.003 C 
ATOM      8  C   UNL d   1     -41.701-123.817 -50.436  0.00  0.00     0.020 C 
ATOM      9  C   UNL d   1     -41.407-123.484 -51.134  0.00  0.00     0.093 C 
ENDBRANCH   1   4
BRANCH   1  10
ATOM     10  N   UNL d   1     -41.122-121.990 -52.718  0.00  0.00    -0.144 NA
BRANCH  10  11
ATOM     11  C   UNL d   1     -41.499-122.093 -53.464  0.00  0.00     0.095 A 
ATOM     12  C   UNL d   1     -42.190-121.666 -53.642  0.00  0.00     0.020 A 
ATOM     13  C   UNL d   1     -42.554-121.758 -54.381  0.00  0.00     0.002 A 
ATOM     14  C   UNL d   1     -42.229-122.285 -54.938  0.00  0.00     0.000 A 
ATOM     15  C   UNL d   1     -41.535-122.719 -54.772  0.00  0.00     0.002 A 
ATOM     16  C   UNL d   1     -42.609-122.386 -55.668  0.00  0.00     0.000 C 
ATOM     17  C   UNL d   1     -41.167-122.616 -54.024  0.00  0.00     0.020 A 
ENDBRANCH  10  11
ENDBRANCH   1  10
TORSDOF 3
ENDMDL
MODEL 3
REMARK VINA RESULT:      -4.8      1.015      3.785
REMARK  3 active torsions:
REMARK  status: ('A' for Active; 'I' for Inactive)
REMARK    1  A    between atoms: N_2  and  S_1 
REMARK    2  A    between atoms: N_3  and  S_1 
REMARK    3  A    between atoms: C_6  and  N_3 
ROOT
ATOM      1  S   UNL d   1     -41.691-122.579 -50.947  0.00  0.00     0.351 S 
ATOM      2  O   UNL d   1     -42.261-122.013 -51.130  0.00  0.00    -0.180 OA
ATOM      3  O   UNL d   1     -41.123-123.144 -50.763  0.00  0.00    -0.180 OA
ENDROOT
BRANCH   1   4
ATOM      4  N   UNL d   1     -42.164-122.855 -50.332  0.00  0.00    -0.215 N 
ATOM      5  C   UNL d   1     -42.766-122.370 -50.027  0.00  0.00     0.093 C 
ATOM      6  C   UNL d   1     -43.232-122.647 -49.418  0.00  0.00     0.020 C 
ATOM      7  C   UNL d   1     -43.048-123.343 -49.032  0.00  0.00     0.003 C 
ATOM      8  C   UNL d   1     -42.384-123.772 -49.262  0.00  0.00     0.020 C 
ATOM      9  C   UNL d   1     -41.903-123.502 -49.878  0.00  0.00     0.093 C 
ENDBRANCH   1   4
BRANCH   1  10
ATOM     10  N   UNL d   1     -41.171-122.352 -51.544  0.00  0.00    -0.144 NA
BRANCH  10  11
ATOM     11  C   UNL d   1     -41.305-122.596 -52.338  0.00  0.00     0.095 A 
ATOM     12  C   UNL d   1     -41.605-122.055 -52.894  0.00  0.00     0.020 A 
ATOM     13  C   UNL d   1     -41.725-122.292 -53.678  0.00  0.00     0.002 A 
ATOM     14  C   UNL d   1     -41.551-123.074 -53.905  0.00  0.00     0.000 A 
ATOM     15  C   UNL d   1     -41.248-123.628 -53.357  0.00  0.00     0.002 A 
ATOM     16  C   UNL d   1     -41.691-123.309 -54.687  0.00  0.00     0.000 C 
ATOM     17  C   UNL d   1     -41.122-123.380 -52.565  0.00  0.00     0.020 A 
ENDBRANCH  10  11
ENDBRANCH   1  10
TORSDOF 3
ENDMDL
