MODEL 1
REMARK VINA RESULT:      -2.3      0.000      0.000
REMARK  5 active torsions:
REMARK  status: ('A' for Active; 'I' for Inactive)
REMARK    1  A    between atoms: C_2  and  C_1 
REMARK       I    between atoms: N_4  and  C_2 
REMARK    2  A    between atoms: C_7  and  N_4 
REMARK    3  A    between atoms: C_12  and  C_6 
REMARK    4  A    between atoms: S_11  and  C_12 
REMARK    5  A    between atoms: C_14  and  S_11 
ROOT
ATOM      1  C   UNL d   1      32.373  16.202 -23.753  0.00  0.00     0.158 A 
ATOM      2  O   UNL d   1      31.561  16.116 -23.644  0.00  0.00    -0.302 OA
ATOM      3  C   UNL d   1      32.536  16.032 -24.548  0.00  0.00     0.032 A 
ATOM      4  C   UNL d   1      31.224  15.897 -24.355  0.00  0.00     0.107 A 
ATOM      5  C   UNL d   1      31.824  15.844 -24.921  0.00  0.00     0.027 A 
ENDROOT
BRANCH   1   6
ATOM      6  C   UNL d   1      32.930  16.417 -23.182  0.00  0.00     0.302 C 
ATOM      7  N   UNL d   1      33.241  17.179 -23.168  0.00  0.00    -0.204 NA
ATOM      8  O   UNL d   1      33.171  15.862 -22.627  0.00  0.00    -0.263 OA
BRANCH   7   9
ATOM      9  C   UNL d   1      32.988  17.732 -23.737  0.00  0.00     0.112 A 
ATOM     10  C   UNL d   1      32.483  18.343 -23.500  0.00  0.00     0.158 A 
ATOM     11  F   UNL d   1      32.240  18.398 -22.718  0.00  0.00    -0.203 F 
ATOM     12  C   UNL d   1      32.230  18.892 -24.058  0.00  0.00     0.031 A 
ATOM     13  C   UNL d   1      32.477  18.833 -24.847  0.00  0.00     0.002 A 
ATOM     14  C   UNL d   1      32.980  18.222 -25.076  0.00  0.00     0.002 A 
ATOM     15  C   UNL d   1      33.234  17.671 -24.515  0.00  0.00     0.021 A 
ENDBRANCH   7   9
ENDBRANCH   1   6
BRANCH   4  16
ATOM     16  C   UNL d   1      30.422  15.752 -24.496  0.00  0.00     0.060 C 
BRANCH  16  17
ATOM     17  S   UNL d   1      29.883  16.374 -24.474  0.00  0.00    -0.084 SA
BRANCH  17  18
ATOM     18  C   UNL d   1      29.135  16.267 -24.155  0.00  0.00     0.029 A 
ATOM     19  C   UNL d   1      28.708  15.583 -24.317  0.00  0.00     0.006 A 
ATOM     20  C   UNL d   1      27.960  15.476 -23.997  0.00  0.00     0.001 A 
ATOM     21  C   UNL d   1      27.639  16.063 -23.509  0.00  0.00     0.000 A 
ATOM     22  C   UNL d   1      28.069  16.747 -23.348  0.00  0.00     0.001 A 
ATOM     23  C   UNL d   1      28.818  16.854 -23.669  0.00  0.00     0.006 A 
ENDBRANCH  17  18
ENDBRANCH  16  17
ENDBRANCH   4  16
TORSDOF 5
ENDMDL
MODEL 2
REMARK VINA RESULT:      -1.8      4.057      5.537
REMARK  5 active torsions:
REMARK  status: ('A' for Active; 'I' for Inactive)
REMARK    1  A    between atoms: C_2  and  C_1 
REMARK       I    between atoms: N_4  and  C_2 
REMARK    2  A    between atoms: C_7  and  N_4 
REMARK    3  A    between atoms: C_12  and  C_6 
REMARK    4  A    between atoms: S_11  and  C_12 
REMARK    5  A    between atoms: C_14  and  S_11 
ROOT
ATOM      1  C   UNL d   1      32.101  21.152 -20.959  0.00  0.00     0.158 A 
ATOM      2  O   UNL d   1      31.980  20.765 -21.677  0.00  0.00    -0.302 OA
ATOM      3  C   UNL d   1      32.886  21.013 -20.731  0.00  0.00     0.032 A 
ATOM      4  C   UNL d   1      32.674  20.392 -21.892  0.00  0.00     0.107 A 
ATOM      5  C   UNL d   1      33.241  20.542 -21.308  0.00  0.00     0.027 A 
ENDROOT
BRANCH   1   6
ATOM      6  C   UNL d   1      31.547  21.599 -20.537  0.00  0.00     0.302 C 
ATOM      7  N   UNL d   1      31.549  22.420 -20.587  0.00  0.00    -0.204 NA
ATOM      8  O   UNL d   1      30.996  21.214 -20.067  0.00  0.00    -0.263 OA
BRANCH   7   9
ATOM      9  C   UNL d   1      32.115  22.798 -21.069  0.00  0.00     0.112 A 
ATOM     10  C   UNL d   1      32.678  23.286 -20.710  0.00  0.00     0.158 A 
ATOM     11  F   UNL d   1      32.675  23.393 -19.897  0.00  0.00    -0.203 F 
ATOM     12  C   UNL d   1      33.239  23.661 -21.181  0.00  0.00     0.031 A 
ATOM     13  C   UNL d   1      33.240  23.550 -22.003  0.00  0.00     0.002 A 
ATOM     14  C   UNL d   1      32.676  23.062 -22.352  0.00  0.00     0.002 A 
ATOM     15  C   UNL d   1      32.112  22.686 -21.879  0.00  0.00     0.021 A 
ENDBRANCH   7   9
ENDBRANCH   1   6
BRANCH   4  16
ATOM     16  C   UNL d   1      32.800  19.940 -22.572  0.00  0.00     0.060 C 
BRANCH  16  17
ATOM     17  S   UNL d   1      32.516  19.169 -22.610  0.00  0.00    -0.084 SA
BRANCH  17  18
ATOM     18  C   UNL d   1      32.704  18.686 -23.247  0.00  0.00     0.029 A 
ATOM     19  C   UNL d   1      32.956  19.014 -23.957  0.00  0.00     0.006 A 
ATOM     20  C   UNL d   1      33.143  18.531 -24.594  0.00  0.00     0.001 A 
ATOM     21  C   UNL d   1      33.075  17.709 -24.514  0.00  0.00     0.000 A 
ATOM     22  C   UNL d   1      32.822  17.384 -23.801  0.00  0.00     0.001 A 
ATOM     23  C   UNL d   1      32.635  17.867 -23.164  0.00  0.00     0.006 A 
ENDBRANCH  17  18
ENDBRANCH  16  17
ENDBRANCH   4  16
TORSDOF 5
ENDMDL
