MODEL 1
REMARK VINA RESULT:       6.7      0.000      0.000
REMARK  7 active torsions:
REMARK  status: ('A' for Active; 'I' for Inactive)
REMARK    1  A    between atoms: N_7  and  S_1 
REMARK    2  A    between atoms: C_19  and  S_1 
REMARK    3  A    between atoms: N_2  and  C_3 
REMARK    4  A    between atoms: C_3  and  C_6 
REMARK    5  A    between atoms: C_5  and  C_3 
REMARK    6  A    between atoms: C_16  and  N_4 
REMARK    7  A    between atoms: C_6  and  N_7 
ROOT
ATOM      1  C   UNL d   1     -41.510-122.342 -52.385  0.00  0.00     0.107 C 
ENDROOT
BRANCH   1   2
ATOM      2  N   UNL d   1     -41.697-122.589 -51.619  0.00  0.00    -0.298 N 
ATOM      3  C   UNL d   1     -41.125-122.962 -51.156  0.00  0.00     0.100 A 
ATOM      4  C   UNL d   1     -41.314-123.207 -50.393  0.00  0.00     0.100 A 
ATOM      5  N   UNL d   1     -42.068-123.082 -50.088  0.00  0.00    -0.301 N 
ATOM      6  C   UNL d   1     -42.640-122.708 -50.551  0.00  0.00     0.100 A 
ATOM      7  C   UNL d   1     -42.454-122.462 -51.316  0.00  0.00     0.100 A 
BRANCH   5   8
ATOM      8  C   UNL d   1     -42.254-123.326 -49.329  0.00  0.00     0.064 A 
ATOM      9  C   UNL d   1     -41.661-123.441 -48.775  0.00  0.00     0.018 A 
ATOM     10  C   UNL d   1     -41.845-123.686 -48.011  0.00  0.00     0.002 A 
ATOM     11  C   UNL d   1     -42.632-123.817 -47.803  0.00  0.00     0.000 A 
ATOM     12  C   UNL d   1     -43.232-123.702 -48.359  0.00  0.00     0.002 A 
ATOM     13  C   UNL d   1     -43.041-123.457 -49.120  0.00  0.00     0.018 A 
ENDBRANCH   5   8
ENDBRANCH   1   2
BRANCH   1  14
ATOM     14  C   UNL d   1     -41.203-121.589 -52.529  0.00  0.00     0.132 C 
BRANCH  14  15
ATOM     15  N   UNL d   1     -41.731-120.948 -52.649  0.00  0.00    -0.155 NA
BRANCH  15  16
ATOM     16  S   UNL d   1     -41.434-120.195 -52.786  0.00  0.00     0.286 S 
ATOM     17  O   UNL d   1     -41.746-120.207 -53.555  0.00  0.00    -0.198 OA
ATOM     18  O   UNL d   1     -41.123-120.187 -52.015  0.00  0.00    -0.198 OA
BRANCH  16  19
ATOM     19  C   UNL d   1     -41.131-119.435 -52.914  0.00  0.00     0.117 C 
ATOM     20  C   UNL d   1     -41.443-118.794 -52.498  0.00  0.00     0.014 C 
ENDBRANCH  16  19
ENDBRANCH  15  16
ENDBRANCH  14  15
ENDBRANCH   1  14
BRANCH   1  21
ATOM     21  C   UNL d   1     -41.634-122.863 -53.030  0.00  0.00     0.118 A 
ATOM     22  O   UNL d   1     -42.382-122.944 -53.362  0.00  0.00    -0.304 OA
ATOM     23  C   UNL d   1     -42.330-123.492 -53.983  0.00  0.00     0.123 A 
ATOM     24  C   UNL d   1     -41.556-123.743 -54.030  0.00  0.00     0.029 A 
ATOM     25  C   UNL d   1     -41.123-123.356 -53.442  0.00  0.00     0.028 A 
ENDBRANCH   1  21
TORSDOF 7
ENDMDL
