MODEL 1
REMARK VINA RESULT:      -9.7      0.000      0.000
REMARK  5 active torsions:
REMARK  status: ('A' for Active; 'I' for Inactive)
REMARK    1  A    between atoms: N_3  and  S_1 
REMARK    2  A    between atoms: C_5  and  S_1 
REMARK    3  A    between atoms: C_2  and  C_6 
REMARK       I    between atoms: N_4  and  C_2 
REMARK    4  A    between atoms: C_11  and  N_3 
REMARK    5  A    between atoms: O_18  and  C_14 
ROOT
ATOM      1  C   UNL d   1      52.992  34.120  53.678  0.00  0.00     0.058 A 
ATOM      2  C   UNL d   1      53.419  33.446  53.483  0.00  0.00     0.025 A 
ATOM      3  C   UNL d   1      53.892  33.069  54.045  0.00  0.00     0.094 A 
ATOM      4  C   UNL d   1      53.038  34.428  54.453  0.00  0.00     0.005 A 
ATOM      5  C   UNL d   1      53.511  34.051  55.014  0.00  0.00     0.002 A 
ATOM      6  C   UNL d   1      53.939  33.374  54.817  0.00  0.00     0.020 A 
ENDROOT
BRANCH   3   7
ATOM      7  N   UNL d   1      54.318  32.395  53.849  0.00  0.00    -0.158 NA
BRANCH   7   8
ATOM      8  S   UNL d   1      53.941  31.670  53.765  0.00  0.00     0.285 S 
ATOM      9  O   UNL d   1      54.072  31.698  52.951  0.00  0.00    -0.198 OA
ATOM     10  O   UNL d   1      53.807  31.634  54.571  0.00  0.00    -0.198 OA
BRANCH   8  11
ATOM     11  C   UNL d   1      53.564  30.944  53.676  0.00  0.00     0.107 A 
ATOM     12  C   UNL d   1      53.557  30.398  54.304  0.00  0.00     0.037 A 
ATOM     13  C   UNL d   1      53.181  29.678  54.209  0.00  0.00     0.095 A 
ATOM     14  C   UNL d   1      52.811  29.494  53.496  0.00  0.00     0.024 A 
ATOM     15  C   UNL d   1      52.814  30.026  52.877  0.00  0.00     0.003 A 
ATOM     16  C   UNL d   1      53.191  30.752  52.966  0.00  0.00     0.013 A 
BRANCH  13  17
ATOM     17  O   UNL d   1      53.172  29.128  54.837  0.00  0.00    -0.328 OA
ATOM     18  C   UNL d   1      53.528  28.373  54.743  0.00  0.00     0.181 C 
ENDBRANCH  13  17
ENDBRANCH   8  11
ENDBRANCH   7   8
ENDBRANCH   3   7
BRANCH   1  19
ATOM     19  C   UNL d   1      52.523  34.490  53.113  0.00  0.00     0.265 C 
ATOM     20  N   UNL d   1      51.723  34.284  53.044  0.00  0.00    -0.268 N 
ATOM     21  C   UNL d   1      51.251  34.655  52.477  0.00  0.00     0.110 A 
ATOM     22  C   UNL d   1      51.403  33.714  53.540  0.00  0.00     0.110 A 
ATOM     23  C   UNL d   1      50.457  34.449  52.412  0.00  0.00     0.142 A 
ATOM     24  O   UNL d   1      50.138  33.878  52.908  0.00  0.00    -0.300 OA
ATOM     25  C   UNL d   1      50.601  33.506  53.474  0.00  0.00     0.142 A 
ATOM     26  O   UNL d   1      52.843  35.061  52.617  0.00  0.00    -0.267 OA
ENDBRANCH   1  19
TORSDOF 5
ENDMDL
MODEL 2
REMARK VINA RESULT:      -8.9      1.225      4.349
REMARK  5 active torsions:
REMARK  status: ('A' for Active; 'I' for Inactive)
REMARK    1  A    between atoms: N_3  and  S_1 
REMARK    2  A    between atoms: C_5  and  S_1 
REMARK    3  A    between atoms: C_2  and  C_6 
REMARK       I    between atoms: N_4  and  C_2 
REMARK    4  A    between atoms: C_11  and  N_3 
REMARK    5  A    between atoms: O_18  and  C_14 
ROOT
ATOM      1  C   UNL d   1      53.784  32.272  54.136  0.00  0.00     0.058 A 
ATOM      2  C   UNL d   1      53.222  32.862  54.231  0.00  0.00     0.025 A 
ATOM      3  C   UNL d   1      53.342  33.614  53.913  0.00  0.00     0.094 A 
ATOM      4  C   UNL d   1      54.486  32.434  53.714  0.00  0.00     0.005 A 
ATOM      5  C   UNL d   1      54.607  33.186  53.396  0.00  0.00     0.002 A 
ATOM      6  C   UNL d   1      54.040  33.778  53.493  0.00  0.00     0.020 A 
ENDROOT
BRANCH   3   7
ATOM      7  N   UNL d   1      52.779  34.204  54.009  0.00  0.00    -0.158 NA
BRANCH   7   8
ATOM      8  S   UNL d   1      52.137  34.257  53.499  0.00  0.00     0.285 S 
ATOM      9  O   UNL d   1      51.687  33.802  54.019  0.00  0.00    -0.198 OA
ATOM     10  O   UNL d   1      52.575  34.710  52.977  0.00  0.00    -0.198 OA
BRANCH   8  11
ATOM     11  C   UNL d   1      51.491  34.308  52.990  0.00  0.00     0.107 A 
ATOM     12  C   UNL d   1      50.753  34.560  53.278  0.00  0.00     0.037 A 
ATOM     13  C   UNL d   1      50.115  34.608  52.768  0.00  0.00     0.095 A 
ATOM     14  C   UNL d   1      50.203  34.409  51.974  0.00  0.00     0.024 A 
ATOM     15  C   UNL d   1      50.926  34.161  51.685  0.00  0.00     0.003 A 
ATOM     16  C   UNL d   1      51.572  34.110  52.193  0.00  0.00     0.013 A 
BRANCH  13  17
ATOM     17  O   UNL d   1      49.372  34.860  53.055  0.00  0.00    -0.328 OA
ATOM     18  C   UNL d   1      48.827  35.239  52.539  0.00  0.00     0.181 C 
ENDBRANCH  13  17
ENDBRANCH   8  11
ENDBRANCH   7   8
ENDBRANCH   3   7
BRANCH   1  19
ATOM     19  C   UNL d   1      53.657  31.524  54.455  0.00  0.00     0.265 C 
ATOM     20  N   UNL d   1      53.395  30.908  53.967  0.00  0.00    -0.268 N 
ATOM     21  C   UNL d   1      53.266  30.157  54.287  0.00  0.00     0.110 A 
ATOM     22  C   UNL d   1      53.263  31.046  53.169  0.00  0.00     0.110 A 
ATOM     23  C   UNL d   1      53.006  29.547  53.799  0.00  0.00     0.142 A 
ATOM     24  O   UNL d   1      52.874  29.686  53.000  0.00  0.00    -0.300 OA
ATOM     25  C   UNL d   1      53.000  30.429  52.676  0.00  0.00     0.142 A 
ATOM     26  O   UNL d   1      53.789  31.386  55.254  0.00  0.00    -0.267 OA
ENDBRANCH   1  19
TORSDOF 5
ENDMDL
MODEL 3
REMARK VINA RESULT:      -8.3      2.171      5.333
REMARK  5 active torsions:
REMARK  status: ('A' for Active; 'I' for Inactive)
REMARK    1  A    between atoms: N_3  and  S_1 
REMARK    2  A    between atoms: C_5  and  S_1 
REMARK    3  A    between atoms: C_2  and  C_6 
REMARK       I    between atoms: N_4  and  C_2 
REMARK    4  A    between atoms: C_11  and  N_3 
REMARK    5  A    between atoms: O_18  and  C_14 
ROOT
ATOM      1  C   UNL d   1      52.360  34.490  53.364  0.00  0.00     0.058 A 
ATOM      2  C   UNL d   1      51.575  34.267  53.458  0.00  0.00     0.025 A 
ATOM      3  C   UNL d   1      51.086  34.155  52.803  0.00  0.00     0.094 A 
ATOM      4  C   UNL d   1      52.666  34.606  52.596  0.00  0.00     0.005 A 
ATOM      5  C   UNL d   1      52.178  34.494  51.940  0.00  0.00     0.002 A 
ATOM      6  C   UNL d   1      51.390  34.270  52.037  0.00  0.00     0.020 A 
ENDROOT
BRANCH   3   7
ATOM      7  N   UNL d   1      50.302  33.931  52.898  0.00  0.00    -0.158 NA
BRANCH   7   8
ATOM      8  S   UNL d   1      49.693  34.456  52.729  0.00  0.00     0.285 S 
ATOM      9  O   UNL d   1      49.653  34.159  51.960  0.00  0.00    -0.198 OA
ATOM     10  O   UNL d   1      49.725  34.756  53.488  0.00  0.00    -0.198 OA
BRANCH   8  11
ATOM     11  C   UNL d   1      49.082  34.980  52.554  0.00  0.00     0.107 A 
ATOM     12  C   UNL d   1      48.811  35.512  53.133  0.00  0.00     0.037 A 
ATOM     13  C   UNL d   1      48.204  36.030  52.953  0.00  0.00     0.095 A 
ATOM     14  C   UNL d   1      47.862  36.024  52.204  0.00  0.00     0.024 A 
ATOM     15  C   UNL d   1      48.123  35.503  51.631  0.00  0.00     0.003 A 
ATOM     16  C   UNL d   1      48.735  34.979  51.806  0.00  0.00     0.013 A 
BRANCH  13  17
ATOM     17  O   UNL d   1      47.930  36.566  53.532  0.00  0.00    -0.328 OA
ATOM     18  C   UNL d   1      47.106  36.691  53.635  0.00  0.00     0.181 C 
ENDBRANCH  13  17
ENDBRANCH   8  11
ENDBRANCH   7   8
ENDBRANCH   3   7
BRANCH   1  19
ATOM     19  C   UNL d   1      52.840  34.600  54.022  0.00  0.00     0.265 C 
ATOM     20  N   UNL d   1      53.305  33.972  54.300  0.00  0.00    -0.268 N 
ATOM     21  C   UNL d   1      53.788  34.081  54.962  0.00  0.00     0.110 A 
ATOM     22  C   UNL d   1      53.283  33.246  53.918  0.00  0.00     0.110 A 
ATOM     23  C   UNL d   1      54.248  33.455  55.235  0.00  0.00     0.142 A 
ATOM     24  O   UNL d   1      54.226  32.729  54.852  0.00  0.00    -0.300 OA
ATOM     25  C   UNL d   1      53.749  32.615  54.195  0.00  0.00     0.142 A 
ATOM     26  O   UNL d   1      52.862  35.326  54.404  0.00  0.00    -0.267 OA
ENDBRANCH   1  19
TORSDOF 5
ENDMDL
MODEL 4
REMARK VINA RESULT:      -8.0      1.714      4.366
REMARK  5 active torsions:
REMARK  status: ('A' for Active; 'I' for Inactive)
REMARK    1  A    between atoms: N_3  and  S_1 
REMARK    2  A    between atoms: C_5  and  S_1 
REMARK    3  A    between atoms: C_2  and  C_6 
REMARK       I    between atoms: N_4  and  C_2 
REMARK    4  A    between atoms: C_11  and  N_3 
REMARK    5  A    between atoms: O_18  and  C_14 
ROOT
ATOM      1  C   UNL d   1      54.005  32.305  53.519  0.00  0.00     0.058 A 
ATOM      2  C   UNL d   1      53.428  32.585  53.006  0.00  0.00     0.025 A 
ATOM      3  C   UNL d   1      52.748  32.143  52.854  0.00  0.00     0.094 A 
ATOM      4  C   UNL d   1      53.902  31.564  53.892  0.00  0.00     0.005 A 
ATOM      5  C   UNL d   1      53.222  31.123  53.740  0.00  0.00     0.002 A 
ATOM      6  C   UNL d   1      52.643  31.406  53.224  0.00  0.00     0.020 A 
ENDROOT
BRANCH   3   7
ATOM      7  N   UNL d   1      52.171  32.424  52.341  0.00  0.00    -0.158 NA
BRANCH   7   8
ATOM      8  S   UNL d   1      51.672  33.036  52.566  0.00  0.00     0.285 S 
ATOM      9  O   UNL d   1      52.091  33.555  52.081  0.00  0.00    -0.198 OA
ATOM     10  O   UNL d   1      51.250  32.529  53.050  0.00  0.00    -0.198 OA
BRANCH   8  11
ATOM     11  C   UNL d   1      51.173  33.653  52.789  0.00  0.00     0.107 A 
ATOM     12  C   UNL d   1      50.489  33.817  52.346  0.00  0.00     0.037 A 
ATOM     13  C   UNL d   1      49.999  34.431  52.573  0.00  0.00     0.095 A 
ATOM     14  C   UNL d   1      50.181  34.884  53.236  0.00  0.00     0.024 A 
ATOM     15  C   UNL d   1      50.851  34.728  53.675  0.00  0.00     0.003 A 
ATOM     16  C   UNL d   1      51.349  34.111  53.452  0.00  0.00     0.013 A 
BRANCH  13  17
ATOM     17  O   UNL d   1      49.311  34.598  52.130  0.00  0.00    -0.328 OA
ATOM     18  C   UNL d   1      48.763  35.173  52.402  0.00  0.00     0.181 C 
ENDBRANCH  13  17
ENDBRANCH   8  11
ENDBRANCH   7   8
ENDBRANCH   3   7
BRANCH   1  19
ATOM     19  C   UNL d   1      54.680  32.751  53.666  0.00  0.00     0.265 C 
ATOM     20  N   UNL d   1      54.760  33.151  54.387  0.00  0.00    -0.268 N 
ATOM     21  C   UNL d   1      55.438  33.600  54.535  0.00  0.00     0.110 A 
ATOM     22  C   UNL d   1      54.166  33.100  54.951  0.00  0.00     0.110 A 
ATOM     23  C   UNL d   1      55.514  33.996  55.253  0.00  0.00     0.142 A 
ATOM     24  O   UNL d   1      54.919  33.944  55.817  0.00  0.00    -0.300 OA
ATOM     25  C   UNL d   1      54.244  33.501  55.676  0.00  0.00     0.142 A 
ATOM     26  O   UNL d   1      55.274  32.802  53.101  0.00  0.00    -0.267 OA
ENDBRANCH   1  19
TORSDOF 5
ENDMDL
MODEL 5
REMARK VINA RESULT:      -7.7      1.230      2.170
REMARK  5 active torsions:
REMARK  status: ('A' for Active; 'I' for Inactive)
REMARK    1  A    between atoms: N_3  and  S_1 
REMARK    2  A    between atoms: C_5  and  S_1 
REMARK    3  A    between atoms: C_2  and  C_6 
REMARK       I    between atoms: N_4  and  C_2 
REMARK    4  A    between atoms: C_11  and  N_3 
REMARK    5  A    between atoms: O_18  and  C_14 
ROOT
ATOM      1  C   UNL d   1      51.930  33.884  53.164  0.00  0.00     0.058 A 
ATOM      2  C   UNL d   1      52.229  33.219  52.786  0.00  0.00     0.025 A 
ATOM      3  C   UNL d   1      51.785  32.524  52.740  0.00  0.00     0.094 A 
ATOM      4  C   UNL d   1      51.168  33.857  53.506  0.00  0.00     0.005 A 
ATOM      5  C   UNL d   1      50.724  33.163  53.459  0.00  0.00     0.002 A 
ATOM      6  C   UNL d   1      51.026  32.496  53.079  0.00  0.00     0.020 A 
ENDROOT
BRANCH   3   7
ATOM      7  N   UNL d   1      52.085  31.860  52.361  0.00  0.00    -0.158 NA
BRANCH   7   8
ATOM      8  S   UNL d   1      52.555  31.323  52.767  0.00  0.00     0.285 S 
ATOM      9  O   UNL d   1      53.227  31.646  52.412  0.00  0.00    -0.198 OA
ATOM     10  O   UNL d   1      51.896  30.997  53.124  0.00  0.00    -0.198 OA
BRANCH   8  11
ATOM     11  C   UNL d   1      53.032  30.787  53.172  0.00  0.00     0.107 A 
ATOM     12  C   UNL d   1      52.691  30.129  53.549  0.00  0.00     0.037 A 
ATOM     13  C   UNL d   1      53.170  29.600  53.949  0.00  0.00     0.095 A 
ATOM     14  C   UNL d   1      53.984  29.718  53.979  0.00  0.00     0.024 A 
ATOM     15  C   UNL d   1      54.325  30.362  53.611  0.00  0.00     0.003 A 
ATOM     16  C   UNL d   1      53.848  30.899  53.206  0.00  0.00     0.013 A 
BRANCH  13  17
ATOM     17  O   UNL d   1      52.831  28.938  54.329  0.00  0.00    -0.328 OA
ATOM     18  C   UNL d   1      53.228  28.570  54.971  0.00  0.00     0.181 C 
ENDBRANCH  13  17
ENDBRANCH   8  11
ENDBRANCH   7   8
ENDBRANCH   3   7
BRANCH   1  19
ATOM     19  C   UNL d   1      52.379  34.572  53.206  0.00  0.00     0.265 C 
ATOM     20  N   UNL d   1      52.818  34.735  53.890  0.00  0.00    -0.268 N 
ATOM     21  C   UNL d   1      53.269  35.425  53.934  0.00  0.00     0.110 A 
ATOM     22  C   UNL d   1      52.803  34.210  54.521  0.00  0.00     0.110 A 
ATOM     23  C   UNL d   1      53.704  35.584  54.615  0.00  0.00     0.142 A 
ATOM     24  O   UNL d   1      53.688  35.058  55.245  0.00  0.00    -0.300 OA
ATOM     25  C   UNL d   1      53.243  34.371  55.209  0.00  0.00     0.142 A 
ATOM     26  O   UNL d   1      52.394  35.097  52.576  0.00  0.00    -0.267 OA
ENDBRANCH   1  19
TORSDOF 5
ENDMDL
MODEL 6
REMARK VINA RESULT:      -7.4      2.021      3.417
REMARK  5 active torsions:
REMARK  status: ('A' for Active; 'I' for Inactive)
REMARK    1  A    between atoms: N_3  and  S_1 
REMARK    2  A    between atoms: C_5  and  S_1 
REMARK    3  A    between atoms: C_2  and  C_6 
REMARK       I    between atoms: N_4  and  C_2 
REMARK    4  A    between atoms: C_11  and  N_3 
REMARK    5  A    between atoms: O_18  and  C_14 
ROOT
ATOM      1  C   UNL d   1      50.168  34.563  52.478  0.00  0.00     0.058 A 
ATOM      2  C   UNL d   1      50.444  33.996  53.004  0.00  0.00     0.025 A 
ATOM      3  C   UNL d   1      51.148  33.591  52.857  0.00  0.00     0.094 A 
ATOM      4  C   UNL d   1      50.604  34.732  51.786  0.00  0.00     0.005 A 
ATOM      5  C   UNL d   1      51.308  34.326  51.639  0.00  0.00     0.002 A 
ATOM      6  C   UNL d   1      51.584  33.757  52.168  0.00  0.00     0.020 A 
ENDROOT
BRANCH   3   7
ATOM      7  N   UNL d   1      51.423  33.024  53.383  0.00  0.00    -0.158 NA
BRANCH   7   8
ATOM      8  S   UNL d   1      52.216  32.996  53.593  0.00  0.00     0.285 S 
ATOM      9  O   UNL d   1      52.080  33.560  54.179  0.00  0.00    -0.198 OA
ATOM     10  O   UNL d   1      52.361  32.437  53.014  0.00  0.00    -0.198 OA
BRANCH   8  11
ATOM     11  C   UNL d   1      53.012  32.971  53.806  0.00  0.00     0.107 A 
ATOM     12  C   UNL d   1      53.317  33.529  54.341  0.00  0.00     0.037 A 
ATOM     13  C   UNL d   1      54.108  33.499  54.549  0.00  0.00     0.095 A 
ATOM     14  C   UNL d   1      54.598  32.920  54.230  0.00  0.00     0.024 A 
ATOM     15  C   UNL d   1      54.305  32.369  53.704  0.00  0.00     0.003 A 
ATOM     16  C   UNL d   1      53.509  32.394  53.490  0.00  0.00     0.013 A 
BRANCH  13  17
ATOM     17  O   UNL d   1      54.418  34.058  55.087  0.00  0.00    -0.328 OA
ATOM     18  C   UNL d   1      55.204  33.980  55.371  0.00  0.00     0.181 C 
ENDBRANCH  13  17
ENDBRANCH   8  11
ENDBRANCH   7   8
ENDBRANCH   3   7
BRANCH   1  19
ATOM     19  C   UNL d   1      49.466  34.963  52.631  0.00  0.00     0.265 C 
ATOM     20  N   UNL d   1      48.856  34.954  52.070  0.00  0.00    -0.268 N 
ATOM     21  C   UNL d   1      48.150  35.355  52.223  0.00  0.00     0.110 A 
ATOM     22  C   UNL d   1      48.956  34.547  51.364  0.00  0.00     0.110 A 
ATOM     23  C   UNL d   1      47.547  35.344  51.663  0.00  0.00     0.142 A 
ATOM     24  O   UNL d   1      47.648  34.936  50.957  0.00  0.00    -0.300 OA
ATOM     25  C   UNL d   1      48.346  34.536  50.798  0.00  0.00     0.142 A 
ATOM     26  O   UNL d   1      49.366  35.370  53.337  0.00  0.00    -0.267 OA
ENDBRANCH   1  19
TORSDOF 5
ENDMDL
