MODEL 1
REMARK VINA RESULT:      22.2      0.000      0.000
REMARK  2 active torsions:
REMARK  status: ('A' for Active; 'I' for Inactive)
REMARK    1  A    between atoms: C_8  and  N_1 
REMARK    2  A    between atoms: N_5  and  C_9 
ROOT
ATOM      1  N   UNL d   1      45.369 -15.153  44.336  0.00  0.00    -0.192 N 
ATOM      2  C   UNL d   1      45.883 -14.537  44.129  0.00  0.00     0.281 A 
ATOM      3  N   UNL d   1      44.636 -14.986  44.605  0.00  0.00    -0.120 NA
ATOM      4  C   UNL d   1      44.381 -14.203  44.681  0.00  0.00     0.296 A 
ATOM      5  C   UNL d   1      45.646 -13.751  44.199  0.00  0.00     0.063 A 
ATOM      6  C   UNL d   1      44.856 -13.573  44.489  0.00  0.00     0.064 A 
ATOM      7  O   UNL d   1      46.647 -14.697  43.849  0.00  0.00    -0.265 OA
ATOM      8  O   UNL d   1      43.636 -14.047  44.955  0.00  0.00    -0.264 OA
ATOM      9  C   UNL d   1      46.145 -13.132  43.998  0.00  0.00     0.005 A 
ATOM     10  C   UNL d   1      44.638 -12.793  44.552  0.00  0.00     0.005 A 
ATOM     11  C   UNL d   1      45.886 -12.342  44.076  0.00  0.00     0.000 A 
ATOM     12  C   UNL d   1      45.151 -12.170  44.345  0.00  0.00     0.000 A 
ENDROOT
BRANCH   1  13
ATOM     13  C   UNL d   1      45.596 -15.923  44.270  0.00  0.00     0.086 A 
ATOM     14  C   UNL d   1      45.824 -16.230  43.538  0.00  0.00     0.021 A 
ATOM     15  C   UNL d   1      46.058 -17.037  43.491  0.00  0.00     0.025 A 
ATOM     16  C   UNL d   1      46.054 -17.510  44.183  0.00  0.00     0.127 A 
ATOM     17  C   UNL d   1      45.824 -17.171  44.879  0.00  0.00     0.025 A 
ATOM     18  C   UNL d   1      45.594 -16.399  44.955  0.00  0.00     0.021 A 
BRANCH  16  19
ATOM     19  N   UNL d   1      46.287 -18.312  44.130  0.00  0.00    -0.114 N 
ATOM     20  O   UNL d   1      46.624 -18.657  44.784  0.00  0.00    -0.532 OA
ATOM     21  O   UNL d   1      46.194 -18.777  43.447  0.00  0.00    -0.532 OA
ENDBRANCH  16  19
ENDBRANCH   1  13
TORSDOF 2
ENDMDL
MODEL 2
REMARK VINA RESULT:      24.9      1.564      4.687
REMARK  2 active torsions:
REMARK  status: ('A' for Active; 'I' for Inactive)
REMARK    1  A    between atoms: C_8  and  N_1 
REMARK    2  A    between atoms: N_5  and  C_9 
ROOT
ATOM      1  N   UNL d   1      45.949 -17.418  43.794  0.00  0.00    -0.192 N 
ATOM      2  C   UNL d   1      45.681 -17.713  43.068  0.00  0.00     0.281 A 
ATOM      3  N   UNL d   1      46.258 -17.915  44.337  0.00  0.00    -0.120 NA
ATOM      4  C   UNL d   1      46.314 -18.726  44.184  0.00  0.00     0.296 A 
ATOM      5  C   UNL d   1      45.730 -18.519  42.899  0.00  0.00     0.063 A 
ATOM      6  C   UNL d   1      46.063 -19.053  43.485  0.00  0.00     0.064 A 
ATOM      7  O   UNL d   1      45.358 -17.207  42.496  0.00  0.00    -0.265 OA
ATOM      8  O   UNL d   1      46.629 -19.220  44.742  0.00  0.00    -0.264 OA
ATOM      9  C   UNL d   1      45.468 -18.825  42.184  0.00  0.00     0.005 A 
ATOM     10  C   UNL d   1      46.103 -19.843  43.303  0.00  0.00     0.005 A 
ATOM     11  C   UNL d   1      45.526 -19.643  42.032  0.00  0.00     0.000 A 
ATOM     12  C   UNL d   1      45.835 -20.146  42.574  0.00  0.00     0.000 A 
ENDROOT
BRANCH   1  13
ATOM     13  C   UNL d   1      45.903 -16.632  43.964  0.00  0.00     0.086 A 
ATOM     14  C   UNL d   1      45.849 -16.376  44.747  0.00  0.00     0.021 A 
ATOM     15  C   UNL d   1      45.803 -15.550  44.902  0.00  0.00     0.025 A 
ATOM     16  C   UNL d   1      45.812 -15.008  44.264  0.00  0.00     0.127 A 
ATOM     17  C   UNL d   1      45.866 -15.299  43.513  0.00  0.00     0.025 A 
ATOM     18  C   UNL d   1      45.912 -16.086  43.333  0.00  0.00     0.021 A 
BRANCH  16  19
ATOM     19  N   UNL d   1      45.766 -14.187  44.424  0.00  0.00    -0.114 N 
ATOM     20  O   UNL d   1      45.064 -13.808  44.277  0.00  0.00    -0.532 OA
ATOM     21  O   UNL d   1      46.397 -13.739  44.726  0.00  0.00    -0.532 OA
ENDBRANCH  16  19
ENDBRANCH   1  13
TORSDOF 2
ENDMDL
