MODEL 1
REMARK VINA RESULT:      41.9      0.000      0.000
REMARK  3 active torsions:
REMARK  status: ('A' for Active; 'I' for Inactive)
REMARK    1  A    between atoms: C_10  and  N_2 
REMARK       I    between atoms: N_3  and  C_6 
REMARK    2  A    between atoms: C_6  and  C_11 
REMARK    3  A    between atoms: C_11  and  C_10 
ROOT
ATOM      1  N   UNL d   1      13.469  13.271  -3.628  0.00  0.00    -0.275 N 
ATOM      2  C   UNL d   1      13.452  14.074  -3.816  0.00  0.00     0.067 A 
ATOM      3  C   UNL d   1      13.628  12.951  -2.889  0.00  0.00     0.266 C 
ATOM      4  C   UNL d   1      13.297  12.854  -4.321  0.00  0.00     0.067 A 
ATOM      5  C   UNL d   1      13.176  13.391  -4.923  0.00  0.00     0.018 A 
ATOM      6  C   UNL d   1      13.272  14.153  -4.611  0.00  0.00     0.019 A 
ATOM      7  O   UNL d   1      13.624  12.131  -2.788  0.00  0.00    -0.267 OA
ATOM      8  C   UNL d   1      13.594  14.702  -3.282  0.00  0.00     0.019 C 
ATOM      9  C   UNL d   1      13.236  12.043  -4.472  0.00  0.00     0.018 A 
ATOM     10  C   UNL d   1      12.995  13.145  -5.680  0.00  0.00     0.002 A 
ATOM     11  C   UNL d   1      13.055  11.780  -5.226  0.00  0.00     0.002 A 
ATOM     12  C   UNL d   1      12.931  12.326  -5.842  0.00  0.00     0.000 A 
ENDROOT
BRANCH   3  13
ATOM     13  C   UNL d   1      13.791  13.440  -2.246  0.00  0.00     0.080 C 
BRANCH  13  14
ATOM     14  C   UNL d   1      13.807  13.136  -1.483  0.00  0.00     0.088 C 
BRANCH  14  15
ATOM     15  N   UNL d   1      14.487  13.204  -1.023  0.00  0.00    -0.268 N 
ATOM     16  C   UNL d   1      14.934  12.583  -0.723  0.00  0.00     0.296 A 
ATOM     17  S   UNL d   1      15.580  12.938  -0.284  0.00  0.00    -0.025 SA
ATOM     18  O   UNL d   1      14.779  11.780  -0.831  0.00  0.00    -0.259 OA
ATOM     19  C   UNL d   1      15.502  13.726  -0.334  0.00  0.00     0.050 A 
ATOM     20  C   UNL d   1      15.971  14.330  -0.014  0.00  0.00     0.008 A 
ATOM     21  C   UNL d   1      14.837  13.913  -0.783  0.00  0.00     0.073 A 
ATOM     22  C   UNL d   1      15.771  15.125  -0.146  0.00  0.00     0.001 A 
ATOM     23  C   UNL d   1      15.103  15.301  -0.598  0.00  0.00     0.002 A 
ATOM     24  C   UNL d   1      14.637  14.694  -0.915  0.00  0.00     0.018 A 
ENDBRANCH  14  15
ENDBRANCH  13  14
ENDBRANCH   3  13
TORSDOF 3
ENDMDL
