MODEL 1
REMARK VINA RESULT:      49.2      0.000      0.000
REMARK  2 active torsions:
REMARK  status: ('A' for Active; 'I' for Inactive)
REMARK    1  A    between atoms: N_9  and  C_3 
REMARK    2  A    between atoms: C_11  and  C_5 
ROOT
ATOM      1  N   UNL d   1      58.660  49.620  50.977  0.00  0.00    -0.196 N 
ATOM      2  C   UNL d   1      59.092  49.649  51.678  0.00  0.00     0.167 A 
ATOM      3  C   UNL d   1      57.838  49.619  50.999  0.00  0.00     0.152 A 
ATOM      4  N   UNL d   1      59.192  49.596  50.356  0.00  0.00    -0.163 NA
ATOM      5  C   UNL d   1      59.891  49.643  51.490  0.00  0.00     0.055 A 
ATOM      6  C   UNL d   1      59.955  49.610  50.674  0.00  0.00     0.104 A 
ATOM      7  N   UNL d   1      58.702  49.678  52.402  0.00  0.00    -0.227 NA
ATOM      8  C   UNL d   1      57.440  49.648  51.727  0.00  0.00     0.057 A 
ATOM      9  C   UNL d   1      57.872  49.677  52.428  0.00  0.00     0.086 A 
ATOM     10  C   UNL d   1      60.660  49.595  50.245  0.00  0.00     0.023 C 
ATOM     11  C   UNL d   1      57.485  49.706  53.165  0.00  0.00     0.021 C 
ENDROOT
BRANCH   5  12
ATOM     12  C   UNL d   1      60.574  49.664  51.954  0.00  0.00     0.004 A 
ATOM     13  C   UNL d   1      61.319  49.667  51.591  0.00  0.00     0.000 A 
ATOM     14  C   UNL d   1      62.002  49.687  52.056  0.00  0.00     0.000 A 
ATOM     15  C   UNL d   1      61.944  49.704  52.878  0.00  0.00     0.000 A 
ATOM     16  C   UNL d   1      61.196  49.701  53.240  0.00  0.00     0.000 A 
ATOM     17  C   UNL d   1      60.516  49.681  52.777  0.00  0.00     0.000 A 
ENDBRANCH   5  12
BRANCH   3  18
ATOM     18  N   UNL d   1      57.405  49.590  50.297  0.00  0.00    -0.289 N 
ATOM     19  C   UNL d   1      57.736  49.486  49.550  0.00  0.00     0.082 A 
ATOM     20  C   UNL d   1      57.125  49.487  48.991  0.00  0.00     0.021 A 
ATOM     21  C   UNL d   1      56.418  49.592  49.404  0.00  0.00     0.021 A 
ATOM     22  C   UNL d   1      56.577  49.655  50.198  0.00  0.00     0.082 A 
ENDBRANCH   3  18
TORSDOF 2
ENDMDL
