MODEL 1
REMARK VINA RESULT:      -8.3      0.000      0.000
REMARK  1 active torsions:
REMARK  status: ('A' for Active; 'I' for Inactive)
REMARK    1  A    between atoms: C_9  and  C_3 
ROOT
ATOM      1  C   UNL d   1      52.998  33.643  53.846  0.00  0.00     0.171 A 
ATOM      2  N   UNL d   1      53.579  33.896  54.374  0.00  0.00    -0.212 N 
ATOM      3  C   UNL d   1      52.412  34.168  53.592  0.00  0.00     0.121 A 
ATOM      4  N   UNL d   1      53.574  34.674  54.648  0.00  0.00    -0.162 NA
ATOM      5  N   UNL d   1      53.000  32.867  53.570  0.00  0.00    -0.226 NA
ATOM      6  C   UNL d   1      54.162  33.373  54.627  0.00  0.00     0.086 A 
ATOM      7  C   UNL d   1      52.988  35.199  54.394  0.00  0.00     0.130 A 
ATOM      8  C   UNL d   1      54.167  32.595  54.352  0.00  0.00     0.038 A 
ATOM      9  C   UNL d   1      53.586  32.342  53.824  0.00  0.00     0.085 A 
ATOM     10  C   UNL d   1      54.743  33.627  55.155  0.00  0.00     0.021 C 
ATOM     11  C   UNL d   1      53.591  31.564  53.550  0.00  0.00     0.021 C 
ENDROOT
BRANCH   3  12
ATOM     12  C   UNL d   1      51.763  34.111  53.083  0.00  0.00     0.215 C 
ATOM     13  O   UNL d   1      51.843  34.340  52.293  0.00  0.00    -0.644 OA
ATOM     14  O   UNL d   1      51.040  33.826  53.362  0.00  0.00    -0.644 OA
ENDBRANCH   3  12
TORSDOF 1
ENDMDL
MODEL 2
REMARK VINA RESULT:      -8.2      1.605      3.037
REMARK  1 active torsions:
REMARK  status: ('A' for Active; 'I' for Inactive)
REMARK    1  A    between atoms: C_9  and  C_3 
ROOT
ATOM      1  C   UNL d   1      53.083  33.476  53.695  0.00  0.00     0.171 A 
ATOM      2  N   UNL d   1      52.491  33.427  53.122  0.00  0.00    -0.212 N 
ATOM      3  C   UNL d   1      53.533  32.808  53.884  0.00  0.00     0.121 A 
ATOM      4  N   UNL d   1      52.349  32.711  52.738  0.00  0.00    -0.162 NA
ATOM      5  N   UNL d   1      53.228  34.188  54.080  0.00  0.00    -0.226 NA
ATOM      6  C   UNL d   1      52.043  34.091  52.935  0.00  0.00     0.086 A 
ATOM      7  C   UNL d   1      52.799  32.043  52.927  0.00  0.00     0.130 A 
ATOM      8  C   UNL d   1      52.186  34.807  53.319  0.00  0.00     0.038 A 
ATOM      9  C   UNL d   1      52.778  34.856  53.891  0.00  0.00     0.085 A 
ATOM     10  C   UNL d   1      51.452  34.042  52.362  0.00  0.00     0.021 C 
ATOM     11  C   UNL d   1      52.920  35.572  54.276  0.00  0.00     0.021 C 
ENDROOT
BRANCH   3  12
ATOM     12  C   UNL d   1      54.151  32.655  54.410  0.00  0.00     0.215 C 
ATOM     13  O   UNL d   1      54.932  32.775  54.169  0.00  0.00    -0.644 OA
ATOM     14  O   UNL d   1      53.989  32.383  55.173  0.00  0.00    -0.644 OA
ENDBRANCH   3  12
TORSDOF 1
ENDMDL
MODEL 3
REMARK VINA RESULT:      -8.1      1.755      2.491
REMARK  1 active torsions:
REMARK  status: ('A' for Active; 'I' for Inactive)
REMARK    1  A    between atoms: C_9  and  C_3 
ROOT
ATOM      1  C   UNL d   1      53.277  33.295  53.967  0.00  0.00     0.171 A 
ATOM      2  N   UNL d   1      52.694  33.781  53.643  0.00  0.00    -0.212 N 
ATOM      3  C   UNL d   1      53.799  33.597  54.533  0.00  0.00     0.121 A 
ATOM      4  N   UNL d   1      52.633  34.567  53.883  0.00  0.00    -0.162 NA
ATOM      5  N   UNL d   1      53.340  32.510  53.730  0.00  0.00    -0.226 NA
ATOM      6  C   UNL d   1      52.174  33.480  53.080  0.00  0.00     0.086 A 
ATOM      7  C   UNL d   1      53.156  34.869  54.448  0.00  0.00     0.130 A 
ATOM      8  C   UNL d   1      52.235  32.693  52.840  0.00  0.00     0.038 A 
ATOM      9  C   UNL d   1      52.817  32.208  53.165  0.00  0.00     0.085 A 
ATOM     10  C   UNL d   1      51.591  33.965  52.755  0.00  0.00     0.021 C 
ATOM     11  C   UNL d   1      52.878  31.421  52.924  0.00  0.00     0.021 C 
ENDROOT
BRANCH   3  12
ATOM     12  C   UNL d   1      54.431  33.284  54.964  0.00  0.00     0.215 C 
ATOM     13  O   UNL d   1      54.283  32.873  55.665  0.00  0.00    -0.644 OA
ATOM     14  O   UNL d   1      55.206  33.383  54.697  0.00  0.00    -0.644 OA
ENDBRANCH   3  12
TORSDOF 1
ENDMDL
MODEL 4
REMARK VINA RESULT:      -7.9      1.330      2.008
REMARK  1 active torsions:
REMARK  status: ('A' for Active; 'I' for Inactive)
REMARK    1  A    between atoms: C_9  and  C_3 
ROOT
ATOM      1  C   UNL d   1      52.838  33.331  53.663  0.00  0.00     0.171 A 
ATOM      2  N   UNL d   1      52.701  34.143  53.713  0.00  0.00    -0.212 N 
ATOM      3  C   UNL d   1      52.420  32.874  53.115  0.00  0.00     0.121 A 
ATOM      4  N   UNL d   1      52.148  34.498  53.215  0.00  0.00    -0.162 NA
ATOM      5  N   UNL d   1      53.389  32.973  54.158  0.00  0.00    -0.226 NA
ATOM      6  C   UNL d   1      53.116  34.598  54.259  0.00  0.00     0.086 A 
ATOM      7  C   UNL d   1      51.730  34.041  52.666  0.00  0.00     0.130 A 
ATOM      8  C   UNL d   1      53.669  34.243  54.757  0.00  0.00     0.038 A 
ATOM      9  C   UNL d   1      53.806  33.431  54.707  0.00  0.00     0.085 A 
ATOM     10  C   UNL d   1      52.980  35.410  54.309  0.00  0.00     0.021 C 
ATOM     11  C   UNL d   1      54.359  33.075  55.205  0.00  0.00     0.021 C 
ENDROOT
BRANCH   3  12
ATOM     12  C   UNL d   1      52.412  32.072  52.915  0.00  0.00     0.215 C 
ATOM     13  O   UNL d   1      51.871  31.565  53.280  0.00  0.00    -0.644 OA
ATOM     14  O   UNL d   1      52.942  31.778  52.353  0.00  0.00    -0.644 OA
ENDBRANCH   3  12
TORSDOF 1
ENDMDL
MODEL 5
REMARK VINA RESULT:      -7.8      1.211      2.076
REMARK  1 active torsions:
REMARK  status: ('A' for Active; 'I' for Inactive)
REMARK    1  A    between atoms: C_9  and  C_3 
ROOT
ATOM      1  C   UNL d   1      53.251  34.129  54.115  0.00  0.00     0.171 A 
ATOM      2  N   UNL d   1      53.064  33.466  53.662  0.00  0.00    -0.212 N 
ATOM      3  C   UNL d   1      52.863  34.847  53.978  0.00  0.00     0.121 A 
ATOM      4  N   UNL d   1      52.490  33.519  53.072  0.00  0.00    -0.162 NA
ATOM      5  N   UNL d   1      53.823  34.079  54.705  0.00  0.00    -0.226 NA
ATOM      6  C   UNL d   1      53.449  32.752  53.799  0.00  0.00     0.086 A 
ATOM      7  C   UNL d   1      52.103  34.237  52.935  0.00  0.00     0.130 A 
ATOM      8  C   UNL d   1      54.023  32.698  54.389  0.00  0.00     0.038 A 
ATOM      9  C   UNL d   1      54.210  33.362  54.842  0.00  0.00     0.085 A 
ATOM     10  C   UNL d   1      53.263  32.088  53.346  0.00  0.00     0.021 C 
ATOM     11  C   UNL d   1      54.784  33.308  55.433  0.00  0.00     0.021 C 
ENDROOT
BRANCH   3  12
ATOM     12  C   UNL d   1      52.905  35.602  54.312  0.00  0.00     0.215 C 
ATOM     13  O   UNL d   1      52.337  35.836  54.864  0.00  0.00    -0.644 OA
ATOM     14  O   UNL d   1      53.512  36.119  54.096  0.00  0.00    -0.644 OA
ENDBRANCH   3  12
TORSDOF 1
ENDMDL
MODEL 6
REMARK VINA RESULT:      -7.7      1.413      2.350
REMARK  1 active torsions:
REMARK  status: ('A' for Active; 'I' for Inactive)
REMARK    1  A    between atoms: C_9  and  C_3 
ROOT
ATOM      1  C   UNL d   1      53.133  33.662  54.017  0.00  0.00     0.171 A 
ATOM      2  N   UNL d   1      53.402  32.887  53.930  0.00  0.00    -0.212 N 
ATOM      3  C   UNL d   1      53.492  34.166  54.566  0.00  0.00     0.121 A 
ATOM      4  N   UNL d   1      54.029  32.615  54.392  0.00  0.00    -0.162 NA
ATOM      5  N   UNL d   1      52.508  33.937  53.558  0.00  0.00    -0.226 NA
ATOM      6  C   UNL d   1      53.045  32.386  53.383  0.00  0.00     0.086 A 
ATOM      7  C   UNL d   1      54.388  33.119  54.941  0.00  0.00     0.130 A 
ATOM      8  C   UNL d   1      52.418  32.658  52.921  0.00  0.00     0.038 A 
ATOM      9  C   UNL d   1      52.149  33.433  53.008  0.00  0.00     0.085 A 
ATOM     10  C   UNL d   1      53.314  31.611  53.297  0.00  0.00     0.021 C 
ATOM     11  C   UNL d   1      51.523  33.705  52.546  0.00  0.00     0.021 C 
ENDROOT
BRANCH   3  12
ATOM     12  C   UNL d   1      53.374  34.951  54.797  0.00  0.00     0.215 C 
ATOM     13  O   UNL d   1      52.939  35.115  55.479  0.00  0.00    -0.644 OA
ATOM     14  O   UNL d   1      53.689  35.568  54.347  0.00  0.00    -0.644 OA
ENDBRANCH   3  12
TORSDOF 1
ENDMDL
