MODEL 1
REMARK VINA RESULT:      53.9      0.000      0.000
REMARK  5 active torsions:
REMARK  status: ('A' for Active; 'I' for Inactive)
REMARK    1  A    between atoms: N_2  and  S_1 
REMARK    2  A    between atoms: C_7  and  S_1 
REMARK    3  A    between atoms: C_3  and  N_2 
REMARK       I    between atoms: C_11  and  N_12 
REMARK    4  A    between atoms: C_19  and  C_11 
REMARK    5  A    between atoms: N_12  and  C_16 
ROOT
ATOM      1  C   UNL d   1     -54.775-101.209 -42.257  0.00  0.00     0.105 A 
ATOM      2  C   UNL d   1     -54.804-102.034 -42.348  0.00  0.00     0.015 A 
ATOM      3  C   UNL d   1     -54.775-100.868 -41.537  0.00  0.00     0.015 A 
ATOM      4  C   UNL d   1     -54.833-102.189 -40.954  0.00  0.00     0.085 A 
ATOM      5  C   UNL d   1     -54.832-102.514 -41.693  0.00  0.00     0.020 A 
ATOM      6  C   UNL d   1     -54.805-101.363 -40.865  0.00  0.00     0.020 A 
ENDROOT
BRANCH   1   7
ATOM      7  S   UNL d   1     -54.746-100.721 -42.942  0.00  0.00     0.287 S 
ATOM      8  O   UNL d   1     -54.770-100.021 -42.457  0.00  0.00    -0.198 OA
ATOM      9  O   UNL d   1     -54.722-101.394 -43.417  0.00  0.00    -0.198 OA
BRANCH   7  10
ATOM     10  N   UNL d   1     -54.716-100.242 -43.623  0.00  0.00    -0.137 NA
BRANCH  10  11
ATOM     11  C   UNL d   1     -55.387 -99.805 -43.859  0.00  0.00     0.203 A 
ATOM     12  N   UNL d   1     -55.475 -99.039 -43.591  0.00  0.00    -0.106 NA
ATOM     13  O   UNL d   1     -56.187 -98.760 -43.920  0.00  0.00    -0.210 OA
ATOM     14  C   UNL d   1     -56.516 -99.349 -44.373  0.00  0.00     0.128 A 
ATOM     15  C   UNL d   1     -56.012-100.017 -44.339  0.00  0.00     0.069 A 
ATOM     16  C   UNL d   1     -57.221 -99.299 -44.794  0.00  0.00     0.029 C 
ENDBRANCH  10  11
ENDBRANCH   7  10
ENDBRANCH   1   7
BRANCH   4  17
ATOM     17  N   UNL d   1     -54.863-102.675 -40.277  0.00  0.00    -0.208 NA
ATOM     18  C   UNL d   1     -54.801-102.346 -39.531  0.00  0.00     0.279 C 
ATOM     19  O   UNL d   1     -54.830-102.829 -38.860  0.00  0.00    -0.265 OA
BRANCH  18  20
ATOM     20  C   UNL d   1     -54.711-101.538 -39.454  0.00  0.00     0.062 C 
ATOM     21  C   UNL d   1     -54.938-101.149 -38.742  0.00  0.00     0.005 C 
ENDBRANCH  18  20
ENDBRANCH   4  17
TORSDOF 5
ENDMDL
