MODEL 1
REMARK VINA RESULT:      30.0      0.000      0.000
REMARK  2 active torsions:
REMARK  status: ('A' for Active; 'I' for Inactive)
REMARK    1  A    between atoms: C_9  and  C_4 
REMARK    2  A    between atoms: N_6  and  C_8 
ROOT
ATOM      1  N   UNL d   1      13.224  12.227  -2.070  0.00  0.00    -0.211 NA
ATOM      2  C   UNL d   1      13.427  12.156  -1.274  0.00  0.00     0.140 A 
ATOM      3  C   UNL d   1      14.210  12.244  -1.048  0.00  0.00     0.051 A 
ATOM      4  C   UNL d   1      13.801  12.385  -2.635  0.00  0.00     0.183 A 
ATOM      5  C   UNL d   1      14.798  12.403  -1.608  0.00  0.00     0.104 A 
ATOM      6  O   UNL d   1      14.591  12.474  -2.413  0.00  0.00    -0.289 OA
ATOM      7  S   UNL d   1      12.848  11.999  -0.711  0.00  0.00    -0.057 SA
ATOM      8  C   UNL d   1      14.417  12.174  -0.253  0.00  0.00     0.004 A 
ATOM      9  C   UNL d   1      15.581  12.491  -1.383  0.00  0.00     0.025 A 
ATOM     10  C   UNL d   1      15.205  12.262  -0.016  0.00  0.00     0.000 A 
ATOM     11  C   UNL d   1      15.782  12.419  -0.582  0.00  0.00     0.002 A 
ENDROOT
BRANCH   4  12
ATOM     12  C   UNL d   1      13.588  12.454  -3.433  0.00  0.00     0.041 A 
ATOM     13  C   UNL d   1      13.654  11.791  -3.926  0.00  0.00     0.005 A 
ATOM     14  C   UNL d   1      13.442  11.860  -4.718  0.00  0.00     0.024 A 
ATOM     15  C   UNL d   1      13.167  12.578  -5.022  0.00  0.00     0.127 A 
ATOM     16  C   UNL d   1      13.104  13.237  -4.517  0.00  0.00     0.024 A 
ATOM     17  C   UNL d   1      13.316  13.170  -3.724  0.00  0.00     0.005 A 
BRANCH  15  18
ATOM     18  N   UNL d   1      12.957  12.638  -5.818  0.00  0.00    -0.114 N 
ATOM     19  O   UNL d   1      12.931  13.373  -6.188  0.00  0.00    -0.532 OA
ATOM     20  O   UNL d   1      12.770  11.958  -6.250  0.00  0.00    -0.532 OA
ENDBRANCH  15  18
ENDBRANCH   4  12
TORSDOF 2
ENDMDL
