MODEL 1
REMARK VINA RESULT:      -6.4      0.000      0.000
REMARK  4 active torsions:
REMARK  status: ('A' for Active; 'I' for Inactive)
REMARK    1  A    between atoms: C_8  and  C_1 
REMARK    2  A    between atoms: S_4  and  N_7 
REMARK    3  A    between atoms: C_14  and  S_4 
REMARK    4  A    between atoms: N_7  and  C_13 
ROOT
ATOM      1  C   UNL d   1     -41.580-123.095 -52.090  0.00  0.00     0.025 A 
ATOM      2  C   UNL d   1     -41.738-122.439 -52.555  0.00  0.00     0.022 A 
ATOM      3  C   UNL d   1     -41.593-122.456 -53.363  0.00  0.00     0.094 A 
ATOM      4  C   UNL d   1     -41.272-123.788 -52.424  0.00  0.00     0.002 A 
ATOM      5  C   UNL d   1     -41.124-123.816 -53.228  0.00  0.00     0.002 A 
ATOM      6  C   UNL d   1     -41.286-123.143 -53.701  0.00  0.00     0.020 A 
ENDROOT
BRANCH   1   7
ATOM      7  C   UNL d   1     -41.728-123.073 -51.274  0.00  0.00     0.112 A 
ATOM      8  S   UNL d   1     -41.157-122.957 -50.677  0.00  0.00    -0.047 SA
ATOM      9  C   UNL d   1     -41.535-122.974 -49.934  0.00  0.00     0.130 A 
ATOM     10  N   UNL d   1     -41.268-122.894 -49.165  0.00  0.00    -0.236 NA
ATOM     11  C   UNL d   1     -42.351-123.102 -50.079  0.00  0.00     0.106 A 
ATOM     12  C   UNL d   1     -41.793-122.938 -48.536  0.00  0.00     0.100 A 
ATOM     13  C   UNL d   1     -42.597-123.064 -48.671  0.00  0.00     0.022 A 
ATOM     14  C   UNL d   1     -42.877-123.146 -49.439  0.00  0.00     0.023 A 
ATOM     15  N   UNL d   1     -42.469-123.163 -50.900  0.00  0.00    -0.237 NA
ENDBRANCH   1   7
BRANCH   3  16
ATOM     16  N   UNL d   1     -41.750-121.802 -53.831  0.00  0.00    -0.158 NA
BRANCH  16  17
ATOM     17  S   UNL d   1     -42.107-121.898 -54.568  0.00  0.00     0.286 S 
ATOM     18  O   UNL d   1     -42.855-121.854 -54.213  0.00  0.00    -0.198 OA
ATOM     19  O   UNL d   1     -41.364-121.942 -54.923  0.00  0.00    -0.198 OA
BRANCH  17  20
ATOM     20  C   UNL d   1     -42.457-121.994 -55.304  0.00  0.00     0.117 C 
ATOM     21  C   UNL d   1     -42.148-121.604 -55.965  0.00  0.00     0.014 C 
ENDBRANCH  17  20
ENDBRANCH  16  17
ENDBRANCH   3  16
TORSDOF 4
ENDMDL
MODEL 2
REMARK VINA RESULT:      -5.6      1.850      4.676
REMARK  4 active torsions:
REMARK  status: ('A' for Active; 'I' for Inactive)
REMARK    1  A    between atoms: C_8  and  C_1 
REMARK    2  A    between atoms: S_4  and  N_7 
REMARK    3  A    between atoms: C_14  and  S_4 
REMARK    4  A    between atoms: N_7  and  C_13 
ROOT
ATOM      1  C   UNL d   1     -41.464-122.318 -51.968  0.00  0.00     0.025 A 
ATOM      2  C   UNL d   1     -41.677-122.963 -51.510  0.00  0.00     0.022 A 
ATOM      3  C   UNL d   1     -41.619-122.930 -50.691  0.00  0.00     0.094 A 
ATOM      4  C   UNL d   1     -41.187-121.621 -51.617  0.00  0.00     0.002 A 
ATOM      5  C   UNL d   1     -41.125-121.577 -50.802  0.00  0.00     0.002 A 
ATOM      6  C   UNL d   1     -41.344-122.239 -50.336  0.00  0.00     0.020 A 
ENDROOT
BRANCH   1   7
ATOM      7  C   UNL d   1     -41.524-122.356 -52.794  0.00  0.00     0.112 A 
ATOM      8  S   UNL d   1     -41.135-122.904 -53.287  0.00  0.00    -0.047 SA
ATOM      9  C   UNL d   1     -41.345-122.751 -54.080  0.00  0.00     0.130 A 
ATOM     10  N   UNL d   1     -41.143-123.098 -54.793  0.00  0.00    -0.236 NA
ATOM     11  C   UNL d   1     -41.870-122.098 -54.071  0.00  0.00     0.106 A 
ATOM     12  C   UNL d   1     -41.450-122.811 -55.497  0.00  0.00     0.100 A 
ATOM     13  C   UNL d   1     -41.967-122.169 -55.496  0.00  0.00     0.022 A 
ATOM     14  C   UNL d   1     -42.178-121.812 -54.786  0.00  0.00     0.023 A 
ATOM     15  N   UNL d   1     -41.980-121.855 -53.283  0.00  0.00    -0.237 NA
ENDBRANCH   1   7
BRANCH   3  16
ATOM     16  N   UNL d   1     -41.831-123.573 -50.229  0.00  0.00    -0.158 NA
BRANCH  16  17
ATOM     17  S   UNL d   1     -42.309-123.465 -49.566  0.00  0.00     0.286 S 
ATOM     18  O   UNL d   1     -41.638-123.458 -49.081  0.00  0.00    -0.198 OA
ATOM     19  O   UNL d   1     -42.979-123.471 -50.047  0.00  0.00    -0.198 OA
BRANCH  17  20
ATOM     20  C   UNL d   1     -42.790-123.357 -48.910  0.00  0.00     0.117 C 
ATOM     21  C   UNL d   1     -42.669-123.808 -48.227  0.00  0.00     0.014 C 
ENDBRANCH  17  20
ENDBRANCH  16  17
ENDBRANCH   3  16
TORSDOF 4
ENDMDL
