MODEL 1
REMARK VINA RESULT:      -3.9      0.000      0.000
REMARK  10 active torsions:
REMARK  status: ('A' for Active; 'I' for Inactive)
REMARK       I    between atoms: N_8  and  C_1 
REMARK    1  A    between atoms: C_11  and  C_1 
REMARK    2  A    between atoms: C_2  and  C_12 
REMARK       I    between atoms: N_7  and  C_2 
REMARK    3  A    between atoms: C_3  and  C_19 
REMARK    4  A    between atoms: C_4  and  C_20 
REMARK    5  A    between atoms: C_19  and  N_7 
REMARK    6  A    between atoms: C_20  and  N_8 
REMARK    7  A    between atoms: C_23  and  C_11 
REMARK    8  A    between atoms: C_12  and  C_22 
REMARK    9  A    between atoms: S_21  and  C_23 
REMARK   10  A    between atoms: C_22  and  S_21 
ROOT
ATOM      1  S   UNL d   1      58.120   0.233  30.624  0.00  0.00    -0.086 SA
ENDROOT
BRANCH   1   2
ATOM      2  C   UNL d   1      57.305   0.320  30.806  0.00  0.00     0.040 C 
BRANCH   2   3
ATOM      3  C   UNL d   1      57.056   0.307  31.605  0.00  0.00     0.070 C 
BRANCH   3   4
ATOM      4  C   UNL d   1      56.635  -0.370  31.888  0.00  0.00     0.280 C 
ATOM      5  N   UNL d   1      56.118  -0.287  32.573  0.00  0.00    -0.204 NA
ATOM      6  O   UNL d   1      56.717  -1.115  31.510  0.00  0.00    -0.265 OA
BRANCH   5   7
ATOM      7  C   UNL d   1      56.033   0.435  32.948  0.00  0.00     0.127 C 
BRANCH   7   8
ATOM      8  C   UNL d   1      55.528   0.522  33.593  0.00  0.00     0.119 A 
ATOM      9  O   UNL d   1      55.873   0.606  34.369  0.00  0.00    -0.304 OA
ATOM     10  C   UNL d   1      55.227   0.682  34.893  0.00  0.00     0.123 A 
ATOM     11  C   UNL d   1      54.525   0.649  34.496  0.00  0.00     0.029 A 
ATOM     12  C   UNL d   1      54.718   0.548  33.679  0.00  0.00     0.028 A 
ENDBRANCH   7   8
ENDBRANCH   5   7
ENDBRANCH   3   4
ENDBRANCH   2   3
ENDBRANCH   1   2
BRANCH   1  13
ATOM     13  C   UNL d   1      58.401   0.569  29.903  0.00  0.00     0.040 C 
BRANCH  13  14
ATOM     14  C   UNL d   1      58.506   0.072  29.220  0.00  0.00     0.070 C 
BRANCH  14  15
ATOM     15  C   UNL d   1      59.260  -0.203  29.042  0.00  0.00     0.280 C 
ATOM     16  N   UNL d   1      59.376  -1.052  28.916  0.00  0.00    -0.204 NA
ATOM     17  O   UNL d   1      59.919   0.308  28.978  0.00  0.00    -0.265 OA
BRANCH  16  18
ATOM     18  C   UNL d   1      60.121  -1.308  28.742  0.00  0.00     0.127 C 
BRANCH  18  19
ATOM     19  C   UNL d   1      60.361  -2.097  28.905  0.00  0.00     0.119 A 
ATOM     20  O   UNL d   1      59.872  -2.762  28.929  0.00  0.00    -0.304 OA
ATOM     21  C   UNL d   1      60.376  -3.435  29.117  0.00  0.00     0.123 A 
ATOM     22  C   UNL d   1      61.115  -3.141  29.192  0.00  0.00     0.029 A 
ATOM     23  C   UNL d   1      61.117  -2.355  29.069  0.00  0.00     0.028 A 
ENDBRANCH  18  19
ENDBRANCH  16  18
ENDBRANCH  14  15
ENDBRANCH  13  14
ENDBRANCH   1  13
TORSDOF 10
ENDMDL
MODEL 2
REMARK VINA RESULT:      -3.9      1.074      6.261
REMARK  10 active torsions:
REMARK  status: ('A' for Active; 'I' for Inactive)
REMARK       I    between atoms: N_8  and  C_1 
REMARK    1  A    between atoms: C_11  and  C_1 
REMARK    2  A    between atoms: C_2  and  C_12 
REMARK       I    between atoms: N_7  and  C_2 
REMARK    3  A    between atoms: C_3  and  C_19 
REMARK    4  A    between atoms: C_4  and  C_20 
REMARK    5  A    between atoms: C_19  and  N_7 
REMARK    6  A    between atoms: C_20  and  N_8 
REMARK    7  A    between atoms: C_23  and  C_11 
REMARK    8  A    between atoms: C_12  and  C_22 
REMARK    9  A    between atoms: S_21  and  C_23 
REMARK   10  A    between atoms: C_22  and  S_21 
ROOT
ATOM      1  S   UNL d   1      58.258   0.193  30.167  0.00  0.00    -0.086 SA
ENDROOT
BRANCH   1   2
ATOM      2  C   UNL d   1      58.153  -0.566  29.823  0.00  0.00     0.040 C 
BRANCH   2   3
ATOM      3  C   UNL d   1      58.762  -0.893  29.351  0.00  0.00     0.070 C 
BRANCH   3   4
ATOM      4  C   UNL d   1      58.558  -1.478  28.775  0.00  0.00     0.280 C 
ATOM      5  N   UNL d   1      59.162  -2.035  28.511  0.00  0.00    -0.204 NA
ATOM      6  O   UNL d   1      57.781  -1.521  28.463  0.00  0.00    -0.265 OA
BRANCH   5   7
ATOM      7  C   UNL d   1      59.922  -2.001  28.810  0.00  0.00     0.127 C 
BRANCH   7   8
ATOM      8  C   UNL d   1      60.364  -2.686  28.928  0.00  0.00     0.119 A 
ATOM      9  O   UNL d   1      60.733  -2.805  29.689  0.00  0.00    -0.304 OA
ATOM     10  C   UNL d   1      61.131  -3.537  29.632  0.00  0.00     0.123 A 
ATOM     11  C   UNL d   1      61.033  -3.865  28.900  0.00  0.00     0.029 A 
ATOM     12  C   UNL d   1      60.550  -3.328  28.461  0.00  0.00     0.028 A 
ENDBRANCH   7   8
ENDBRANCH   5   7
ENDBRANCH   3   4
ENDBRANCH   2   3
ENDBRANCH   1   2
BRANCH   1  13
ATOM     13  C   UNL d   1      58.171   0.262  31.003  0.00  0.00     0.040 C 
BRANCH  13  14
ATOM     14  C   UNL d   1      57.393   0.348  31.340  0.00  0.00     0.070 C 
BRANCH  14  15
ATOM     15  C   UNL d   1      57.318   0.403  32.157  0.00  0.00     0.280 C 
ATOM     16  N   UNL d   1      56.536   0.557  32.495  0.00  0.00    -0.204 NA
ATOM     17  O   UNL d   1      57.971   0.317  32.673  0.00  0.00    -0.265 OA
BRANCH  16  18
ATOM     18  C   UNL d   1      56.478   0.609  33.298  0.00  0.00     0.127 C 
BRANCH  18  19
ATOM     19  C   UNL d   1      55.730   0.625  33.682  0.00  0.00     0.119 A 
ATOM     20  O   UNL d   1      54.991   0.585  33.314  0.00  0.00    -0.304 OA
ATOM     21  C   UNL d   1      54.400   0.621  33.940  0.00  0.00     0.123 A 
ATOM     22  C   UNL d   1      54.809   0.679  34.624  0.00  0.00     0.029 A 
ATOM     23  C   UNL d   1      55.591   0.682  34.483  0.00  0.00     0.028 A 
ENDBRANCH  18  19
ENDBRANCH  16  18
ENDBRANCH  14  15
ENDBRANCH  13  14
ENDBRANCH   1  13
TORSDOF 10
ENDMDL
