MODEL 1
REMARK VINA RESULT:      -5.1      0.000      0.000
REMARK  4 active torsions:
REMARK  status: ('A' for Active; 'I' for Inactive)
REMARK    1  A    between atoms: N_14  and  S_1 
REMARK    2  A    between atoms: C_5  and  C_17 
REMARK    3  A    between atoms: C_18  and  N_14 
REMARK    4  A    between atoms: C_17  and  C_18 
ROOT
ATOM      1  N   UNL d   1     -41.290-121.591 -52.258  0.00  0.00    -0.208 NA
ATOM      2  C   UNL d   1     -41.214-121.842 -51.471  0.00  0.00     0.279 A 
ATOM      3  C   UNL d   1     -41.351-122.149 -52.872  0.00  0.00     0.085 A 
ATOM      4  C   UNL d   1     -41.199-122.649 -51.295  0.00  0.00     0.059 A 
ATOM      5  C   UNL d   1     -41.259-123.210 -51.906  0.00  0.00     0.006 A 
ATOM      6  C   UNL d   1     -41.334-122.954 -52.689  0.00  0.00     0.018 A 
ATOM      7  C   UNL d   1     -41.426-121.897 -53.654  0.00  0.00     0.019 A 
ATOM      8  C   UNL d   1     -41.394-123.513 -53.303  0.00  0.00     0.002 A 
ATOM      9  C   UNL d   1     -41.486-122.454 -54.261  0.00  0.00     0.002 A 
ATOM     10  C   UNL d   1     -41.470-123.261 -54.085  0.00  0.00     0.000 A 
ATOM     11  O   UNL d   1     -41.155-121.285 -50.864  0.00  0.00    -0.265 OA
ATOM     12  C   UNL d   1     -41.529-123.817 -54.691  0.00  0.00     0.000 C 
ATOM     13  C   UNL d   1     -41.561-122.202 -55.043  0.00  0.00     0.000 C 
ENDROOT
BRANCH   4  14
ATOM     14  C   UNL d   1     -41.123-122.901 -50.513  0.00  0.00     0.026 C 
BRANCH  14  15
ATOM     15  C   UNL d   1     -41.759-123.271 -50.138  0.00  0.00     0.112 C 
BRANCH  15  16
ATOM     16  N   UNL d   1     -41.633-123.696 -49.443  0.00  0.00    -0.160 NA
BRANCH  16  17
ATOM     17  S   UNL d   1     -42.234-123.743 -48.868  0.00  0.00     0.266 S 
ATOM     18  O   UNL d   1     -41.521-123.745 -48.444  0.00  0.00    -0.203 OA
ATOM     19  O   UNL d   1     -42.655-123.792 -48.163  0.00  0.00    -0.203 OA
ATOM     20  C   UNL d   1     -42.930-123.739 -49.315  0.00  0.00     0.165 C 
ENDBRANCH  16  17
ENDBRANCH  15  16
ENDBRANCH  14  15
ENDBRANCH   4  14
TORSDOF 4
ENDMDL
MODEL 2
REMARK VINA RESULT:      -4.9      2.102      4.424
REMARK  4 active torsions:
REMARK  status: ('A' for Active; 'I' for Inactive)
REMARK    1  A    between atoms: N_14  and  S_1 
REMARK    2  A    between atoms: C_5  and  C_17 
REMARK    3  A    between atoms: C_18  and  N_14 
REMARK    4  A    between atoms: C_17  and  C_18 
ROOT
ATOM      1  N   UNL d   1     -42.863-122.060 -50.418  0.00  0.00    -0.208 NA
ATOM      2  C   UNL d   1     -42.523-121.895 -51.157  0.00  0.00     0.279 A 
ATOM      3  C   UNL d   1     -42.441-122.500 -49.852  0.00  0.00     0.085 A 
ATOM      4  C   UNL d   1     -41.764-122.168 -51.332  0.00  0.00     0.059 A 
ATOM      5  C   UNL d   1     -41.338-122.609 -50.769  0.00  0.00     0.006 A 
ATOM      6  C   UNL d   1     -41.682-122.770 -50.034  0.00  0.00     0.018 A 
ATOM      7  C   UNL d   1     -42.782-122.663 -49.118  0.00  0.00     0.019 A 
ATOM      8  C   UNL d   1     -41.260-123.211 -49.467  0.00  0.00     0.002 A 
ATOM      9  C   UNL d   1     -42.360-123.100 -48.559  0.00  0.00     0.002 A 
ATOM     10  C   UNL d   1     -41.601-123.374 -48.733  0.00  0.00     0.000 A 
ATOM     11  O   UNL d   1     -42.944-121.457 -51.716  0.00  0.00    -0.265 OA
ATOM     12  C   UNL d   1     -41.179-123.811 -48.174  0.00  0.00     0.000 C 
ATOM     13  C   UNL d   1     -42.701-123.263 -47.825  0.00  0.00     0.000 C 
ENDROOT
BRANCH   4  14
ATOM     14  C   UNL d   1     -41.423-122.005 -52.066  0.00  0.00     0.026 C 
BRANCH  14  15
ATOM     15  C   UNL d   1     -41.452-122.571 -52.666  0.00  0.00     0.112 C 
BRANCH  15  16
ATOM     16  N   UNL d   1     -41.123-122.403 -53.403  0.00  0.00    -0.160 NA
BRANCH  16  17
ATOM     17  S   UNL d   1     -41.300-122.884 -54.059  0.00  0.00     0.266 S 
ATOM     18  O   UNL d   1     -41.471-122.110 -54.301  0.00  0.00    -0.203 OA
ATOM     19  O   UNL d   1     -41.529-123.166 -54.798  0.00  0.00    -0.203 OA
ATOM     20  C   UNL d   1     -41.123-123.648 -53.793  0.00  0.00     0.165 C 
ENDBRANCH  16  17
ENDBRANCH  15  16
ENDBRANCH  14  15
ENDBRANCH   4  14
TORSDOF 4
ENDMDL
MODEL 3
REMARK VINA RESULT:      -4.3      2.413      4.532
REMARK  4 active torsions:
REMARK  status: ('A' for Active; 'I' for Inactive)
REMARK    1  A    between atoms: N_14  and  S_1 
REMARK    2  A    between atoms: C_5  and  C_17 
REMARK    3  A    between atoms: C_18  and  N_14 
REMARK    4  A    between atoms: C_17  and  C_18 
ROOT
ATOM      1  N   UNL d   1     -41.480-123.816 -51.619  0.00  0.00    -0.208 NA
ATOM      2  C   UNL d   1     -41.341-123.403 -52.326  0.00  0.00     0.279 A 
ATOM      3  C   UNL d   1     -41.687-123.404 -50.927  0.00  0.00     0.085 A 
ATOM      4  C   UNL d   1     -41.407-122.580 -52.342  0.00  0.00     0.059 A 
ATOM      5  C   UNL d   1     -41.613-122.164 -51.652  0.00  0.00     0.006 A 
ATOM      6  C   UNL d   1     -41.751-122.580 -50.951  0.00  0.00     0.018 A 
ATOM      7  C   UNL d   1     -41.825-123.816 -50.225  0.00  0.00     0.019 A 
ATOM      8  C   UNL d   1     -41.958-122.168 -50.258  0.00  0.00     0.002 A 
ATOM      9  C   UNL d   1     -42.030-123.404 -49.540  0.00  0.00     0.002 A 
ATOM     10  C   UNL d   1     -42.096-122.581 -49.557  0.00  0.00     0.000 A 
ATOM     11  O   UNL d   1     -41.136-123.816 -53.011  0.00  0.00    -0.265 OA
ATOM     12  C   UNL d   1     -42.301-122.168 -48.872  0.00  0.00     0.000 C 
ATOM     13  C   UNL d   1     -42.168-123.817 -48.839  0.00  0.00     0.000 C 
ENDROOT
BRANCH   4  14
ATOM     14  C   UNL d   1     -41.269-122.167 -53.043  0.00  0.00     0.026 C 
BRANCH  14  15
ATOM     15  C   UNL d   1     -41.769-122.279 -53.690  0.00  0.00     0.112 C 
BRANCH  15  16
ATOM     16  N   UNL d   1     -42.043-121.627 -54.113  0.00  0.00    -0.160 NA
BRANCH  16  17
ATOM     17  S   UNL d   1     -42.342-121.725 -54.885  0.00  0.00     0.266 S 
ATOM     18  O   UNL d   1     -43.006-121.595 -54.406  0.00  0.00    -0.203 OA
ATOM     19  O   UNL d   1     -42.829-121.791 -55.545  0.00  0.00    -0.203 OA
ATOM     20  C   UNL d   1     -41.663-121.853 -55.341  0.00  0.00     0.165 C 
ENDBRANCH  16  17
ENDBRANCH  15  16
ENDBRANCH  14  15
ENDBRANCH   4  14
TORSDOF 4
ENDMDL
MODEL 4
REMARK VINA RESULT:      -3.4      1.245      1.619
REMARK  4 active torsions:
REMARK  status: ('A' for Active; 'I' for Inactive)
REMARK    1  A    between atoms: N_14  and  S_1 
REMARK    2  A    between atoms: C_5  and  C_17 
REMARK    3  A    between atoms: C_18  and  N_14 
REMARK    4  A    between atoms: C_17  and  C_18 
ROOT
ATOM      1  N   UNL d   1     -41.289-123.506 -52.875  0.00  0.00    -0.208 NA
ATOM      2  C   UNL d   1     -41.363-123.293 -52.076  0.00  0.00     0.279 A 
ATOM      3  C   UNL d   1     -41.530-122.980 -53.473  0.00  0.00     0.085 A 
ATOM      4  C   UNL d   1     -41.678-122.557 -51.874  0.00  0.00     0.059 A 
ATOM      5  C   UNL d   1     -41.921-122.028 -52.468  0.00  0.00     0.006 A 
ATOM      6  C   UNL d   1     -41.844-122.246 -53.263  0.00  0.00     0.018 A 
ATOM      7  C   UNL d   1     -41.455-123.194 -54.267  0.00  0.00     0.019 A 
ATOM      8  C   UNL d   1     -42.086-121.720 -53.861  0.00  0.00     0.002 A 
ATOM      9  C   UNL d   1     -41.696-122.670 -54.857  0.00  0.00     0.002 A 
ATOM     10  C   UNL d   1     -42.011-121.934 -54.655  0.00  0.00     0.000 A 
ATOM     11  O   UNL d   1     -41.123-123.817 -51.486  0.00  0.00    -0.265 OA
ATOM     12  C   UNL d   1     -42.251-121.410 -55.245  0.00  0.00     0.000 C 
ATOM     13  C   UNL d   1     -41.621-122.885 -55.651  0.00  0.00     0.000 C 
ENDROOT
BRANCH   4  14
ATOM     14  C   UNL d   1     -41.753-122.343 -51.080  0.00  0.00     0.026 C 
BRANCH  14  15
ATOM     15  C   UNL d   1     -42.443-122.530 -50.668  0.00  0.00     0.112 C 
BRANCH  15  16
ATOM     16  N   UNL d   1     -42.564-122.225 -49.912  0.00  0.00    -0.160 NA
BRANCH  16  17
ATOM     17  S   UNL d   1     -42.916-122.698 -49.323  0.00  0.00     0.266 S 
ATOM     18  O   UNL d   1     -43.501-122.594 -49.901  0.00  0.00    -0.203 OA
ATOM     19  O   UNL d   1     -43.436-123.154 -48.877  0.00  0.00    -0.203 OA
ATOM     20  C   UNL d   1     -42.314-122.786 -48.761  0.00  0.00     0.165 C 
ENDBRANCH  16  17
ENDBRANCH  15  16
ENDBRANCH  14  15
ENDBRANCH   4  14
TORSDOF 4
ENDMDL
