MODEL 1
REMARK VINA RESULT:      64.4      0.000      0.000
REMARK  5 active torsions:
REMARK  status: ('A' for Active; 'I' for Inactive)
REMARK    1  A    between atoms: C_10  and  C_1 
REMARK    2  A    between atoms: C_16  and  C_2 
REMARK    3  A    between atoms: C_7  and  C_14 
REMARK    4  A    between atoms: C_13  and  C_10 
REMARK    5  A    between atoms: C_14  and  C_13 
ROOT
ATOM      1  C   UNL d   1      44.773 -16.547  38.240  0.00  0.00     0.097 A 
ATOM      2  C   UNL d   1      44.656 -15.882  37.729  0.00  0.00     0.009 A 
ATOM      3  C   UNL d   1      44.130 -16.961  38.535  0.00  0.00     0.282 A 
ATOM      4  C   UNL d   1      43.896 -15.676  37.548  0.00  0.00     0.019 A 
ATOM      5  N   UNL d   1      43.342 -16.727  38.332  0.00  0.00    -0.208 NA
ATOM      6  C   UNL d   1      43.252 -16.090  37.843  0.00  0.00     0.085 A 
ATOM      7  C   UNL d   1      43.784 -15.017  37.042  0.00  0.00     0.013 A 
ATOM      8  C   UNL d   1      42.471 -15.862  37.644  0.00  0.00     0.020 A 
ATOM      9  O   UNL d   1      44.242 -17.620  39.042  0.00  0.00    -0.265 OA
ATOM     10  C   UNL d   1      42.997 -14.783  36.838  0.00  0.00     0.058 A 
ATOM     11  C   UNL d   1      42.353 -15.197  37.133  0.00  0.00     0.013 A 
ATOM     12 CL   UNL d   1      42.885 -14.124  36.332  0.00  0.00    -0.082 Cl
ENDROOT
BRANCH   1  13
ATOM     13  C   UNL d   1      45.555 -16.775  38.439  0.00  0.00     0.200 C 
ATOM     14  O   UNL d   1      46.228 -16.400  38.065  0.00  0.00    -0.286 OA
BRANCH  13  15
ATOM     15  C   UNL d   1      45.695 -17.361  38.996  0.00  0.00     0.045 C 
BRANCH  15  16
ATOM     16  C   UNL d   1      46.382 -17.396  39.471  0.00  0.00     0.042 C 
BRANCH  16  17
ATOM     17  C   UNL d   1      46.443 -17.928  40.116  0.00  0.00     0.163 A 
ATOM     18  N   UNL d   1      46.515 -18.738  40.143  0.00  0.00    -0.225 NA
ATOM     19  C   UNL d   1      46.550 -18.944  40.937  0.00  0.00     0.101 A 
ATOM     20  C   UNL d   1      46.622 -19.685  41.288  0.00  0.00     0.021 A 
ATOM     21  C   UNL d   1      46.502 -18.293  41.384  0.00  0.00     0.101 A 
ATOM     22  C   UNL d   1      46.644 -19.732  42.129  0.00  0.00     0.002 A 
ATOM     23  C   UNL d   1      46.592 -19.040  42.562  0.00  0.00     0.002 A 
ATOM     24  C   UNL d   1      46.521 -18.325  42.162  0.00  0.00     0.021 A 
ATOM     25  N   UNL d   1      46.431 -17.609  40.873  0.00  0.00    -0.225 NA
ENDBRANCH  16  17
ENDBRANCH  15  16
ENDBRANCH  13  15
ENDBRANCH   1  13
BRANCH   2  26
ATOM     26  C   UNL d   1      45.327 -15.450  37.421  0.00  0.00     0.000 A 
ATOM     27  C   UNL d   1      45.641 -15.694  36.698  0.00  0.00     0.000 A 
ATOM     28  C   UNL d   1      46.284 -15.308  36.367  0.00  0.00     0.000 A 
ATOM     29  C   UNL d   1      46.607 -14.628  36.835  0.00  0.00     0.000 A 
ATOM     30  C   UNL d   1      46.287 -14.415  37.525  0.00  0.00     0.000 A 
ATOM     31  C   UNL d   1      45.616 -14.846  37.833  0.00  0.00     0.000 A 
ENDBRANCH   2  26
TORSDOF 5
ENDMDL
MODEL 2
REMARK VINA RESULT:      66.0      2.455      5.903
REMARK  5 active torsions:
REMARK  status: ('A' for Active; 'I' for Inactive)
REMARK    1  A    between atoms: C_10  and  C_1 
REMARK    2  A    between atoms: C_16  and  C_2 
REMARK    3  A    between atoms: C_7  and  C_14 
REMARK    4  A    between atoms: C_13  and  C_10 
REMARK    5  A    between atoms: C_14  and  C_13 
ROOT
ATOM      1  C   UNL d   1      46.167 -18.274  41.561  0.00  0.00     0.097 A 
ATOM      2  C   UNL d   1      46.167 -18.243  42.407  0.00  0.00     0.009 A 
ATOM      3  C   UNL d   1      46.324 -18.979  41.173  0.00  0.00     0.282 A 
ATOM      4  C   UNL d   1      46.324 -18.926  42.810  0.00  0.00     0.019 A 
ATOM      5  N   UNL d   1      46.487 -19.683  41.615  0.00  0.00    -0.208 NA
ATOM      6  C   UNL d   1      46.481 -19.631  42.422  0.00  0.00     0.085 A 
ATOM      7  C   UNL d   1      46.323 -18.890  43.647  0.00  0.00     0.013 A 
ATOM      8  C   UNL d   1      46.643 -20.330  42.855  0.00  0.00     0.020 A 
ATOM      9  O   UNL d   1      46.326 -19.014  40.335  0.00  0.00    -0.265 OA
ATOM     10  C   UNL d   1      46.485 -19.594  44.089  0.00  0.00     0.058 A 
ATOM     11  C   UNL d   1      46.642 -20.299  43.701  0.00  0.00     0.013 A 
ATOM     12 CL   UNL d   1      46.484 -19.559  44.927  0.00  0.00    -0.082 Cl
ENDROOT
BRANCH   1  13
ATOM     13  C   UNL d   1      46.005 -17.575  41.127  0.00  0.00     0.200 C 
ATOM     14  O   UNL d   1      46.133 -16.804  41.479  0.00  0.00    -0.286 OA
BRANCH  13  15
ATOM     15  C   UNL d   1      45.722 -17.612  40.359  0.00  0.00     0.045 C 
BRANCH  15  16
ATOM     16  C   UNL d   1      46.158 -17.358  39.690  0.00  0.00     0.042 C 
BRANCH  16  17
ATOM     17  C   UNL d   1      45.789 -16.960  39.052  0.00  0.00     0.163 A 
ATOM     18  N   UNL d   1      46.081 -16.438  38.501  0.00  0.00    -0.225 NA
ATOM     19  C   UNL d   1      45.452 -16.235  38.013  0.00  0.00     0.101 A 
ATOM     20  C   UNL d   1      45.427 -15.729  37.365  0.00  0.00     0.021 A 
ATOM     21  C   UNL d   1      44.799 -16.614  38.249  0.00  0.00     0.101 A 
ATOM     22  C   UNL d   1      44.695 -15.624  36.962  0.00  0.00     0.002 A 
ATOM     23  C   UNL d   1      44.038 -16.031  37.233  0.00  0.00     0.002 A 
ATOM     24  C   UNL d   1      44.116 -16.525  37.885  0.00  0.00     0.021 A 
ATOM     25  N   UNL d   1      44.989 -17.098  38.930  0.00  0.00    -0.225 NA
ENDBRANCH  16  17
ENDBRANCH  15  16
ENDBRANCH  13  15
ENDBRANCH   1  13
BRANCH   2  26
ATOM     26  C   UNL d   1      46.003 -17.507  42.812  0.00  0.00     0.000 A 
ATOM     27  C   UNL d   1      46.637 -17.117  43.169  0.00  0.00     0.000 A 
ATOM     28  C   UNL d   1      46.524 -16.409  43.567  0.00  0.00     0.000 A 
ATOM     29  C   UNL d   1      45.691 -16.105  43.584  0.00  0.00     0.000 A 
ATOM     30  C   UNL d   1      45.103 -16.499  43.234  0.00  0.00     0.000 A 
ATOM     31  C   UNL d   1      45.266 -17.235  42.829  0.00  0.00     0.000 A 
ENDBRANCH   2  26
TORSDOF 5
ENDMDL
