MODEL 1
REMARK VINA RESULT:      -4.6      0.000      0.000
REMARK  4 active torsions:
REMARK  status: ('A' for Active; 'I' for Inactive)
REMARK    1  A    between atoms: C_7  and  N_1 
REMARK    2  A    between atoms: C_8  and  C_7 
REMARK       I    between atoms: N_11  and  C_8 
REMARK    3  A    between atoms: C_13  and  N_11 
REMARK    4  A    between atoms: C_15  and  C_13 
ROOT
ATOM      1  C   UNL d   1      57.867  -0.147  29.921  0.00  0.00     0.148 C 
ENDROOT
BRANCH   1   2
ATOM      2  N   UNL d   1      58.489  -0.554  29.562  0.00  0.00    -0.235 N 
ATOM      3  C   UNL d   1      58.499  -1.382  29.573  0.00  0.00     0.273 A 
ATOM      4  C   UNL d   1      59.114  -1.785  29.218  0.00  0.00     0.086 A 
ATOM      5  O   UNL d   1      57.887  -1.797  29.944  0.00  0.00    -0.266 OA
ATOM      6  C   UNL d   1      59.123  -2.617  29.230  0.00  0.00     0.012 C 
ATOM      7  S   UNL d   1      59.724  -1.383  28.848  0.00  0.00    -0.077 SA
ATOM      8  C   UNL d   1      59.718  -0.563  28.834  0.00  0.00     0.086 A 
ATOM      9  C   UNL d   1      59.104  -0.141  29.189  0.00  0.00     0.273 A 
ATOM     10  C   UNL d   1      60.329  -0.151  28.464  0.00  0.00     0.012 C 
ATOM     11  O   UNL d   1      59.095   0.682  29.177  0.00  0.00    -0.266 OA
ENDBRANCH   1   2
BRANCH   1  12
ATOM     12  C   UNL d   1      57.948   0.125  30.693  0.00  0.00     0.297 C 
ATOM     13  N   UNL d   1      57.343   0.024  31.239  0.00  0.00    -0.205 NA
ATOM     14  O   UNL d   1      58.646   0.502  30.922  0.00  0.00    -0.264 OA
BRANCH  13  15
ATOM     15  C   UNL d   1      57.415   0.292  32.010  0.00  0.00     0.102 C 
BRANCH  15  16
ATOM     16  C   UNL d   1      56.809   0.182  32.559  0.00  0.00     0.019 A 
ATOM     17  C   UNL d   1      56.832   0.585  33.279  0.00  0.00     0.004 A 
ATOM     18  C   UNL d   1      56.226   0.478  33.832  0.00  0.00     0.030 A 
ATOM     19  C   UNL d   1      55.604  -0.031  33.659  0.00  0.00     0.140 A 
ATOM     20  C   UNL d   1      55.580  -0.434  32.940  0.00  0.00     0.030 A 
ATOM     21  F   UNL d   1      54.993  -0.144  34.206  0.00  0.00    -0.204 F 
ATOM     22  C   UNL d   1      56.187  -0.328  32.383  0.00  0.00     0.004 A 
ENDBRANCH  15  16
ENDBRANCH  13  15
ENDBRANCH   1  12
TORSDOF 4
ENDMDL
MODEL 2
REMARK VINA RESULT:      -4.5      0.401      1.418
REMARK  4 active torsions:
REMARK  status: ('A' for Active; 'I' for Inactive)
REMARK    1  A    between atoms: C_7  and  N_1 
REMARK    2  A    between atoms: C_8  and  C_7 
REMARK       I    between atoms: N_11  and  C_8 
REMARK    3  A    between atoms: C_13  and  N_11 
REMARK    4  A    between atoms: C_15  and  C_13 
ROOT
ATOM      1  C   UNL d   1      57.936  -0.151  29.813  0.00  0.00     0.148 C 
ENDROOT
BRANCH   1   2
ATOM      2  N   UNL d   1      58.563  -0.563  29.469  0.00  0.00    -0.235 N 
ATOM      3  C   UNL d   1      59.194  -0.145  29.133  0.00  0.00     0.273 A 
ATOM      4  C   UNL d   1      59.815  -0.553  28.792  0.00  0.00     0.086 A 
ATOM      5  O   UNL d   1      59.194   0.682  29.144  0.00  0.00    -0.266 OA
ATOM      6  C   UNL d   1      60.448  -0.131  28.455  0.00  0.00     0.012 C 
ATOM      7  S   UNL d   1      59.824  -1.371  28.776  0.00  0.00    -0.077 SA
ATOM      8  C   UNL d   1      59.200  -1.789  29.108  0.00  0.00     0.086 A 
ATOM      9  C   UNL d   1      58.566  -1.392  29.456  0.00  0.00     0.273 A 
ATOM     10  C   UNL d   1      59.202  -2.613  29.096  0.00  0.00     0.012 C 
ATOM     11  O   UNL d   1      57.939  -1.808  29.789  0.00  0.00    -0.266 OA
ENDBRANCH   1   2
BRANCH   1  12
ATOM     12  C   UNL d   1      57.953   0.023  30.618  0.00  0.00     0.297 C 
ATOM     13  N   UNL d   1      57.287  -0.089  31.085  0.00  0.00    -0.205 NA
ATOM     14  O   UNL d   1      58.647   0.312  30.957  0.00  0.00    -0.264 OA
BRANCH  13  15
ATOM     15  C   UNL d   1      57.296   0.082  31.887  0.00  0.00     0.102 C 
BRANCH  15  16
ATOM     16  C   UNL d   1      56.616   0.004  32.348  0.00  0.00     0.019 A 
ATOM     17  C   UNL d   1      56.208   0.679  32.590  0.00  0.00     0.004 A 
ATOM     18  C   UNL d   1      55.525   0.605  33.053  0.00  0.00     0.030 A 
ATOM     19  C   UNL d   1      55.260  -0.142  33.267  0.00  0.00     0.140 A 
ATOM     20  C   UNL d   1      55.667  -0.817  33.025  0.00  0.00     0.030 A 
ATOM     21  F   UNL d   1      54.578  -0.226  33.729  0.00  0.00    -0.204 F 
ATOM     22  C   UNL d   1      56.352  -0.746  32.560  0.00  0.00     0.004 A 
ENDBRANCH  15  16
ENDBRANCH  13  15
ENDBRANCH   1  12
TORSDOF 4
ENDMDL
MODEL 3
REMARK VINA RESULT:      -3.0      2.592      4.967
REMARK  4 active torsions:
REMARK  status: ('A' for Active; 'I' for Inactive)
REMARK    1  A    between atoms: C_7  and  N_1 
REMARK    2  A    between atoms: C_8  and  C_7 
REMARK       I    between atoms: N_11  and  C_8 
REMARK    3  A    between atoms: C_13  and  N_11 
REMARK    4  A    between atoms: C_15  and  C_13 
ROOT
ATOM      1  C   UNL d   1      56.734   0.598  32.027  0.00  0.00     0.148 C 
ENDROOT
BRANCH   1   2
ATOM      2  N   UNL d   1      56.580   0.621  32.837  0.00  0.00    -0.235 N 
ATOM      3  C   UNL d   1      55.797   0.626  33.107  0.00  0.00     0.273 A 
ATOM      4  C   UNL d   1      55.645   0.648  33.910  0.00  0.00     0.086 A 
ATOM      5  O   UNL d   1      55.173   0.610  32.565  0.00  0.00    -0.266 OA
ATOM      6  C   UNL d   1      54.858   0.654  34.179  0.00  0.00     0.012 C 
ATOM      7  S   UNL d   1      56.256   0.665  34.455  0.00  0.00    -0.077 SA
ATOM      8  C   UNL d   1      57.033   0.660  34.191  0.00  0.00     0.086 A 
ATOM      9  C   UNL d   1      57.203   0.638  33.384  0.00  0.00     0.273 A 
ATOM     10  C   UNL d   1      57.654   0.677  34.734  0.00  0.00     0.012 C 
ATOM     11  O   UNL d   1      57.982   0.632  33.117  0.00  0.00    -0.266 OA
ENDBRANCH   1   2
BRANCH   1  12
ATOM     12  C   UNL d   1      56.985  -0.103  31.677  0.00  0.00     0.297 C 
ATOM     13  N   UNL d   1      57.458  -0.091  31.005  0.00  0.00    -0.205 NA
ATOM     14  O   UNL d   1      56.760  -0.825  32.005  0.00  0.00    -0.264 OA
BRANCH  13  15
ATOM     15  C   UNL d   1      57.712  -0.784  30.651  0.00  0.00     0.102 C 
BRANCH  15  16
ATOM     16  C   UNL d   1      58.329  -0.783  30.102  0.00  0.00     0.019 A 
ATOM     17  C   UNL d   1      58.495  -1.467  29.673  0.00  0.00     0.004 A 
ATOM     18  C   UNL d   1      59.112  -1.470  29.121  0.00  0.00     0.030 A 
ATOM     19  C   UNL d   1      59.555  -0.788  29.005  0.00  0.00     0.140 A 
ATOM     20  C   UNL d   1      59.389  -0.102  29.434  0.00  0.00     0.030 A 
ATOM     21  F   UNL d   1      60.174  -0.780  28.456  0.00  0.00    -0.204 F 
ATOM     22  C   UNL d   1      58.770  -0.097  29.988  0.00  0.00     0.004 A 
ENDBRANCH  15  16
ENDBRANCH  13  15
ENDBRANCH   1  12
TORSDOF 4
ENDMDL
MODEL 4
REMARK VINA RESULT:      -2.8      2.676      5.054
REMARK  4 active torsions:
REMARK  status: ('A' for Active; 'I' for Inactive)
REMARK    1  A    between atoms: C_7  and  N_1 
REMARK    2  A    between atoms: C_8  and  C_7 
REMARK       I    between atoms: N_11  and  C_8 
REMARK    3  A    between atoms: C_13  and  N_11 
REMARK    4  A    between atoms: C_15  and  C_13 
ROOT
ATOM      1  C   UNL d   1      56.732  -0.440  32.435  0.00  0.00     0.148 C 
ENDROOT
BRANCH   1   2
ATOM      2  N   UNL d   1      56.444  -0.118  33.138  0.00  0.00    -0.235 N 
ATOM      3  C   UNL d   1      56.973   0.122  33.728  0.00  0.00     0.273 A 
ATOM      4  C   UNL d   1      56.687   0.442  34.424  0.00  0.00     0.086 A 
ATOM      5  O   UNL d   1      57.787   0.038  33.611  0.00  0.00    -0.266 OA
ATOM      6  C   UNL d   1      57.220   0.682  35.016  0.00  0.00     0.012 C 
ATOM      7  S   UNL d   1      55.882   0.529  34.548  0.00  0.00    -0.077 SA
ATOM      8  C   UNL d   1      55.355   0.293  33.966  0.00  0.00     0.086 A 
ATOM      9  C   UNL d   1      55.628  -0.032  33.258  0.00  0.00     0.273 A 
ATOM     10  C   UNL d   1      54.543   0.377  34.084  0.00  0.00     0.012 C 
ATOM     11  O   UNL d   1      55.101  -0.270  32.672  0.00  0.00    -0.266 OA
ENDBRANCH   1   2
BRANCH   1  12
ATOM     12  C   UNL d   1      56.895   0.052  31.796  0.00  0.00     0.297 C 
ATOM     13  N   UNL d   1      57.572  -0.058  31.344  0.00  0.00    -0.205 NA
ATOM     14  O   UNL d   1      56.373   0.662  31.608  0.00  0.00    -0.264 OA
BRANCH  13  15
ATOM     15  C   UNL d   1      57.741   0.427  30.705  0.00  0.00     0.102 C 
BRANCH  15  16
ATOM     16  C   UNL d   1      58.402   0.291  30.229  0.00  0.00     0.019 A 
ATOM     17  C   UNL d   1      59.134   0.603  30.448  0.00  0.00     0.004 A 
ATOM     18  C   UNL d   1      59.799   0.469  29.972  0.00  0.00     0.030 A 
ATOM     19  C   UNL d   1      59.723   0.026  29.285  0.00  0.00     0.140 A 
ATOM     20  C   UNL d   1      58.991  -0.286  29.066  0.00  0.00     0.030 A 
ATOM     21  F   UNL d   1      60.382  -0.114  28.804  0.00  0.00    -0.204 F 
ATOM     22  C   UNL d   1      58.323  -0.154  29.541  0.00  0.00     0.004 A 
ENDBRANCH  15  16
ENDBRANCH  13  15
ENDBRANCH   1  12
TORSDOF 4
ENDMDL
