MODEL 1
REMARK VINA RESULT:      31.3      0.000      0.000
REMARK  5 active torsions:
REMARK  status: ('A' for Active; 'I' for Inactive)
REMARK    1  A    between atoms: N_6  and  C_1 
REMARK    2  A    between atoms: C_8  and  C_4 
REMARK       I    between atoms: C_7  and  N_6 
REMARK    3  A    between atoms: C_13  and  C_7 
REMARK    4  A    between atoms: O_14  and  C_8 
REMARK    5  A    between atoms: C_18  and  O_14 
ROOT
ATOM      1  C   UNL d   1      14.904  13.469  -1.507  0.00  0.00     0.124 A 
ATOM      2  C   UNL d   1      14.527  12.741  -1.359  0.00  0.00     0.093 A 
ATOM      3  S   UNL d   1      14.621  13.754  -2.225  0.00  0.00    -0.062 SA
ATOM      4  C   UNL d   1      14.075  13.209  -2.517  0.00  0.00     0.095 A 
ATOM      5  C   UNL d   1      14.015  12.587  -1.988  0.00  0.00     0.023 A 
ATOM      6  C   UNL d   1      14.652  12.258  -0.684  0.00  0.00     0.103 C 
ATOM      7  N   UNL d   1      14.768  11.780  -0.030  0.00  0.00    -0.191 NA
ATOM      8  C   UNL d   1      13.529  11.919  -2.067  0.00  0.00     0.001 C 
ENDROOT
BRANCH   1   9
ATOM      9  N   UNL d   1      15.459  13.830  -1.018  0.00  0.00    -0.201 NA
ATOM     10  C   UNL d   1      15.342  14.613  -0.777  0.00  0.00     0.280 C 
ATOM     11  O   UNL d   1      15.899  14.965  -0.291  0.00  0.00    -0.265 OA
BRANCH  10  12
ATOM     12  C   UNL d   1      14.680  15.028  -1.020  0.00  0.00     0.058 C 
ATOM     13  C   UNL d   1      13.992  15.005  -0.569  0.00  0.00     0.005 C 
ATOM     14  C   UNL d   1      14.693  15.477  -1.722  0.00  0.00     0.005 C 
ENDBRANCH  10  12
ENDBRANCH   1   9
BRANCH   4  15
ATOM     15  C   UNL d   1      13.660  13.279  -3.223  0.00  0.00     0.306 C 
ATOM     16  O   UNL d   1      13.624  14.013  -3.622  0.00  0.00    -0.258 OA
BRANCH  15  17
ATOM     17  O   UNL d   1      13.268  12.626  -3.559  0.00  0.00    -0.271 OA
BRANCH  17  18
ATOM     18  C   UNL d   1      13.192  12.835  -4.357  0.00  0.00     0.126 C 
ATOM     19  C   UNL d   1      12.771  12.349  -4.872  0.00  0.00     0.029 C 
ENDBRANCH  17  18
ENDBRANCH  15  17
ENDBRANCH   4  15
TORSDOF 5
ENDMDL
MODEL 2
REMARK VINA RESULT:      31.4      1.573      2.801
REMARK  5 active torsions:
REMARK  status: ('A' for Active; 'I' for Inactive)
REMARK    1  A    between atoms: N_6  and  C_1 
REMARK    2  A    between atoms: C_8  and  C_4 
REMARK       I    between atoms: C_7  and  N_6 
REMARK    3  A    between atoms: C_13  and  C_7 
REMARK    4  A    between atoms: O_14  and  C_8 
REMARK    5  A    between atoms: C_18  and  O_14 
ROOT
ATOM      1  C   UNL d   1      14.521  13.060  -1.853  0.00  0.00     0.124 A 
ATOM      2  C   UNL d   1      14.088  13.083  -2.564  0.00  0.00     0.093 A 
ATOM      3  S   UNL d   1      14.769  13.828  -1.689  0.00  0.00    -0.062 SA
ATOM      4  C   UNL d   1      14.491  14.319  -2.291  0.00  0.00     0.095 A 
ATOM      5  C   UNL d   1      14.073  13.865  -2.829  0.00  0.00     0.023 A 
ATOM      6  C   UNL d   1      13.732  12.420  -2.936  0.00  0.00     0.103 C 
ATOM      7  N   UNL d   1      13.382  11.780  -3.307  0.00  0.00    -0.191 NA
ATOM      8  C   UNL d   1      13.701  14.137  -3.518  0.00  0.00     0.001 C 
ENDROOT
BRANCH   1   9
ATOM      9  N   UNL d   1      14.671  12.388  -1.402  0.00  0.00    -0.201 NA
ATOM     10  C   UNL d   1      14.727  12.453  -0.580  0.00  0.00     0.280 C 
ATOM     11  O   UNL d   1      14.877  11.779  -0.138  0.00  0.00    -0.265 OA
BRANCH  10  12
ATOM     12  C   UNL d   1      14.636  13.179  -0.212  0.00  0.00     0.058 C 
ATOM     13  C   UNL d   1      15.297  13.635  -0.033  0.00  0.00     0.005 C 
ATOM     14  C   UNL d   1      13.878  13.464  -0.015  0.00  0.00     0.005 C 
ENDBRANCH  10  12
ENDBRANCH   1   9
BRANCH   4  15
ATOM     15  C   UNL d   1      14.614  15.130  -2.342  0.00  0.00     0.306 C 
ATOM     16  O   UNL d   1      14.747  15.492  -3.083  0.00  0.00    -0.258 OA
BRANCH  15  17
ATOM     17  O   UNL d   1      14.610  15.610  -1.662  0.00  0.00    -0.271 OA
BRANCH  17  18
ATOM     18  C   UNL d   1      14.836  16.353  -1.948  0.00  0.00     0.126 C 
ATOM     19  C   UNL d   1      15.152  16.915  -1.434  0.00  0.00     0.029 C 
ENDBRANCH  17  18
ENDBRANCH  15  17
ENDBRANCH   4  15
TORSDOF 5
ENDMDL
MODEL 3
REMARK VINA RESULT:      33.0      2.102      3.347
REMARK  5 active torsions:
REMARK  status: ('A' for Active; 'I' for Inactive)
REMARK    1  A    between atoms: N_6  and  C_1 
REMARK    2  A    between atoms: C_8  and  C_4 
REMARK       I    between atoms: C_7  and  N_6 
REMARK    3  A    between atoms: C_13  and  C_7 
REMARK    4  A    between atoms: O_14  and  C_8 
REMARK    5  A    between atoms: C_18  and  O_14 
ROOT
ATOM      1  C   UNL d   1      13.279  13.677  -3.706  0.00  0.00     0.124 A 
ATOM      2  C   UNL d   1      13.364  12.853  -3.792  0.00  0.00     0.093 A 
ATOM      3  S   UNL d   1      13.650  13.893  -3.003  0.00  0.00    -0.062 SA
ATOM      4  C   UNL d   1      13.961  13.211  -2.660  0.00  0.00     0.095 A 
ATOM      5  C   UNL d   1      13.787  12.571  -3.141  0.00  0.00     0.023 A 
ATOM      6  C   UNL d   1      13.068  12.399  -4.433  0.00  0.00     0.103 C 
ATOM      7  N   UNL d   1      12.783  11.948  -5.053  0.00  0.00    -0.191 NA
ATOM      8  C   UNL d   1      13.997  11.781  -3.004  0.00  0.00     0.001 C 
ENDROOT
BRANCH   1   9
ATOM      9  N   UNL d   1      12.892  14.178  -4.232  0.00  0.00    -0.201 NA
ATOM     10  C   UNL d   1      13.207  14.926  -4.390  0.00  0.00     0.280 C 
ATOM     11  O   UNL d   1      12.815  15.418  -4.915  0.00  0.00    -0.265 OA
BRANCH  10  12
ATOM     12  C   UNL d   1      13.899  15.171  -4.028  0.00  0.00     0.058 C 
ATOM     13  C   UNL d   1      13.866  15.586  -3.318  0.00  0.00     0.005 C 
ATOM     14  C   UNL d   1      14.640  15.005  -4.369  0.00  0.00     0.005 C 
ENDBRANCH  10  12
ENDBRANCH   1   9
BRANCH   4  15
ATOM     15  C   UNL d   1      14.376  13.178  -1.951  0.00  0.00     0.306 C 
ATOM     16  O   UNL d   1      15.208  13.258  -1.945  0.00  0.00    -0.258 OA
BRANCH  15  17
ATOM     17  O   UNL d   1      13.983  13.066  -1.227  0.00  0.00    -0.271 OA
BRANCH  17  18
ATOM     18  C   UNL d   1      14.586  12.819  -0.716  0.00  0.00     0.126 C 
ATOM     19  C   UNL d   1      14.754  13.254  -0.035  0.00  0.00     0.029 C 
ENDBRANCH  17  18
ENDBRANCH  15  17
ENDBRANCH   4  15
TORSDOF 5
ENDMDL
