MODEL 1
REMARK VINA RESULT:      53.4      0.000      0.000
REMARK  7 active torsions:
REMARK  status: ('A' for Active; 'I' for Inactive)
REMARK    1  A    between atoms: C_12  and  N_1 
REMARK    2  A    between atoms: C_2  and  N_6 
REMARK    3  A    between atoms: C_9  and  C_5 
REMARK       I    between atoms: N_6  and  C_9 
REMARK    4  A    between atoms: S_15  and  C_7 
REMARK    5  A    between atoms: C_14  and  C_20 
REMARK       I    between atoms: N_21  and  C_14 
REMARK    6  A    between atoms: C_20  and  S_15 
REMARK    7  A    between atoms: O_22  and  C_18 
ROOT
ATOM      1  N   UNL d   1      13.868  12.640  -2.186  0.00  0.00    -0.271 N 
ATOM      2  C   UNL d   1      13.213  12.265  -2.343  0.00  0.00     0.265 A 
ATOM      3  C   UNL d   1      13.520  12.943  -3.351  0.00  0.00     0.080 A 
ATOM      4  C   UNL d   1      14.058  13.060  -2.810  0.00  0.00     0.088 A 
ATOM      5  C   UNL d   1      12.990  12.450  -3.067  0.00  0.00     0.067 A 
ATOM      6  O   UNL d   1      12.834  11.782  -1.860  0.00  0.00    -0.267 OA
ENDROOT
BRANCH   3   7
ATOM      7  C   UNL d   1      13.500  13.259  -4.058  0.00  0.00     0.283 C 
ATOM      8  N   UNL d   1      13.600  14.025  -4.143  0.00  0.00    -0.181 NA
ATOM      9  O   UNL d   1      13.382  12.810  -4.682  0.00  0.00    -0.265 OA
BRANCH   8  10
ATOM     10  C   UNL d   1      13.581  14.345  -4.849  0.00  0.00     0.219 A 
ATOM     11  S   UNL d   1      13.422  15.088  -5.011  0.00  0.00    -0.019 SA
ATOM     12  C   UNL d   1      13.461  15.180  -5.773  0.00  0.00     0.165 A 
ATOM     13  N   UNL d   1      13.644  14.499  -6.100  0.00  0.00    -0.133 NA
ATOM     14  N   UNL d   1      13.720  13.974  -5.518  0.00  0.00    -0.120 NA
BRANCH  12  15
ATOM     15  S   UNL d   1      13.146  16.749  -6.377  0.00  0.00    -0.054 SA
BRANCH  15  16
ATOM     16  C   UNL d   1      13.751  17.322  -6.388  0.00  0.00     0.100 C 
BRANCH  16  17
ATOM     17  C   UNL d   1      13.570  18.122  -6.226  0.00  0.00     0.286 C 
ATOM     18  O   UNL d   1      12.771  18.368  -6.155  0.00  0.00    -0.265 OA
ATOM     19  N   UNL d   1      14.192  18.677  -6.135  0.00  0.00    -0.204 NA
ATOM     20  C   UNL d   1      14.001  19.474  -5.974  0.00  0.00     0.123 C 
ENDBRANCH  16  17
ENDBRANCH  15  16
ENDBRANCH  12  15
ENDBRANCH   8  10
ENDBRANCH   3   7
BRANCH   1  21
ATOM     21  C   UNL d   1      14.301  12.602  -1.469  0.00  0.00     0.089 A 
ATOM     22  C   UNL d   1      14.541  13.307  -1.086  0.00  0.00     0.110 A 
ATOM     23  C   UNL d   1      14.966  13.274  -0.383  0.00  0.00     0.026 A 
ATOM     24  C   UNL d   1      15.159  12.528  -0.052  0.00  0.00     0.002 A 
ATOM     25  C   UNL d   1      14.927  11.828  -0.421  0.00  0.00     0.002 A 
ATOM     26  C   UNL d   1      14.492  11.858  -1.141  0.00  0.00     0.020 A 
BRANCH  22  27
ATOM     27  O   UNL d   1      14.345  14.042  -1.422  0.00  0.00    -0.327 OA
ATOM     28  C   UNL d   1      14.820  14.708  -1.258  0.00  0.00     0.181 C 
ENDBRANCH  22  27
ENDBRANCH   1  21
TORSDOF 7
ENDMDL
MODEL 2
REMARK VINA RESULT:      55.4      1.691      2.313
REMARK  7 active torsions:
REMARK  status: ('A' for Active; 'I' for Inactive)
REMARK    1  A    between atoms: C_12  and  N_1 
REMARK    2  A    between atoms: C_2  and  N_6 
REMARK    3  A    between atoms: C_9  and  C_5 
REMARK       I    between atoms: N_6  and  C_9 
REMARK    4  A    between atoms: S_15  and  C_7 
REMARK    5  A    between atoms: C_14  and  C_20 
REMARK       I    between atoms: N_21  and  C_14 
REMARK    6  A    between atoms: C_20  and  S_15 
REMARK    7  A    between atoms: O_22  and  C_18 
ROOT
ATOM      1  N   UNL d   1      14.615  14.018  -1.522  0.00  0.00    -0.271 N 
ATOM      2  C   UNL d   1      14.650  14.702  -1.169  0.00  0.00     0.265 A 
ATOM      3  C   UNL d   1      14.610  14.908  -2.404  0.00  0.00     0.080 A 
ATOM      4  C   UNL d   1      14.589  14.145  -2.287  0.00  0.00     0.088 A 
ATOM      5  C   UNL d   1      14.648  15.261  -1.712  0.00  0.00     0.067 A 
ATOM      6  O   UNL d   1      14.684  14.818  -0.397  0.00  0.00    -0.267 OA
ENDROOT
BRANCH   3   7
ATOM      7  C   UNL d   1      14.596  15.270  -3.088  0.00  0.00     0.283 C 
ATOM      8  N   UNL d   1      14.907  15.978  -3.158  0.00  0.00    -0.181 NA
ATOM      9  O   UNL d   1      14.271  14.925  -3.705  0.00  0.00    -0.265 OA
BRANCH   8  10
ATOM     10  C   UNL d   1      14.895  16.345  -3.841  0.00  0.00     0.219 A 
ATOM     11  S   UNL d   1      14.559  17.030  -3.989  0.00  0.00    -0.019 SA
ATOM     12  C   UNL d   1      14.673  17.197  -4.730  0.00  0.00     0.165 A 
ATOM     13  N   UNL d   1      15.079  16.622  -5.059  0.00  0.00    -0.133 NA
ATOM     14  N   UNL d   1      15.219  16.086  -4.499  0.00  0.00    -0.120 NA
BRANCH  12  15
ATOM     15  S   UNL d   1      14.019  18.673  -5.296  0.00  0.00    -0.054 SA
BRANCH  15  16
ATOM     16  C   UNL d   1      14.412  19.104  -5.891  0.00  0.00     0.100 C 
BRANCH  16  17
ATOM     17  C   UNL d   1      14.427  19.939  -5.861  0.00  0.00     0.286 C 
ATOM     18  O   UNL d   1      13.795  20.384  -6.189  0.00  0.00    -0.265 OA
ATOM     19  N   UNL d   1      15.076  20.330  -5.501  0.00  0.00    -0.204 NA
ATOM     20  C   UNL d   1      15.081  21.164  -5.475  0.00  0.00     0.123 C 
ENDBRANCH  16  17
ENDBRANCH  15  16
ENDBRANCH  12  15
ENDBRANCH   8  10
ENDBRANCH   3   7
BRANCH   1  21
ATOM     21  C   UNL d   1      14.604  13.267  -1.149  0.00  0.00     0.089 A 
ATOM     22  C   UNL d   1      14.266  12.608  -1.539  0.00  0.00     0.110 A 
ATOM     23  C   UNL d   1      14.254  11.870  -1.176  0.00  0.00     0.026 A 
ATOM     24  C   UNL d   1      14.584  11.782  -0.410  0.00  0.00     0.002 A 
ATOM     25  C   UNL d   1      14.920  12.424  -0.017  0.00  0.00     0.002 A 
ATOM     26  C   UNL d   1      14.933  13.181  -0.386  0.00  0.00     0.020 A 
BRANCH  22  27
ATOM     27  O   UNL d   1      13.941  12.706  -2.299  0.00  0.00    -0.327 OA
ATOM     28  C   UNL d   1      13.691  12.036  -2.728  0.00  0.00     0.181 C 
ENDBRANCH  22  27
ENDBRANCH   1  21
TORSDOF 7
ENDMDL
