MODEL 1
REMARK VINA RESULT:      37.4      0.000      0.000
REMARK  7 active torsions:
REMARK  status: ('A' for Active; 'I' for Inactive)
REMARK    1  A    between atoms: C_6  and  N_2 
REMARK    2  A    between atoms: C_7  and  C_3 
REMARK    3  A    between atoms: C_10  and  C_6 
REMARK    4  A    between atoms: C_17  and  C_7 
REMARK    5  A    between atoms: O_8  and  C_10 
REMARK    6  A    between atoms: C_9  and  O_8 
REMARK    7  A    between atoms: C_14  and  C_17 
ROOT
ATOM      1  N   UNL d   1      44.324 -15.083  36.331  0.00  0.00    -0.227 NA
ATOM      2  N   UNL d   1      44.594 -15.930  37.330  0.00  0.00    -0.287 N 
ATOM      3  C   UNL d   1      44.948 -15.391  36.796  0.00  0.00     0.148 A 
ATOM      4  C   UNL d   1      43.786 -15.947  37.192  0.00  0.00     0.083 A 
ATOM      5  C   UNL d   1      43.612 -15.401  36.548  0.00  0.00     0.099 A 
ATOM      6  C   UNL d   1      43.193 -16.372  37.552  0.00  0.00     0.019 A 
ATOM      7  C   UNL d   1      42.809 -15.345  36.330  0.00  0.00     0.021 A 
ATOM      8  C   UNL d   1      42.435 -16.266  37.286  0.00  0.00     0.002 A 
ATOM      9  C   UNL d   1      42.272 -15.754  36.683  0.00  0.00     0.002 A 
ENDROOT
BRANCH   2  10
ATOM     10  C   UNL d   1      45.112 -16.283  37.825  0.00  0.00     0.108 C 
BRANCH  10  11
ATOM     11  C   UNL d   1      44.874 -16.775  38.433  0.00  0.00     0.142 C 
BRANCH  11  12
ATOM     12  O   UNL d   1      45.300 -17.429  38.673  0.00  0.00    -0.304 OA
BRANCH  12  13
ATOM     13  C   UNL d   1      45.365 -17.665  39.460  0.00  0.00     0.100 A 
ATOM     14  C   UNL d   1      44.720 -17.750  39.967  0.00  0.00     0.025 A 
ATOM     15  C   UNL d   1      44.785 -17.986  40.752  0.00  0.00     0.002 A 
ATOM     16  C   UNL d   1      45.545 -18.149  41.053  0.00  0.00     0.000 A 
ATOM     17  C   UNL d   1      46.217 -18.070  40.559  0.00  0.00     0.002 A 
ATOM     18  C   UNL d   1      46.124 -17.828  39.761  0.00  0.00     0.025 A 
ENDBRANCH  12  13
ENDBRANCH  11  12
ENDBRANCH  10  11
ENDBRANCH   2  10
BRANCH   3  19
ATOM     19  C   UNL d   1      45.705 -15.494  37.058  0.00  0.00     0.041 C 
BRANCH  19  20
ATOM     20  C   UNL d   1      46.327 -15.057  36.707  0.00  0.00     0.049 C 
BRANCH  20  21
ATOM     21  C   UNL d   1      46.646 -14.389  37.092  0.00  0.00     0.234 C 
ATOM     22  O   UNL d   1      46.547 -13.628  36.769  0.00  0.00    -0.283 OA
ENDBRANCH  20  21
ENDBRANCH  19  20
ENDBRANCH   3  19
TORSDOF 7
ENDMDL
MODEL 2
REMARK VINA RESULT:      39.3      1.326      4.167
REMARK  7 active torsions:
REMARK  status: ('A' for Active; 'I' for Inactive)
REMARK    1  A    between atoms: C_6  and  N_2 
REMARK    2  A    between atoms: C_7  and  C_3 
REMARK    3  A    between atoms: C_10  and  C_6 
REMARK    4  A    between atoms: C_17  and  C_7 
REMARK    5  A    between atoms: O_8  and  C_10 
REMARK    6  A    between atoms: C_9  and  O_8 
REMARK    7  A    between atoms: C_14  and  C_17 
ROOT
ATOM      1  N   UNL d   1      45.965 -15.599  38.503  0.00  0.00    -0.227 NA
ATOM      2  N   UNL d   1      45.152 -15.806  37.463  0.00  0.00    -0.287 N 
ATOM      3  C   UNL d   1      45.364 -16.105  38.215  0.00  0.00     0.148 A 
ATOM      4  C   UNL d   1      45.607 -15.144  37.302  0.00  0.00     0.083 A 
ATOM      5  C   UNL d   1      46.132 -15.010  37.973  0.00  0.00     0.099 A 
ATOM      6  C   UNL d   1      45.622 -14.651  36.654  0.00  0.00     0.019 A 
ATOM      7  C   UNL d   1      46.641 -14.353  37.907  0.00  0.00     0.021 A 
ATOM      8  C   UNL d   1      46.144 -14.032  36.661  0.00  0.00     0.002 A 
ATOM      9  C   UNL d   1      46.636 -13.907  37.290  0.00  0.00     0.002 A 
ENDROOT
BRANCH   2  10
ATOM     10  C   UNL d   1      44.577 -16.225  37.098  0.00  0.00     0.108 C 
BRANCH  10  11
ATOM     11  C   UNL d   1      44.004 -15.873  36.633  0.00  0.00     0.142 C 
BRANCH  11  12
ATOM     12  O   UNL d   1      43.356 -16.275  36.340  0.00  0.00    -0.304 OA
BRANCH  12  13
ATOM     13  C   UNL d   1      42.589 -15.973  36.356  0.00  0.00     0.100 A 
ATOM     14  C   UNL d   1      42.415 -15.168  36.395  0.00  0.00     0.025 A 
ATOM     15  C   UNL d   1      41.649 -14.868  36.411  0.00  0.00     0.002 A 
ATOM     16  C   UNL d   1      41.014 -15.407  36.387  0.00  0.00     0.000 A 
ATOM     17  C   UNL d   1      41.164 -16.230  36.347  0.00  0.00     0.002 A 
ATOM     18  C   UNL d   1      41.954 -16.512  36.332  0.00  0.00     0.025 A 
ENDBRANCH  12  13
ENDBRANCH  11  12
ENDBRANCH  10  11
ENDBRANCH   2  10
BRANCH   3  19
ATOM     19  C   UNL d   1      44.845 -16.723  38.212  0.00  0.00     0.041 C 
BRANCH  19  20
ATOM     20  C   UNL d   1      45.005 -17.399  38.681  0.00  0.00     0.049 C 
BRANCH  20  21
ATOM     21  C   UNL d   1      45.237 -17.318  39.478  0.00  0.00     0.234 C 
ATOM     22  O   UNL d   1      44.963 -17.855  40.053  0.00  0.00    -0.283 OA
ENDBRANCH  20  21
ENDBRANCH  19  20
ENDBRANCH   3  19
TORSDOF 7
ENDMDL
