MODEL 1
REMARK VINA RESULT:      64.8      0.000      0.000
REMARK  4 active torsions:
REMARK  status: ('A' for Active; 'I' for Inactive)
REMARK    1  A    between atoms: C_10  and  C_3 
REMARK    2  A    between atoms: C_12  and  C_6 
REMARK    3  A    between atoms: O_15  and  C_10 
REMARK    4  A    between atoms: C_22  and  O_15 
ROOT
ATOM      1  C   UNL d   1     -58.515 -98.889 -44.953  0.00  0.00     0.057 A 
ATOM      2  C   UNL d   1     -58.051 -98.933 -45.633  0.00  0.00     0.085 A 
ATOM      3  C   UNL d   1     -57.344 -98.998 -44.148  0.00  0.00     0.081 A 
ATOM      4  N   UNL d   1     -57.238 -99.008 -45.580  0.00  0.00    -0.245 NA
ATOM      5  C   UNL d   1     -59.303 -98.816 -45.182  0.00  0.00     0.197 A 
ATOM      6  C   UNL d   1     -58.158 -98.922 -44.213  0.00  0.00     0.013 A 
ATOM      7  C   UNL d   1     -56.878 -99.042 -44.832  0.00  0.00     0.086 A 
ATOM      8  C   UNL d   1     -58.555 -98.886 -46.288  0.00  0.00     0.021 A 
ATOM      9  C   UNL d   1     -59.327 -98.814 -46.011  0.00  0.00     0.041 A 
ATOM     10  O   UNL d   1     -59.955 -98.755 -44.677  0.00  0.00    -0.286 OA
ATOM     11  C   UNL d   1     -56.059 -99.118 -44.770  0.00  0.00     0.021 C 
ATOM     12  C   UNL d   1     -58.412 -98.899 -47.109  0.00  0.00     0.002 A 
ATOM     13  C   UNL d   1     -59.960 -98.755 -46.543  0.00  0.00     0.003 A 
ATOM     14  C   UNL d   1     -59.811 -98.769 -47.358  0.00  0.00     0.000 A 
ATOM     15  C   UNL d   1     -59.041 -98.841 -47.633  0.00  0.00     0.000 A 
ENDROOT
BRANCH   6  16
ATOM     16  C   UNL d   1     -58.622 -98.879 -43.532  0.00  0.00     0.020 A 
ATOM     17  C   UNL d   1     -58.261 -98.805 -42.802  0.00  0.00     0.099 A 
ATOM     18  N   UNL d   1     -58.722 -98.761 -42.119  0.00  0.00    -0.242 NA
ATOM     19  C   UNL d   1     -59.550 -98.793 -42.171  0.00  0.00     0.099 A 
ATOM     20  C   UNL d   1     -59.914 -98.868 -42.913  0.00  0.00     0.021 A 
ATOM     21  C   UNL d   1     -59.450 -98.911 -43.594  0.00  0.00     0.003 A 
ENDBRANCH   6  16
BRANCH   3  22
ATOM     22  C   UNL d   1     -56.984 -99.031 -43.406  0.00  0.00     0.302 C 
ATOM     23  O   UNL d   1     -57.399 -99.343 -42.765  0.00  0.00    -0.259 OA
BRANCH  22  24
ATOM     24  O   UNL d   1     -56.215 -98.755 -43.305  0.00  0.00    -0.271 OA
BRANCH  24  25
ATOM     25  C   UNL d   1     -55.747 -99.060 -42.700  0.00  0.00     0.126 C 
ATOM     26  C   UNL d   1     -54.950 -98.856 -42.657  0.00  0.00     0.029 C 
ENDBRANCH  24  25
ENDBRANCH  22  24
ENDBRANCH   3  22
TORSDOF 4
ENDMDL
