MODEL 1
REMARK VINA RESULT:       9.6      0.000      0.000
REMARK  4 active torsions:
REMARK  status: ('A' for Active; 'I' for Inactive)
REMARK    1  A    between atoms: C_7  and  C_4 
REMARK    2  A    between atoms: C_11  and  C_7 
REMARK    3  A    between atoms: C_9  and  O_16 
REMARK    4  A    between atoms: O_16  and  C_11 
ROOT
ATOM      1  C   UNL d   1      13.951  12.088  -2.442  0.00  0.00     0.124 C 
ENDROOT
BRANCH   1   2
ATOM      2  C   UNL d   1      14.007  11.786  -1.668  0.00  0.00     0.046 C 
BRANCH   2   3
ATOM      3  C   UNL d   1      14.430  12.202  -1.095  0.00  0.00     0.092 A 
ATOM      4  N   UNL d   1      14.546  13.016  -1.085  0.00  0.00    -0.219 NA
ATOM      5  C   UNL d   1      14.997  13.194  -0.417  0.00  0.00     0.215 A 
ATOM      6  S   UNL d   1      15.155  12.494  -0.022  0.00  0.00    -0.045 SA
ATOM      7  N   UNL d   1      15.246  13.945  -0.186  0.00  0.00    -0.120 N 
ATOM      8  C   UNL d   1      14.806  11.876  -0.437  0.00  0.00     0.058 A 
ENDBRANCH   2   3
ENDBRANCH   1   2
BRANCH   1   9
ATOM      9  O   UNL d   1      13.286  11.920  -2.891  0.00  0.00    -0.305 OA
BRANCH   9  10
ATOM     10  C   UNL d   1      13.231  12.212  -3.664  0.00  0.00     0.100 A 
ATOM     11  C   UNL d   1      13.551  11.783  -4.285  0.00  0.00     0.027 A 
ATOM     12  C   UNL d   1      13.496  12.074  -5.057  0.00  0.00     0.032 A 
ATOM     13  C   UNL d   1      13.121  12.794  -5.205  0.00  0.00     0.140 A 
ATOM     14  C   UNL d   1      12.798  13.227  -4.582  0.00  0.00     0.032 A 
ATOM     15  F   UNL d   1      13.068  13.080  -5.981  0.00  0.00    -0.204 F 
ATOM     16  C   UNL d   1      12.851  12.939  -3.814  0.00  0.00     0.027 A 
ENDBRANCH   9  10
ENDBRANCH   1   9
TORSDOF 4
ENDMDL
MODEL 2
REMARK VINA RESULT:      11.9      2.803      4.319
REMARK  4 active torsions:
REMARK  status: ('A' for Active; 'I' for Inactive)
REMARK    1  A    between atoms: C_7  and  C_4 
REMARK    2  A    between atoms: C_11  and  C_7 
REMARK    3  A    between atoms: C_9  and  O_16 
REMARK    4  A    between atoms: O_16  and  C_11 
ROOT
ATOM      1  C   UNL d   1      13.704  12.303  -2.755  0.00  0.00     0.124 C 
ENDROOT
BRANCH   1   2
ATOM      2  C   UNL d   1      13.384  11.801  -3.336  0.00  0.00     0.046 C 
BRANCH   2   3
ATOM      3  C   UNL d   1      13.259  12.084  -4.101  0.00  0.00     0.092 A 
ATOM      4  N   UNL d   1      13.599  11.779  -4.784  0.00  0.00    -0.219 NA
ATOM      5  C   UNL d   1      13.322  12.228  -5.420  0.00  0.00     0.215 A 
ATOM      6  S   UNL d   1      12.817  12.802  -5.127  0.00  0.00    -0.045 SA
ATOM      7  N   UNL d   1      13.519  12.117  -6.213  0.00  0.00    -0.120 N 
ATOM      8  C   UNL d   1      12.774  12.718  -4.310  0.00  0.00     0.058 A 
ENDBRANCH   2   3
ENDBRANCH   1   2
BRANCH   1   9
ATOM      9  O   UNL d   1      13.844  12.010  -2.002  0.00  0.00    -0.305 OA
BRANCH   9  10
ATOM     10  C   UNL d   1      14.378  12.399  -1.504  0.00  0.00     0.100 A 
ATOM     11  C   UNL d   1      14.719  13.104  -1.744  0.00  0.00     0.027 A 
ATOM     12  C   UNL d   1      15.252  13.494  -1.246  0.00  0.00     0.032 A 
ATOM     13  C   UNL d   1      15.441  13.175  -0.509  0.00  0.00     0.140 A 
ATOM     14  C   UNL d   1      15.099  12.466  -0.265  0.00  0.00     0.032 A 
ATOM     15  F   UNL d   1      15.977  13.570  -0.014  0.00  0.00    -0.204 F 
ATOM     16  C   UNL d   1      14.569  12.078  -0.758  0.00  0.00     0.027 A 
ENDBRANCH   9  10
ENDBRANCH   1   9
TORSDOF 4
ENDMDL
