MODEL 1
REMARK VINA RESULT:      -6.1      0.000      0.000
REMARK  2 active torsions:
REMARK  status: ('A' for Active; 'I' for Inactive)
REMARK    1  A    between atoms: C_3  and  C_4 
REMARK       I    between atoms: N_7  and  C_3 
REMARK    2  A    between atoms: C_11  and  N_7 
ROOT
ATOM      1  C   UNL d   1      56.367  -1.266  32.307  0.00  0.00     0.300 A 
ATOM      2  O   UNL d   1      56.891  -1.036  31.702  0.00  0.00    -0.268 OA
ATOM      3  C   UNL d   1      57.003  -0.226  31.539  0.00  0.00     0.161 A 
ATOM      4  C   UNL d   1      55.958  -0.696  32.747  0.00  0.00     0.064 A 
ATOM      5  C   UNL d   1      56.076   0.112  32.578  0.00  0.00     0.007 A 
ATOM      6  C   UNL d   1      56.594   0.348  31.979  0.00  0.00     0.030 A 
ATOM      7  O   UNL d   1      56.256  -2.064  32.468  0.00  0.00    -0.259 OA
ATOM      8  C   UNL d   1      55.666   0.682  33.019  0.00  0.00     0.000 A 
ATOM      9  C   UNL d   1      55.443  -0.925  33.343  0.00  0.00     0.005 A 
ATOM     10  C   UNL d   1      55.150   0.441  33.616  0.00  0.00     0.000 A 
ATOM     11  C   UNL d   1      55.039  -0.357  33.777  0.00  0.00     0.000 A 
ENDROOT
BRANCH   3  12
ATOM     12  C   UNL d   1      57.520  -0.003  30.942  0.00  0.00     0.302 C 
ATOM     13  N   UNL d   1      58.242  -0.384  30.852  0.00  0.00    -0.206 NA
ATOM     14  O   UNL d   1      57.310   0.608  30.432  0.00  0.00    -0.263 OA
BRANCH  13  15
ATOM     15  C   UNL d   1      58.752  -0.154  30.252  0.00  0.00     0.085 A 
ATOM     16  C   UNL d   1      58.724  -0.513  29.518  0.00  0.00     0.019 A 
ATOM     17  C   UNL d   1      59.228  -0.287  28.921  0.00  0.00     0.002 A 
ATOM     18  C   UNL d   1      59.784   0.317  29.053  0.00  0.00     0.000 A 
ATOM     19  C   UNL d   1      59.816   0.681  29.791  0.00  0.00     0.002 A 
ATOM     20  C   UNL d   1      60.292   0.546  28.455  0.00  0.00     0.000 C 
ATOM     21  C   UNL d   1      59.300   0.449  30.399  0.00  0.00     0.019 A 
ENDBRANCH  13  15
ENDBRANCH   3  12
TORSDOF 2
ENDMDL
MODEL 2
REMARK VINA RESULT:      -6.0      0.969      4.579
REMARK  2 active torsions:
REMARK  status: ('A' for Active; 'I' for Inactive)
REMARK    1  A    between atoms: C_3  and  C_4 
REMARK       I    between atoms: N_7  and  C_3 
REMARK    2  A    between atoms: C_11  and  N_7 
ROOT
ATOM      1  C   UNL d   1      58.507  -1.145  29.633  0.00  0.00     0.300 A 
ATOM      2  O   UNL d   1      57.905  -0.965  30.178  0.00  0.00    -0.268 OA
ATOM      3  C   UNL d   1      57.909  -0.229  30.570  0.00  0.00     0.161 A 
ATOM      4  C   UNL d   1      59.110  -0.599  29.477  0.00  0.00     0.064 A 
ATOM      5  C   UNL d   1      59.107   0.135  29.873  0.00  0.00     0.007 A 
ATOM      6  C   UNL d   1      58.513   0.321  30.416  0.00  0.00     0.030 A 
ATOM      7  O   UNL d   1      58.503  -1.870  29.246  0.00  0.00    -0.259 OA
ATOM      8  C   UNL d   1      59.711   0.681  29.717  0.00  0.00     0.000 A 
ATOM      9  C   UNL d   1      59.702  -0.778  28.940  0.00  0.00     0.005 A 
ATOM     10  C   UNL d   1      60.302   0.491  29.174  0.00  0.00     0.000 A 
ATOM     11  C   UNL d   1      60.297  -0.234  28.788  0.00  0.00     0.000 A 
ENDROOT
BRANCH   3  12
ATOM     12  C   UNL d   1      57.314  -0.054  31.108  0.00  0.00     0.302 C 
ATOM     13  N   UNL d   1      57.306  -0.408  31.849  0.00  0.00    -0.206 NA
ATOM     14  O   UNL d   1      56.724   0.480  30.899  0.00  0.00    -0.263 OA
BRANCH  13  15
ATOM     15  C   UNL d   1      56.707  -0.227  32.380  0.00  0.00     0.085 A 
ATOM     16  C   UNL d   1      56.686   0.499  32.756  0.00  0.00     0.019 A 
ATOM     17  C   UNL d   1      56.094   0.681  33.283  0.00  0.00     0.002 A 
ATOM     18  C   UNL d   1      55.498   0.126  33.446  0.00  0.00     0.000 A 
ATOM     19  C   UNL d   1      55.514  -0.606  33.070  0.00  0.00     0.002 A 
ATOM     20  C   UNL d   1      54.901   0.306  33.976  0.00  0.00     0.000 C 
ATOM     21  C   UNL d   1      56.120  -0.791  32.532  0.00  0.00     0.019 A 
ENDBRANCH  13  15
ENDBRANCH   3  12
TORSDOF 2
ENDMDL
