MODEL 1
REMARK VINA RESULT:      -4.0      0.000      0.000
REMARK  1 active torsions:
REMARK  status: ('A' for Active; 'I' for Inactive)
REMARK    1  A    between atoms: C_8  and  C_1 
ROOT
ATOM      1  C   UNL d   1      56.898   0.291  33.294  0.00  0.00     0.010 A 
ATOM      2  C   UNL d   1      56.128   0.388  33.582  0.00  0.00     0.062 A 
ATOM      3  C   UNL d   1      56.010   0.582  34.379  0.00  0.00     0.106 A 
ATOM      4  C   UNL d   1      55.481   0.293  33.083  0.00  0.00     0.198 A 
ATOM      5  O   UNL d   1      56.655   0.678  34.880  0.00  0.00    -0.273 OA
ATOM      6  C   UNL d   1      57.545   0.386  33.792  0.00  0.00     0.069 A 
ATOM      7  C   UNL d   1      57.428   0.579  34.586  0.00  0.00     0.300 A 
ATOM      8  C   UNL d   1      55.246   0.680  34.670  0.00  0.00     0.025 A 
ATOM      9  C   UNL d   1      54.714   0.390  33.372  0.00  0.00     0.042 A 
ATOM     10  O   UNL d   1      58.077   0.675  35.091  0.00  0.00    -0.259 OA
ATOM     11  C   UNL d   1      54.597   0.583  34.165  0.00  0.00     0.005 A 
ATOM     12  O   UNL d   1      55.599   0.099  32.286  0.00  0.00    -0.286 OA
ATOM     13  C   UNL d   1      53.836   0.682  34.461  0.00  0.00     0.000 C 
ENDROOT
BRANCH   1  14
ATOM     14  C   UNL d   1      57.016   0.097  32.497  0.00  0.00     0.000 A 
ATOM     15  C   UNL d   1      56.923  -0.688  32.246  0.00  0.00     0.000 A 
ATOM     16  C   UNL d   1      57.042  -0.885  31.440  0.00  0.00     0.000 A 
ATOM     17  C   UNL d   1      57.252  -0.301  30.900  0.00  0.00     0.000 A 
ATOM     18  C   UNL d   1      57.344   0.488  31.164  0.00  0.00     0.000 A 
ATOM     19  C   UNL d   1      57.226   0.682  31.957  0.00  0.00     0.000 A 
ENDBRANCH   1  14
TORSDOF 1
ENDMDL
MODEL 2
REMARK VINA RESULT:      -3.3      3.001      4.718
REMARK  1 active torsions:
REMARK  status: ('A' for Active; 'I' for Inactive)
REMARK    1  A    between atoms: C_8  and  C_1 
ROOT
ATOM      1  C   UNL d   1      59.157  -0.855  29.556  0.00  0.00     0.010 A 
ATOM      2  C   UNL d   1      58.583  -0.585  30.088  0.00  0.00     0.062 A 
ATOM      3  C   UNL d   1      57.965  -1.090  30.315  0.00  0.00     0.106 A 
ATOM      4  C   UNL d   1      58.621   0.177  30.393  0.00  0.00     0.198 A 
ATOM      5  O   UNL d   1      57.925  -1.853  30.011  0.00  0.00    -0.273 OA
ATOM      6  C   UNL d   1      59.119  -1.617  29.251  0.00  0.00     0.069 A 
ATOM      7  C   UNL d   1      58.505  -2.120  29.476  0.00  0.00     0.300 A 
ATOM      8  C   UNL d   1      57.392  -0.827  30.844  0.00  0.00     0.025 A 
ATOM      9  C   UNL d   1      58.048   0.444  30.923  0.00  0.00     0.042 A 
ATOM     10  O   UNL d   1      58.463  -2.889  29.171  0.00  0.00    -0.259 OA
ATOM     11  C   UNL d   1      57.434  -0.058  31.148  0.00  0.00     0.005 A 
ATOM     12  O   UNL d   1      59.238   0.682  30.166  0.00  0.00    -0.286 OA
ATOM     13  C   UNL d   1      56.858   0.199  31.676  0.00  0.00     0.000 C 
ENDROOT
BRANCH   1  14
ATOM     14  C   UNL d   1      59.775  -0.350  29.329  0.00  0.00     0.000 A 
ATOM     15  C   UNL d   1      60.486  -0.353  29.756  0.00  0.00     0.000 A 
ATOM     16  C   UNL d   1      61.111   0.157  29.527  0.00  0.00     0.000 A 
ATOM     17  C   UNL d   1      61.017   0.658  28.881  0.00  0.00     0.000 A 
ATOM     18  C   UNL d   1      60.295   0.653  28.458  0.00  0.00     0.000 A 
ATOM     19  C   UNL d   1      59.681   0.151  28.683  0.00  0.00     0.000 A 
ENDBRANCH   1  14
TORSDOF 1
ENDMDL
MODEL 3
REMARK VINA RESULT:      -3.2      3.266      4.991
REMARK  1 active torsions:
REMARK  status: ('A' for Active; 'I' for Inactive)
REMARK    1  A    between atoms: C_8  and  C_1 
ROOT
ATOM      1  C   UNL d   1      59.306  -0.977  29.175  0.00  0.00     0.010 A 
ATOM      2  C   UNL d   1      58.797  -0.588  29.700  0.00  0.00     0.062 A 
ATOM      3  C   UNL d   1      58.869   0.231  29.808  0.00  0.00     0.106 A 
ATOM      4  C   UNL d   1      58.222  -1.007  30.112  0.00  0.00     0.198 A 
ATOM      5  O   UNL d   1      59.443   0.652  29.397  0.00  0.00    -0.273 OA
ATOM      6  C   UNL d   1      59.881  -0.558  28.763  0.00  0.00     0.069 A 
ATOM      7  C   UNL d   1      59.953   0.256  28.871  0.00  0.00     0.300 A 
ATOM      8  C   UNL d   1      58.365   0.623  30.328  0.00  0.00     0.025 A 
ATOM      9  C   UNL d   1      57.716  -0.617  30.633  0.00  0.00     0.042 A 
ATOM     10  O   UNL d   1      60.531   0.682  28.457  0.00  0.00    -0.259 OA
ATOM     11  C   UNL d   1      57.787   0.197  30.742  0.00  0.00     0.005 A 
ATOM     12  O   UNL d   1      58.151  -1.825  30.003  0.00  0.00    -0.286 OA
ATOM     13  C   UNL d   1      57.287   0.594  31.260  0.00  0.00     0.000 C 
ENDROOT
BRANCH   1  14
ATOM     14  C   UNL d   1      59.235  -1.796  29.067  0.00  0.00     0.000 A 
ATOM     15  C   UNL d   1      59.748  -2.311  29.466  0.00  0.00     0.000 A 
ATOM     16  C   UNL d   1      59.675  -3.138  29.356  0.00  0.00     0.000 A 
ATOM     17  C   UNL d   1      59.097  -3.438  28.853  0.00  0.00     0.000 A 
ATOM     18  C   UNL d   1      58.585  -2.910  28.455  0.00  0.00     0.000 A 
ATOM     19  C   UNL d   1      58.656  -2.095  28.563  0.00  0.00     0.000 A 
ENDBRANCH   1  14
TORSDOF 1
ENDMDL
MODEL 4
REMARK VINA RESULT:      -3.2      9.575     10.747
REMARK  1 active torsions:
REMARK  status: ('A' for Active; 'I' for Inactive)
REMARK    1  A    between atoms: C_8  and  C_1 
ROOT
ATOM      1  C   UNL d   1      58.947  -9.415  33.433  0.00  0.00     0.010 A 
ATOM      2  C   UNL d   1      59.500  -9.515  32.825  0.00  0.00     0.062 A 
ATOM      3  C   UNL d   1      59.240  -9.713  32.063  0.00  0.00     0.106 A 
ATOM      4  C   UNL d   1      60.304  -9.419  32.970  0.00  0.00     0.198 A 
ATOM      5  O   UNL d   1      58.436  -9.809  31.915  0.00  0.00    -0.273 OA
ATOM      6  C   UNL d   1      58.144  -9.511  33.288  0.00  0.00     0.069 A 
ATOM      7  C   UNL d   1      57.885  -9.708  32.530  0.00  0.00     0.300 A 
ATOM      8  C   UNL d   1      59.785  -9.813  31.454  0.00  0.00     0.025 A 
ATOM      9  C   UNL d   1      60.853  -9.518  32.363  0.00  0.00     0.042 A 
ATOM     10  O   UNL d   1      57.075  -9.806  32.380  0.00  0.00    -0.259 OA
ATOM     11  C   UNL d   1      60.593  -9.716  31.605  0.00  0.00     0.005 A 
ATOM     12  O   UNL d   1      60.564  -9.221  33.732  0.00  0.00    -0.286 OA
ATOM     13  C   UNL d   1      61.133  -9.817  30.994  0.00  0.00     0.000 C 
ENDROOT
BRANCH   1  14
ATOM     14  C   UNL d   1      59.208  -9.217  34.195  0.00  0.00     0.000 A 
ATOM     15  C   UNL d   1      59.401  -9.818  34.733  0.00  0.00     0.000 A 
ATOM     16  C   UNL d   1      59.665  -9.617  35.503  0.00  0.00     0.000 A 
ATOM     17  C   UNL d   1      59.731  -8.828  35.724  0.00  0.00     0.000 A 
ATOM     18  C   UNL d   1      59.534  -8.229  35.173  0.00  0.00     0.000 A 
ATOM     19  C   UNL d   1      59.275  -8.426  34.415  0.00  0.00     0.000 A 
ENDBRANCH   1  14
TORSDOF 1
ENDMDL
MODEL 5
REMARK VINA RESULT:      -2.8      3.811      5.620
REMARK  1 active torsions:
REMARK  status: ('A' for Active; 'I' for Inactive)
REMARK    1  A    between atoms: C_8  and  C_1 
ROOT
ATOM      1  C   UNL d   1      59.068  -0.679  29.598  0.00  0.00     0.010 A 
ATOM      2  C   UNL d   1      59.003  -1.458  29.325  0.00  0.00     0.062 A 
ATOM      3  C   UNL d   1      58.341  -1.911  29.532  0.00  0.00     0.106 A 
ATOM      4  C   UNL d   1      59.590  -1.784  28.850  0.00  0.00     0.198 A 
ATOM      5  O   UNL d   1      57.752  -1.588  30.007  0.00  0.00    -0.273 OA
ATOM      6  C   UNL d   1      58.481  -0.353  30.073  0.00  0.00     0.069 A 
ATOM      7  C   UNL d   1      57.822  -0.804  30.279  0.00  0.00     0.300 A 
ATOM      8  C   UNL d   1      58.272  -2.686  29.263  0.00  0.00     0.025 A 
ATOM      9  C   UNL d   1      59.524  -2.560  28.579  0.00  0.00     0.042 A 
ATOM     10  O   UNL d   1      57.228  -0.479  30.757  0.00  0.00    -0.259 OA
ATOM     11  C   UNL d   1      58.865  -3.011  28.785  0.00  0.00     0.005 A 
ATOM     12  O   UNL d   1      60.252  -1.330  28.643  0.00  0.00    -0.286 OA
ATOM     13  C   UNL d   1      58.791  -3.785  28.519  0.00  0.00     0.000 C 
ENDROOT
BRANCH   1  14
ATOM     14  C   UNL d   1      59.730  -0.225  29.391  0.00  0.00     0.000 A 
ATOM     15  C   UNL d   1      60.364  -0.157  29.921  0.00  0.00     0.000 A 
ATOM     16  C   UNL d   1      61.034   0.302  29.712  0.00  0.00     0.000 A 
ATOM     17  C   UNL d   1      61.061   0.682  28.983  0.00  0.00     0.000 A 
ATOM     18  C   UNL d   1      60.416   0.606  28.455  0.00  0.00     0.000 A 
ATOM     19  C   UNL d   1      59.757   0.155  28.661  0.00  0.00     0.000 A 
ENDBRANCH   1  14
TORSDOF 1
ENDMDL
MODEL 6
REMARK VINA RESULT:      -2.7      2.269      4.493
REMARK  1 active torsions:
REMARK  status: ('A' for Active; 'I' for Inactive)
REMARK    1  A    between atoms: C_8  and  C_1 
ROOT
ATOM      1  C   UNL d   1      57.777   0.281  30.596  0.00  0.00     0.010 A 
ATOM      2  C   UNL d   1      58.593   0.381  30.696  0.00  0.00     0.062 A 
ATOM      3  C   UNL d   1      59.065   0.576  30.044  0.00  0.00     0.106 A 
ATOM      4  C   UNL d   1      58.937   0.287  31.437  0.00  0.00     0.198 A 
ATOM      5  O   UNL d   1      58.724   0.670  29.301  0.00  0.00    -0.273 OA
ATOM      6  C   UNL d   1      57.433   0.375  29.855  0.00  0.00     0.069 A 
ATOM      7  C   UNL d   1      57.903   0.569  29.206  0.00  0.00     0.300 A 
ATOM      8  C   UNL d   1      59.877   0.676  30.138  0.00  0.00     0.025 A 
ATOM      9  C   UNL d   1      59.749   0.386  31.536  0.00  0.00     0.042 A 
ATOM     10  O   UNL d   1      57.560   0.665  28.457  0.00  0.00    -0.259 OA
ATOM     11  C   UNL d   1      60.220   0.580  30.886  0.00  0.00     0.005 A 
ATOM     12  O   UNL d   1      58.464   0.092  32.090  0.00  0.00    -0.286 OA
ATOM     13  C   UNL d   1      61.031   0.681  30.975  0.00  0.00     0.000 C 
ENDROOT
BRANCH   1  14
ATOM     14  C   UNL d   1      57.304   0.086  31.248  0.00  0.00     0.000 A 
ATOM     15  C   UNL d   1      57.129  -0.709  31.407  0.00  0.00     0.000 A 
ATOM     16  C   UNL d   1      56.652  -0.906  32.067  0.00  0.00     0.000 A 
ATOM     17  C   UNL d   1      56.358  -0.313  32.555  0.00  0.00     0.000 A 
ATOM     18  C   UNL d   1      56.540   0.486  32.386  0.00  0.00     0.000 A 
ATOM     19  C   UNL d   1      57.010   0.680  31.736  0.00  0.00     0.000 A 
ENDBRANCH   1  14
TORSDOF 1
ENDMDL
MODEL 7
REMARK VINA RESULT:      -2.2      2.028      3.047
REMARK  1 active torsions:
REMARK  status: ('A' for Active; 'I' for Inactive)
REMARK    1  A    between atoms: C_8  and  C_1 
ROOT
ATOM      1  C   UNL d   1      58.846   0.287  30.871  0.00  0.00     0.010 A 
ATOM      2  C   UNL d   1      58.151   0.385  31.311  0.00  0.00     0.062 A 
ATOM      3  C   UNL d   1      58.199   0.583  32.114  0.00  0.00     0.106 A 
ATOM      4  C   UNL d   1      57.415   0.287  30.957  0.00  0.00     0.198 A 
ATOM      5  O   UNL d   1      58.933   0.681  32.471  0.00  0.00    -0.273 OA
ATOM      6  C   UNL d   1      59.581   0.385  31.226  0.00  0.00     0.069 A 
ATOM      7  C   UNL d   1      59.629   0.582  32.025  0.00  0.00     0.300 A 
ATOM      8  C   UNL d   1      57.511   0.681  32.556  0.00  0.00     0.025 A 
ATOM      9  C   UNL d   1      56.724   0.385  31.396  0.00  0.00     0.042 A 
ATOM     10  O   UNL d   1      60.369   0.681  32.386  0.00  0.00    -0.259 OA
ATOM     11  C   UNL d   1      56.772   0.582  32.195  0.00  0.00     0.005 A 
ATOM     12  O   UNL d   1      57.368   0.090  30.153  0.00  0.00    -0.286 OA
ATOM     13  C   UNL d   1      56.088   0.681  32.641  0.00  0.00     0.000 C 
ENDROOT
BRANCH   1  14
ATOM     14  C   UNL d   1      58.798   0.089  30.068  0.00  0.00     0.000 A 
ATOM     15  C   UNL d   1      58.732  -0.706  29.843  0.00  0.00     0.000 A 
ATOM     16  C   UNL d   1      58.684  -0.906  29.030  0.00  0.00     0.000 A 
ATOM     17  C   UNL d   1      58.702  -0.315  28.459  0.00  0.00     0.000 A 
ATOM     18  C   UNL d   1      58.769   0.485  28.696  0.00  0.00     0.000 A 
ATOM     19  C   UNL d   1      58.816   0.682  29.496  0.00  0.00     0.000 A 
ENDBRANCH   1  14
TORSDOF 1
ENDMDL
MODEL 8
REMARK VINA RESULT:      -2.2      0.973      2.063
REMARK  1 active torsions:
REMARK  status: ('A' for Active; 'I' for Inactive)
REMARK    1  A    between atoms: C_8  and  C_1 
ROOT
ATOM      1  C   UNL d   1      55.886   0.275  33.115  0.00  0.00     0.010 A 
ATOM      2  C   UNL d   1      56.232   0.376  33.860  0.00  0.00     0.062 A 
ATOM      3  C   UNL d   1      55.755   0.559  34.513  0.00  0.00     0.106 A 
ATOM      4  C   UNL d   1      57.045   0.296  33.957  0.00  0.00     0.198 A 
ATOM      5  O   UNL d   1      54.942   0.640  34.418  0.00  0.00    -0.273 OA
ATOM      6  C   UNL d   1      55.073   0.355  33.018  0.00  0.00     0.069 A 
ATOM      7  C   UNL d   1      54.598   0.537  33.667  0.00  0.00     0.300 A 
ATOM      8  C   UNL d   1      56.095   0.660  35.256  0.00  0.00     0.025 A 
ATOM      9  C   UNL d   1      57.388   0.397  34.700  0.00  0.00     0.042 A 
ATOM     10  O   UNL d   1      53.779   0.619  33.573  0.00  0.00    -0.259 OA
ATOM     11  C   UNL d   1      56.913   0.579  35.349  0.00  0.00     0.005 A 
ATOM     12  O   UNL d   1      57.522   0.114  33.304  0.00  0.00    -0.286 OA
ATOM     13  C   UNL d   1      57.247   0.681  36.093  0.00  0.00     0.000 C 
ENDROOT
BRANCH   1  14
ATOM     14  C   UNL d   1      56.363   0.093  32.462  0.00  0.00     0.000 A 
ATOM     15  C   UNL d   1      56.378  -0.683  32.167  0.00  0.00     0.000 A 
ATOM     16  C   UNL d   1      56.860  -0.867  31.507  0.00  0.00     0.000 A 
ATOM     17  C   UNL d   1      57.318  -0.282  31.154  0.00  0.00     0.000 A 
ATOM     18  C   UNL d   1      57.295   0.497  31.460  0.00  0.00     0.000 A 
ATOM     19  C   UNL d   1      56.820   0.679  32.109  0.00  0.00     0.000 A 
ENDBRANCH   1  14
TORSDOF 1
ENDMDL
MODEL 9
REMARK VINA RESULT:      -1.6      1.584      2.449
REMARK  1 active torsions:
REMARK  status: ('A' for Active; 'I' for Inactive)
REMARK    1  A    between atoms: C_8  and  C_1 
ROOT
ATOM      1  C   UNL d   1      56.850  -0.523  32.013  0.00  0.00     0.010 A 
ATOM      2  C   UNL d   1      57.050  -0.217  32.756  0.00  0.00     0.062 A 
ATOM      3  C   UNL d   1      56.640  -0.477  33.428  0.00  0.00     0.106 A 
ATOM      4  C   UNL d   1      57.649   0.340  32.832  0.00  0.00     0.198 A 
ATOM      5  O   UNL d   1      56.040  -1.035  33.356  0.00  0.00    -0.273 OA
ATOM      6  C   UNL d   1      56.251  -1.080  31.937  0.00  0.00     0.069 A 
ATOM      7  C   UNL d   1      55.844  -1.339  32.606  0.00  0.00     0.300 A 
ATOM      8  C   UNL d   1      56.834  -0.176  34.170  0.00  0.00     0.025 A 
ATOM      9  C   UNL d   1      57.846   0.643  33.573  0.00  0.00     0.042 A 
ATOM     10  O   UNL d   1      55.239  -1.901  32.534  0.00  0.00    -0.259 OA
ATOM     11  C   UNL d   1      57.439   0.385  34.242  0.00  0.00     0.005 A 
ATOM     12  O   UNL d   1      58.058   0.600  32.159  0.00  0.00    -0.286 OA
ATOM     13  C   UNL d   1      57.628   0.682  34.985  0.00  0.00     0.000 C 
ENDROOT
BRANCH   1  14
ATOM     14  C   UNL d   1      57.260  -0.263  31.340  0.00  0.00     0.000 A 
ATOM     15  C   UNL d   1      57.007   0.419  30.942  0.00  0.00     0.000 A 
ATOM     16  C   UNL d   1      57.421   0.682  30.262  0.00  0.00     0.000 A 
ATOM     17  C   UNL d   1      58.075   0.263  29.991  0.00  0.00     0.000 A 
ATOM     18  C   UNL d   1      58.322  -0.424  30.399  0.00  0.00     0.000 A 
ATOM     19  C   UNL d   1      57.914  -0.683  31.069  0.00  0.00     0.000 A 
ENDBRANCH   1  14
TORSDOF 1
ENDMDL
