MODEL 1
REMARK VINA RESULT:       3.9      0.000      0.000
REMARK  4 active torsions:
REMARK  status: ('A' for Active; 'I' for Inactive)
REMARK    1  A    between atoms: C_8  and  C_1 
REMARK    2  A    between atoms: C_6  and  C_2 
REMARK    3  A    between atoms: O_17  and  C_8 
REMARK    4  A    between atoms: C_20  and  O_17 
ROOT
ATOM      1  C   UNL d   1     -42.888-123.251 -49.232  0.00  0.00     0.099 A 
ATOM      2  C   UNL d   1     -42.115-123.326 -49.465  0.00  0.00     0.093 A 
ATOM      3  C   UNL d   1     -43.095-123.353 -48.440  0.00  0.00     0.093 A 
ATOM      4  C   UNL d   1     -41.728-123.605 -48.137  0.00  0.00     0.369 A 
ATOM      5  N   UNL d   1     -42.513-123.529 -47.896  0.00  0.00    -0.191 NA
ATOM      6  N   UNL d   1     -41.536-123.503 -48.914  0.00  0.00    -0.191 NA
ATOM      7  O   UNL d   1     -41.123-123.785 -47.588  0.00  0.00    -0.242 OA
ATOM      8  C   UNL d   1     -43.892-123.278 -48.191  0.00  0.00     0.021 C 
ENDROOT
BRANCH   2   9
ATOM      9  C   UNL d   1     -41.816-123.206 -50.447  0.00  0.00     0.029 A 
ATOM     10  C   UNL d   1     -41.367-122.541 -50.583  0.00  0.00     0.060 A 
ATOM     11  C   UNL d   1     -41.123-122.447 -51.396  0.00  0.00     0.023 A 
ATOM     12 CL   UNL d   1     -41.154-122.011 -50.050  0.00  0.00    -0.082 Cl
ATOM     13  C   UNL d   1     -41.357-123.021 -51.961  0.00  0.00     0.059 A 
ATOM     14  C   UNL d   1     -41.805-123.656 -51.747  0.00  0.00     0.011 A 
ATOM     15 CL   UNL d   1     -41.125-122.940 -52.758  0.00  0.00    -0.082 Cl
ATOM     16  C   UNL d   1     -42.050-123.760 -50.959  0.00  0.00     0.003 A 
ENDBRANCH   2   9
BRANCH   1  17
ATOM     17  C   UNL d   1     -43.459-123.073 -49.801  0.00  0.00     0.303 C 
ATOM     18  O   UNL d   1     -43.774-123.643 -50.292  0.00  0.00    -0.259 OA
BRANCH  17  19
ATOM     19  O   UNL d   1     -43.737-122.272 -49.890  0.00  0.00    -0.271 OA
BRANCH  19  20
ATOM     20  C   UNL d   1     -44.478-122.144 -50.280  0.00  0.00     0.126 C 
ATOM     21  C   UNL d   1     -44.747-121.376 -50.413  0.00  0.00     0.029 C 
ENDBRANCH  19  20
ENDBRANCH  17  19
ENDBRANCH   1  17
TORSDOF 4
ENDMDL
MODEL 2
REMARK VINA RESULT:       4.3      1.385      2.406
REMARK  4 active torsions:
REMARK  status: ('A' for Active; 'I' for Inactive)
REMARK    1  A    between atoms: C_8  and  C_1 
REMARK    2  A    between atoms: C_6  and  C_2 
REMARK    3  A    between atoms: O_17  and  C_8 
REMARK    4  A    between atoms: C_20  and  O_17 
ROOT
ATOM      1  C   UNL d   1     -42.690-123.231 -49.092  0.00  0.00     0.099 A 
ATOM      2  C   UNL d   1     -42.990-123.045 -49.823  0.00  0.00     0.093 A 
ATOM      3  C   UNL d   1     -43.162-123.620 -48.538  0.00  0.00     0.093 A 
ATOM      4  C   UNL d   1     -44.230-123.622 -49.477  0.00  0.00     0.369 A 
ATOM      5  N   UNL d   1     -43.929-123.813 -48.733  0.00  0.00    -0.191 NA
ATOM      6  N   UNL d   1     -43.761-123.242 -50.012  0.00  0.00    -0.191 NA
ATOM      7  O   UNL d   1     -45.016-123.815 -49.688  0.00  0.00    -0.242 OA
ATOM      8  C   UNL d   1     -42.859-123.816 -47.780  0.00  0.00     0.021 C 
ENDROOT
BRANCH   2   9
ATOM      9  C   UNL d   1     -42.432-122.559 -50.544  0.00  0.00     0.029 A 
ATOM     10  C   UNL d   1     -42.140-123.045 -51.128  0.00  0.00     0.060 A 
ATOM     11  C   UNL d   1     -41.679-122.638 -51.721  0.00  0.00     0.023 A 
ATOM     12 CL   UNL d   1     -42.246-123.817 -51.181  0.00  0.00    -0.082 Cl
ATOM     13  C   UNL d   1     -41.571-121.809 -51.655  0.00  0.00     0.059 A 
ATOM     14  C   UNL d   1     -41.894-121.395 -51.044  0.00  0.00     0.011 A 
ATOM     15 CL   UNL d   1     -41.124-121.400 -52.229  0.00  0.00    -0.082 Cl
ATOM     16  C   UNL d   1     -42.345-121.779 -50.459  0.00  0.00     0.003 A 
ENDBRANCH   2   9
BRANCH   1  17
ATOM     17  C   UNL d   1     -41.911-123.025 -48.918  0.00  0.00     0.303 C 
ATOM     18  O   UNL d   1     -41.279-123.339 -49.328  0.00  0.00    -0.259 OA
BRANCH  17  19
ATOM     19  O   UNL d   1     -41.745-122.469 -48.294  0.00  0.00    -0.271 OA
BRANCH  19  20
ATOM     20  C   UNL d   1     -41.207-122.700 -47.681  0.00  0.00     0.126 C 
ATOM     21  C   UNL d   1     -41.241-122.334 -46.943  0.00  0.00     0.029 C 
ENDBRANCH  19  20
ENDBRANCH  17  19
ENDBRANCH   1  17
TORSDOF 4
ENDMDL
MODEL 3
REMARK VINA RESULT:       5.8      2.368      3.872
REMARK  4 active torsions:
REMARK  status: ('A' for Active; 'I' for Inactive)
REMARK    1  A    between atoms: C_8  and  C_1 
REMARK    2  A    between atoms: C_6  and  C_2 
REMARK    3  A    between atoms: O_17  and  C_8 
REMARK    4  A    between atoms: C_20  and  O_17 
ROOT
ATOM      1  C   UNL d   1     -41.937-121.918 -52.450  0.00  0.00     0.099 A 
ATOM      2  C   UNL d   1     -42.031-122.681 -52.191  0.00  0.00     0.093 A 
ATOM      3  C   UNL d   1     -41.783-121.766 -53.245  0.00  0.00     0.093 A 
ATOM      4  C   UNL d   1     -41.821-123.165 -53.500  0.00  0.00     0.369 A 
ATOM      5  N   UNL d   1     -41.725-122.390 -53.767  0.00  0.00    -0.191 NA
ATOM      6  N   UNL d   1     -41.972-123.303 -52.719  0.00  0.00    -0.191 NA
ATOM      7  O   UNL d   1     -41.764-123.813 -54.026  0.00  0.00    -0.242 OA
ATOM      8  C   UNL d   1     -41.685-120.979 -53.521  0.00  0.00     0.021 C 
ENDROOT
BRANCH   2   9
ATOM      9  C   UNL d   1     -42.225-122.913 -51.203  0.00  0.00     0.029 A 
ATOM     10  C   UNL d   1     -41.719-123.462 -50.880  0.00  0.00     0.060 A 
ATOM     11  C   UNL d   1     -41.883-123.650 -50.063  0.00  0.00     0.023 A 
ATOM     12 CL   UNL d   1     -41.123-123.811 -51.246  0.00  0.00    -0.082 Cl
ATOM     13  C   UNL d   1     -42.525-123.269 -49.680  0.00  0.00     0.059 A 
ATOM     14  C   UNL d   1     -42.984-122.733 -50.069  0.00  0.00     0.011 A 
ATOM     15 CL   UNL d   1     -42.697-123.444 -48.882  0.00  0.00    -0.082 Cl
ATOM     16  C   UNL d   1     -42.834-122.541 -50.865  0.00  0.00     0.003 A 
ENDBRANCH   2   9
BRANCH   1  17
ATOM     17  C   UNL d   1     -42.000-121.303 -51.903  0.00  0.00     0.303 C 
ATOM     18  O   UNL d   1     -42.722-121.028 -51.642  0.00  0.00    -0.259 OA
BRANCH  17  19
ATOM     19  O   UNL d   1     -41.297-120.934 -51.593  0.00  0.00    -0.271 OA
BRANCH  19  20
ATOM     20  C   UNL d   1     -41.166-120.113 -51.759  0.00  0.00     0.126 C 
ATOM     21  C   UNL d   1     -41.126-119.569 -51.141  0.00  0.00     0.029 C 
ENDBRANCH  19  20
ENDBRANCH  17  19
ENDBRANCH   1  17
TORSDOF 4
ENDMDL
