MODEL 1
REMARK VINA RESULT:      -2.5      0.000      0.000
REMARK  3 active torsions:
REMARK  status: ('A' for Active; 'I' for Inactive)
REMARK    1  A    between atoms: C_12  and  C_5 
REMARK    2  A    between atoms: C_14  and  C_12 
REMARK    3  A    between atoms: C_15  and  C_14 
ROOT
ATOM      1  C   UNL d   1      59.162   0.642  29.202  0.00  0.00     0.206 A 
ATOM      2  C   UNL d   1      58.575   0.658  29.781  0.00  0.00     0.063 A 
ATOM      3  C   UNL d   1      59.570   0.659  30.792  0.00  0.00     0.111 A 
ATOM      4  C   UNL d   1      60.155   0.644  30.216  0.00  0.00     0.214 A 
ATOM      5  C   UNL d   1      58.776   0.666  30.571  0.00  0.00     0.018 A 
ATOM      6  O   UNL d   1      59.946   0.635  29.418  0.00  0.00    -0.268 OA
ATOM      7  N   UNL d   1      58.820   0.636  28.484  0.00  0.00    -0.123 NA
ATOM      8  N   UNL d   1      58.021   0.647  28.576  0.00  0.00    -0.146 NA
ATOM      9  C   UNL d   1      57.854   0.661  29.379  0.00  0.00     0.106 A 
ATOM     10  C   UNL d   1      59.779   0.668  31.590  0.00  0.00     0.105 C 
ATOM     11  N   UNL d   1      59.983   0.677  32.377  0.00  0.00    -0.191 NA
ATOM     12  N   UNL d   1      60.921   0.637  30.429  0.00  0.00    -0.120 N 
ATOM     13  C   UNL d   1      56.981   0.676  29.652  0.00  0.00     0.023 C 
ENDROOT
BRANCH   5  14
ATOM     14  C   UNL d   1      58.199   0.682  31.139  0.00  0.00     0.001 C 
BRANCH  14  15
ATOM     15  C   UNL d   1      57.873   0.005  31.690  0.00  0.00     0.000 C 
BRANCH  15  16
ATOM     16  C   UNL d   1      57.194   0.023  32.160  0.00  0.00     0.000 A 
ATOM     17  C   UNL d   1      56.627  -0.594  32.110  0.00  0.00     0.000 A 
ATOM     18  C   UNL d   1      55.963  -0.566  32.577  0.00  0.00     0.000 A 
ATOM     19  C   UNL d   1      55.842   0.071  33.105  0.00  0.00     0.000 A 
ATOM     20  C   UNL d   1      56.400   0.677  33.154  0.00  0.00     0.000 A 
ATOM     21  C   UNL d   1      57.075   0.644  32.676  0.00  0.00     0.000 A 
ENDBRANCH  15  16
ENDBRANCH  14  15
ENDBRANCH   5  14
TORSDOF 3
ENDMDL
MODEL 2
REMARK VINA RESULT:      -1.9      9.983     10.476
REMARK  3 active torsions:
REMARK  status: ('A' for Active; 'I' for Inactive)
REMARK    1  A    between atoms: C_12  and  C_5 
REMARK    2  A    between atoms: C_14  and  C_12 
REMARK    3  A    between atoms: C_15  and  C_14 
ROOT
ATOM      1  C   UNL d   1      57.856  -9.817  30.892  0.00  0.00     0.206 A 
ATOM      2  C   UNL d   1      58.168  -9.817  31.656  0.00  0.00     0.063 A 
ATOM      3  C   UNL d   1      59.482  -9.817  31.120  0.00  0.00     0.111 A 
ATOM      4  C   UNL d   1      59.172  -9.817  30.360  0.00  0.00     0.214 A 
ATOM      5  C   UNL d   1      58.975  -9.817  31.771  0.00  0.00     0.018 A 
ATOM      6  O   UNL d   1      58.354  -9.817  30.250  0.00  0.00    -0.268 OA
ATOM      7  N   UNL d   1      57.062  -9.817  30.936  0.00  0.00    -0.123 NA
ATOM      8  N   UNL d   1      56.843  -9.817  31.710  0.00  0.00    -0.146 NA
ATOM      9  C   UNL d   1      57.522  -9.817  32.169  0.00  0.00     0.106 A 
ATOM     10  C   UNL d   1      60.299  -9.817  31.231  0.00  0.00     0.105 C 
ATOM     11  N   UNL d   1      61.105  -9.817  31.342  0.00  0.00    -0.191 NA
ATOM     12  N   UNL d   1      59.660  -9.817  29.733  0.00  0.00    -0.120 N 
ATOM     13  C   UNL d   1      57.442  -9.817  33.081  0.00  0.00     0.023 C 
ENDROOT
BRANCH   5  14
ATOM     14  C   UNL d   1      59.281  -9.817  32.521  0.00  0.00     0.001 C 
BRANCH  14  15
ATOM     15  C   UNL d   1      59.824  -9.196  32.953  0.00  0.00     0.000 C 
BRANCH  15  16
ATOM     16  C   UNL d   1      60.030  -9.178  33.753  0.00  0.00     0.000 A 
ATOM     17  C   UNL d   1      60.449  -9.818  34.097  0.00  0.00     0.000 A 
ATOM     18  C   UNL d   1      60.646  -9.790  34.885  0.00  0.00     0.000 A 
ATOM     19  C   UNL d   1      60.433  -9.129  35.352  0.00  0.00     0.000 A 
ATOM     20  C   UNL d   1      60.021  -8.500  35.013  0.00  0.00     0.000 A 
ATOM     21  C   UNL d   1      59.823  -8.534  34.210  0.00  0.00     0.000 A 
ENDBRANCH  15  16
ENDBRANCH  14  15
ENDBRANCH   5  14
TORSDOF 3
ENDMDL
MODEL 3
REMARK VINA RESULT:      -1.8      2.645      4.370
REMARK  3 active torsions:
REMARK  status: ('A' for Active; 'I' for Inactive)
REMARK    1  A    between atoms: C_12  and  C_5 
REMARK    2  A    between atoms: C_14  and  C_12 
REMARK    3  A    between atoms: C_15  and  C_14 
ROOT
ATOM      1  C   UNL d   1      55.717   0.670  34.630  0.00  0.00     0.206 A 
ATOM      2  C   UNL d   1      55.886   0.668  33.823  0.00  0.00     0.063 A 
ATOM      3  C   UNL d   1      57.275   0.675  34.112  0.00  0.00     0.111 A 
ATOM      4  C   UNL d   1      57.107   0.677  34.916  0.00  0.00     0.214 A 
ATOM      5  C   UNL d   1      56.659   0.671  33.564  0.00  0.00     0.018 A 
ATOM      6  O   UNL d   1      56.324   0.674  35.172  0.00  0.00    -0.268 OA
ATOM      7  N   UNL d   1      54.928   0.666  34.732  0.00  0.00    -0.123 NA
ATOM      8  N   UNL d   1      54.573   0.663  34.010  0.00  0.00    -0.146 NA
ATOM      9  C   UNL d   1      55.157   0.664  33.435  0.00  0.00     0.106 A 
ATOM     10  C   UNL d   1      58.059   0.678  33.856  0.00  0.00     0.105 C 
ATOM     11  N   UNL d   1      58.831   0.680  33.601  0.00  0.00    -0.191 NA
ATOM     12  N   UNL d   1      57.701   0.681  35.444  0.00  0.00    -0.120 N 
ATOM     13  C   UNL d   1      54.914   0.660  32.553  0.00  0.00     0.023 C 
ENDROOT
BRANCH   5  14
ATOM     14  C   UNL d   1      56.824   0.669  32.771  0.00  0.00     0.001 C 
BRANCH  14  15
ATOM     15  C   UNL d   1      56.834  -0.031  32.156  0.00  0.00     0.000 C 
BRANCH  15  16
ATOM     16  C   UNL d   1      57.207  -0.048  31.420  0.00  0.00     0.000 A 
ATOM     17  C   UNL d   1      57.268   0.651  30.959  0.00  0.00     0.000 A 
ATOM     18  C   UNL d   1      57.638   0.623  30.236  0.00  0.00     0.000 A 
ATOM     19  C   UNL d   1      57.957  -0.096  29.950  0.00  0.00     0.000 A 
ATOM     20  C   UNL d   1      57.896  -0.783  30.404  0.00  0.00     0.000 A 
ATOM     21  C   UNL d   1      57.519  -0.749  31.139  0.00  0.00     0.000 A 
ENDBRANCH  15  16
ENDBRANCH  14  15
ENDBRANCH   5  14
TORSDOF 3
ENDMDL
MODEL 4
REMARK VINA RESULT:       0.4      3.064      5.008
REMARK  3 active torsions:
REMARK  status: ('A' for Active; 'I' for Inactive)
REMARK    1  A    between atoms: C_12  and  C_5 
REMARK    2  A    between atoms: C_14  and  C_12 
REMARK    3  A    between atoms: C_15  and  C_14 
ROOT
ATOM      1  C   UNL d   1      56.184   0.624  35.180  0.00  0.00     0.206 A 
ATOM      2  C   UNL d   1      56.571   0.648  34.452  0.00  0.00     0.063 A 
ATOM      3  C   UNL d   1      55.319   0.644  33.785  0.00  0.00     0.111 A 
ATOM      4  C   UNL d   1      54.933   0.620  34.510  0.00  0.00     0.214 A 
ATOM      5  C   UNL d   1      56.143   0.658  33.759  0.00  0.00     0.018 A 
ATOM      6  O   UNL d   1      55.372   0.610  35.209  0.00  0.00    -0.268 OA
ATOM      7  N   UNL d   1      56.726   0.618  35.763  0.00  0.00    -0.123 NA
ATOM      8  N   UNL d   1      57.461   0.638  35.436  0.00  0.00    -0.146 NA
ATOM      9  C   UNL d   1      57.379   0.657  34.620  0.00  0.00     0.106 A 
ATOM     10  C   UNL d   1      54.880   0.654  33.087  0.00  0.00     0.105 C 
ATOM     11  N   UNL d   1      54.450   0.664  32.397  0.00  0.00    -0.191 NA
ATOM     12  N   UNL d   1      54.139   0.606  34.536  0.00  0.00    -0.120 N 
ATOM     13  C   UNL d   1      58.130   0.682  34.098  0.00  0.00     0.023 C 
ENDROOT
BRANCH   5  14
ATOM     14  C   UNL d   1      56.523   0.682  33.044  0.00  0.00     0.001 C 
BRANCH  14  15
ATOM     15  C   UNL d   1      56.369   0.202  32.260  0.00  0.00     0.000 C 
BRANCH  15  16
ATOM     16  C   UNL d   1      56.901   0.065  31.643  0.00  0.00     0.000 A 
ATOM     17  C   UNL d   1      57.213  -0.703  31.514  0.00  0.00     0.000 A 
ATOM     18  C   UNL d   1      57.734  -0.826  30.903  0.00  0.00     0.000 A 
ATOM     19  C   UNL d   1      57.961  -0.194  30.405  0.00  0.00     0.000 A 
ATOM     20  C   UNL d   1      57.653   0.562  30.532  0.00  0.00     0.000 A 
ATOM     21  C   UNL d   1      57.123   0.682  31.155  0.00  0.00     0.000 A 
ENDBRANCH  15  16
ENDBRANCH  14  15
ENDBRANCH   5  14
TORSDOF 3
ENDMDL
