MODEL 1
REMARK VINA RESULT:      64.3      0.000      0.000
REMARK  5 active torsions:
REMARK  status: ('A' for Active; 'I' for Inactive)
REMARK    1  A    between atoms: C_2  and  S_1 
REMARK    2  A    between atoms: N_3  and  S_1 
REMARK    3  A    between atoms: C_21  and  N_8 
REMARK    4  A    between atoms: O_26  and  C_16 
REMARK    5  A    between atoms: C_19  and  C_21 
ROOT
ATOM      1  N   UNL d   1      13.436  14.098  -4.348  0.00  0.00    -0.226 N 
ATOM      2  N   UNL d   1      13.341  12.661  -3.541  0.00  0.00    -0.300 N 
ATOM      3  C   UNL d   1      12.890  13.516  -4.588  0.00  0.00     0.111 A 
ATOM      4  C   UNL d   1      13.928  13.950  -3.705  0.00  0.00     0.111 A 
ATOM      5  C   UNL d   1      12.850  12.802  -4.178  0.00  0.00     0.100 A 
ATOM      6  C   UNL d   1      13.887  13.243  -3.301  0.00  0.00     0.100 A 
ENDROOT
BRANCH   1   7
ATOM      7  S   UNL d   1      13.475  14.808  -4.755  0.00  0.00     0.271 S 
ATOM      8  O   UNL d   1      13.687  14.410  -5.446  0.00  0.00    -0.200 OA
ATOM      9  O   UNL d   1      13.262  15.210  -4.061  0.00  0.00    -0.200 OA
BRANCH   7  10
ATOM     10  C   UNL d   1      13.514  15.520  -5.160  0.00  0.00     0.104 A 
ATOM     11  C   UNL d   1      14.063  16.098  -4.941  0.00  0.00     0.014 A 
ATOM     12  C   UNL d   1      14.099  16.815  -5.350  0.00  0.00     0.023 A 
ATOM     13  C   UNL d   1      14.576  15.955  -4.310  0.00  0.00     0.001 A 
ATOM     14  C   UNL d   1      14.639  17.382  -5.135  0.00  0.00     0.002 A 
ATOM     15  C   UNL d   1      13.586  16.958  -5.982  0.00  0.00     0.094 A 
ATOM     16  C   UNL d   1      15.156  17.249  -4.505  0.00  0.00     0.000 A 
ATOM     17  C   UNL d   1      15.122  16.532  -4.093  0.00  0.00     0.000 A 
ATOM     18  C   UNL d   1      13.038  16.383  -6.202  0.00  0.00     0.025 A 
ATOM     19  C   UNL d   1      12.997  15.665  -5.796  0.00  0.00     0.015 A 
BRANCH  15  20
ATOM     20  O   UNL d   1      13.622  17.665  -6.386  0.00  0.00    -0.328 OA
ATOM     21  C   UNL d   1      12.997  18.192  -6.344  0.00  0.00     0.181 C 
ENDBRANCH  15  20
ENDBRANCH   7  10
ENDBRANCH   1   7
BRANCH   2  22
ATOM     22  C   UNL d   1      13.302  11.946  -3.131  0.00  0.00     0.080 C 
BRANCH  22  23
ATOM     23  C   UNL d   1      13.517  11.902  -2.336  0.00  0.00     0.020 A 
ATOM     24  C   UNL d   1      14.302  11.923  -2.119  0.00  0.00     0.028 A 
ATOM     25  C   UNL d   1      14.516  11.879  -1.326  0.00  0.00     0.119 A 
ATOM     26  O   UNL d   1      15.249  11.887  -0.948  0.00  0.00    -0.300 OA
ATOM     27  C   UNL d   1      13.925  11.812  -0.743  0.00  0.00     0.119 A 
ATOM     28  C   UNL d   1      15.116  11.825  -0.136  0.00  0.00     0.304 A 
ATOM     29  O   UNL d   1      14.303  11.780  -0.014  0.00  0.00    -0.300 OA
ATOM     30  C   UNL d   1      13.135  11.791  -0.968  0.00  0.00     0.026 A 
ATOM     31  C   UNL d   1      12.926  11.835  -1.753  0.00  0.00     0.004 A 
ENDBRANCH  22  23
ENDBRANCH   2  22
TORSDOF 5
ENDMDL
