MODEL 1
REMARK VINA RESULT:      69.2      0.000      0.000
REMARK  5 active torsions:
REMARK  status: ('A' for Active; 'I' for Inactive)
REMARK    1  A    between atoms: C_15  and  C_3 
REMARK    2  A    between atoms: S_9  and  C_4 
REMARK       I    between atoms: N_6  and  C_8 
REMARK    3  A    between atoms: C_16  and  N_7 
REMARK    4  A    between atoms: C_8  and  C_14 
REMARK    5  A    between atoms: C_14  and  S_9 
ROOT
ATOM      1  N   UNL d   1      60.972  47.584  51.029  0.00  0.00    -0.269 N 
ATOM      2  N   UNL d   1      61.287  46.120  50.335  0.00  0.00    -0.301 N 
ATOM      3  C   UNL d   1      60.816  48.324  51.374  0.00  0.00     0.272 C 
ATOM      4  C   UNL d   1      61.461  47.530  50.367  0.00  0.00     0.102 A 
ATOM      5  C   UNL d   1      60.640  46.902  51.343  0.00  0.00     0.102 A 
ATOM      6  C   UNL d   1      60.795  46.162  50.999  0.00  0.00     0.100 A 
ATOM      7  C   UNL d   1      61.620  46.800  50.019  0.00  0.00     0.100 A 
ATOM      8  O   UNL d   1      60.330  48.381  52.033  0.00  0.00    -0.266 OA
ENDROOT
BRANCH   3   9
ATOM      9  C   UNL d   1      61.153  49.002  51.052  0.00  0.00     0.100 C 
BRANCH   9  10
ATOM     10  S   UNL d   1      60.708  49.694  50.979  0.00  0.00    -0.036 SA
BRANCH  10  11
ATOM     11  C   UNL d   1      59.987  49.693  50.561  0.00  0.00     0.236 A 
ATOM     12  O   UNL d   1      59.236  49.678  50.875  0.00  0.00    -0.263 OA
ATOM     13  C   UNL d   1      58.692  49.683  50.250  0.00  0.00     0.205 A 
ATOM     14  N   UNL d   1      59.119  49.700  49.550  0.00  0.00    -0.120 NA
ATOM     15  N   UNL d   1      59.928  49.707  49.742  0.00  0.00    -0.114 NA
BRANCH  13  16
ATOM     16  C   UNL d   1      57.867  49.672  50.290  0.00  0.00     0.043 A 
ATOM     17  C   UNL d   1      57.493  49.698  51.021  0.00  0.00     0.004 A 
ATOM     18  C   UNL d   1      56.668  49.687  51.060  0.00  0.00     0.000 A 
ATOM     19  C   UNL d   1      56.223  49.650  50.368  0.00  0.00     0.000 A 
ATOM     20  C   UNL d   1      56.601  49.624  49.634  0.00  0.00     0.000 A 
ATOM     21  C   UNL d   1      57.422  49.635  49.597  0.00  0.00     0.004 A 
ENDBRANCH  13  16
ENDBRANCH  10  11
ENDBRANCH   9  10
ENDBRANCH   3   9
BRANCH   2  22
ATOM     22  C   UNL d   1      61.441  45.385  49.992  0.00  0.00     0.064 A 
ATOM     23  C   UNL d   1      61.622  44.744  50.472  0.00  0.00     0.018 A 
ATOM     24  C   UNL d   1      61.779  43.998  50.134  0.00  0.00     0.002 A 
ATOM     25  C   UNL d   1      61.751  43.910  49.319  0.00  0.00     0.000 A 
ATOM     26  C   UNL d   1      61.569  44.554  48.832  0.00  0.00     0.002 A 
ATOM     27  C   UNL d   1      61.414  45.293  49.177  0.00  0.00     0.018 A 
ENDBRANCH   2  22
TORSDOF 5
ENDMDL
