MODEL 1
REMARK VINA RESULT:      11.7      0.000      0.000
REMARK  2 active torsions:
REMARK  status: ('A' for Active; 'I' for Inactive)
REMARK    1  A    between atoms: C_6  and  C_1 
REMARK    2  A    between atoms: C_7  and  C_5 
ROOT
ATOM      1  C   UNL d   1     -50.663  25.820  33.363  0.00  0.00     0.085 A 
ATOM      2  C   UNL d   1     -51.254  26.397  33.389  0.00  0.00     0.137 A 
ATOM      3  C   UNL d   1     -51.004  25.083  33.359  0.00  0.00     0.013 A 
ATOM      4  S   UNL d   1     -51.974  25.998  33.400  0.00  0.00    -0.066 SA
ATOM      5  C   UNL d   1     -51.826  25.203  33.382  0.00  0.00     0.031 A 
ATOM      6  N   UNL d   1     -51.111  27.211  33.399  0.00  0.00    -0.141 N 
ENDROOT
BRANCH   5   7
ATOM      7  C   UNL d   1     -52.357  24.582  33.385  0.00  0.00     0.006 A 
ATOM      8  C   UNL d   1     -52.085  23.822  33.466  0.00  0.00     0.001 A 
ATOM      9  C   UNL d   1     -52.617  23.188  33.470  0.00  0.00     0.000 A 
ATOM     10  C   UNL d   1     -53.418  23.327  33.392  0.00  0.00     0.000 A 
ATOM     11  C   UNL d   1     -53.696  24.099  33.309  0.00  0.00     0.000 A 
ATOM     12  C   UNL d   1     -53.166  24.721  33.306  0.00  0.00     0.001 A 
ENDBRANCH   5   7
BRANCH   1  13
ATOM     13  C   UNL d   1     -49.833  25.958  33.344  0.00  0.00     0.299 C 
ATOM     14  O   UNL d   1     -49.547  26.719  33.363  0.00  0.00    -0.264 OA
ATOM     15  N   UNL d   1     -49.324  25.315  33.307  0.00  0.00    -0.102 N 
ENDBRANCH   1  13
TORSDOF 2
ENDMDL
MODEL 2
REMARK VINA RESULT:      14.1      1.861      3.401
REMARK  2 active torsions:
REMARK  status: ('A' for Active; 'I' for Inactive)
REMARK    1  A    between atoms: C_6  and  C_1 
REMARK    2  A    between atoms: C_7  and  C_5 
ROOT
ATOM      1  C   UNL d   1     -51.859  24.487  33.420  0.00  0.00     0.085 A 
ATOM      2  C   UNL d   1     -51.077  24.234  33.347  0.00  0.00     0.137 A 
ATOM      3  C   UNL d   1     -51.882  25.299  33.425  0.00  0.00     0.013 A 
ATOM      4  S   UNL d   1     -50.611  24.910  33.307  0.00  0.00    -0.066 SA
ATOM      5  C   UNL d   1     -51.095  25.557  33.354  0.00  0.00     0.031 A 
ATOM      6  N   UNL d   1     -50.844  23.441  33.322  0.00  0.00    -0.141 N 
ENDROOT
BRANCH   5   7
ATOM      7  C   UNL d   1     -50.896  26.349  33.338  0.00  0.00     0.006 A 
ATOM      8  C   UNL d   1     -50.115  26.567  33.331  0.00  0.00     0.001 A 
ATOM      9  C   UNL d   1     -49.907  27.368  33.316  0.00  0.00     0.000 A 
ATOM     10  C   UNL d   1     -50.488  27.941  33.308  0.00  0.00     0.000 A 
ATOM     11  C   UNL d   1     -51.283  27.721  33.315  0.00  0.00     0.000 A 
ATOM     12  C   UNL d   1     -51.483  26.929  33.330  0.00  0.00     0.001 A 
ENDBRANCH   5   7
BRANCH   1  13
ATOM     13  C   UNL d   1     -52.539  23.994  33.481  0.00  0.00     0.299 C 
ATOM     14  O   UNL d   1     -52.459  23.217  33.706  0.00  0.00    -0.264 OA
ATOM     15  N   UNL d   1     -53.277  24.311  33.311  0.00  0.00    -0.102 N 
ENDBRANCH   1  13
TORSDOF 2
ENDMDL
