MODEL 1
REMARK VINA RESULT:      -5.1      0.000      0.000
REMARK  6 active torsions:
REMARK  status: ('A' for Active; 'I' for Inactive)
REMARK    1  A    between atoms: S_6  and  C_1 
REMARK    2  A    between atoms: C_15  and  S_6 
REMARK    3  A    between atoms: C_8  and  O_11 
REMARK    4  A    between atoms: C_10  and  C_15 
REMARK    5  A    between atoms: C_16  and  C_10 
REMARK    6  A    between atoms: O_11  and  C_16 
ROOT
ATOM      1  C   UNL d   1      58.134  -0.553  30.038  0.00  0.00     0.040 C 
ENDROOT
BRANCH   1   2
ATOM      2  C   UNL d   1      57.969   0.066  30.556  0.00  0.00     0.034 C 
BRANCH   2   3
ATOM      3  C   UNL d   1      57.273   0.053  31.004  0.00  0.00     0.123 C 
BRANCH   3   4
ATOM      4  O   UNL d   1      57.327   0.087  31.826  0.00  0.00    -0.305 OA
BRANCH   4   5
ATOM      5  C   UNL d   1      56.695  -0.158  32.291  0.00  0.00     0.100 A 
ATOM      6  C   UNL d   1      56.282   0.390  32.751  0.00  0.00     0.025 A 
ATOM      7  C   UNL d   1      55.642   0.135  33.220  0.00  0.00     0.002 A 
ATOM      8  C   UNL d   1      55.230   0.682  33.678  0.00  0.00     0.000 C 
ATOM      9  C   UNL d   1      55.424  -0.661  33.224  0.00  0.00     0.000 A 
ATOM     10  C   UNL d   1      55.845  -1.207  32.757  0.00  0.00     0.002 A 
ATOM     11  C   UNL d   1      56.480  -0.959  32.291  0.00  0.00     0.025 A 
ENDBRANCH   4   5
ENDBRANCH   3   4
ENDBRANCH   2   3
ENDBRANCH   1   2
BRANCH   1  12
ATOM     12  S   UNL d   1      58.707  -0.453  29.453  0.00  0.00    -0.048 SA
BRANCH  12  13
ATOM     13  C   UNL d   1      59.192  -1.082  29.233  0.00  0.00     0.194 A 
ATOM     14  N   UNL d   1      58.947  -1.849  29.030  0.00  0.00    -0.220 NA
ATOM     15  C   UNL d   1      59.625  -2.294  28.848  0.00  0.00     0.101 A 
ATOM     16  C   UNL d   1      59.715  -3.081  28.613  0.00  0.00     0.021 A 
ATOM     17  C   UNL d   1      60.295  -1.808  28.935  0.00  0.00     0.101 A 
ATOM     18  C   UNL d   1      60.466  -3.385  28.466  0.00  0.00     0.002 A 
ATOM     19  C   UNL d   1      61.130  -2.903  28.553  0.00  0.00     0.002 A 
ATOM     20  C   UNL d   1      61.042  -2.118  28.786  0.00  0.00     0.021 A 
ATOM     21  N   UNL d   1      60.026  -1.052  29.175  0.00  0.00    -0.220 NA
ENDBRANCH  12  13
ENDBRANCH   1  12
TORSDOF 6
ENDMDL
MODEL 2
REMARK VINA RESULT:      -5.1      2.022      5.830
REMARK  6 active torsions:
REMARK  status: ('A' for Active; 'I' for Inactive)
REMARK    1  A    between atoms: S_6  and  C_1 
REMARK    2  A    between atoms: C_15  and  S_6 
REMARK    3  A    between atoms: C_8  and  O_11 
REMARK    4  A    between atoms: C_10  and  C_15 
REMARK    5  A    between atoms: C_16  and  C_10 
REMARK    6  A    between atoms: O_11  and  C_16 
ROOT
ATOM      1  C   UNL d   1      57.397  -0.125  31.430  0.00  0.00     0.040 C 
ENDROOT
BRANCH   1   2
ATOM      2  C   UNL d   1      57.661  -0.121  30.650  0.00  0.00     0.034 C 
BRANCH   2   3
ATOM      3  C   UNL d   1      58.137  -0.741  30.375  0.00  0.00     0.123 C 
BRANCH   3   4
ATOM      4  O   UNL d   1      58.267  -0.814  29.564  0.00  0.00    -0.305 OA
BRANCH   4   5
ATOM      5  C   UNL d   1      58.842  -1.330  29.283  0.00  0.00     0.100 A 
ATOM      6  C   UNL d   1      58.665  -2.130  29.181  0.00  0.00     0.025 A 
ATOM      7  C   UNL d   1      59.252  -2.649  28.896  0.00  0.00     0.002 A 
ATOM      8  C   UNL d   1      59.075  -3.447  28.794  0.00  0.00     0.000 C 
ATOM      9  C   UNL d   1      60.006  -2.363  28.719  0.00  0.00     0.000 A 
ATOM     10  C   UNL d   1      60.176  -1.554  28.825  0.00  0.00     0.002 A 
ATOM     11  C   UNL d   1      59.597  -1.037  29.106  0.00  0.00     0.025 A 
ENDBRANCH   4   5
ENDBRANCH   3   4
ENDBRANCH   2   3
ENDBRANCH   1   2
BRANCH   1  12
ATOM     12  S   UNL d   1      57.221   0.590  31.803  0.00  0.00    -0.048 SA
BRANCH  12  13
ATOM     13  C   UNL d   1      56.711   0.608  32.450  0.00  0.00     0.194 A 
ATOM     14  N   UNL d   1      55.881   0.598  32.428  0.00  0.00    -0.220 NA
ATOM     15  C   UNL d   1      55.603   0.623  33.210  0.00  0.00     0.101 A 
ATOM     16  C   UNL d   1      54.836   0.625  33.517  0.00  0.00     0.021 A 
ATOM     17  C   UNL d   1      56.257   0.650  33.725  0.00  0.00     0.101 A 
ATOM     18  C   UNL d   1      54.718   0.654  34.332  0.00  0.00     0.002 A 
ATOM     19  C   UNL d   1      55.366   0.680  34.842  0.00  0.00     0.002 A 
ATOM     20  C   UNL d   1      56.131   0.678  34.537  0.00  0.00     0.021 A 
ATOM     21  N   UNL d   1      56.948   0.640  33.252  0.00  0.00    -0.220 NA
ENDBRANCH  12  13
ENDBRANCH   1  12
TORSDOF 6
ENDMDL
MODEL 3
REMARK VINA RESULT:      -4.5      0.850      1.541
REMARK  6 active torsions:
REMARK  status: ('A' for Active; 'I' for Inactive)
REMARK    1  A    between atoms: S_6  and  C_1 
REMARK    2  A    between atoms: C_15  and  S_6 
REMARK    3  A    between atoms: C_8  and  O_11 
REMARK    4  A    between atoms: C_10  and  C_15 
REMARK    5  A    between atoms: C_16  and  C_10 
REMARK    6  A    between atoms: O_11  and  C_16 
ROOT
ATOM      1  C   UNL d   1      57.527  -0.463  30.971  0.00  0.00     0.040 C 
ENDROOT
BRANCH   1   2
ATOM      2  C   UNL d   1      56.924   0.000  31.288  0.00  0.00     0.034 C 
BRANCH   2   3
ATOM      3  C   UNL d   1      56.829   0.046  32.109  0.00  0.00     0.123 C 
BRANCH   3   4
ATOM      4  O   UNL d   1      56.075  -0.054  32.429  0.00  0.00    -0.305 OA
BRANCH   4   5
ATOM      5  C   UNL d   1      55.919   0.190  33.199  0.00  0.00     0.100 A 
ATOM      6  C   UNL d   1      55.139   0.279  33.454  0.00  0.00     0.025 A 
ATOM      7  C   UNL d   1      54.987   0.527  34.236  0.00  0.00     0.002 A 
ATOM      8  C   UNL d   1      54.209   0.615  34.490  0.00  0.00     0.000 C 
ATOM      9  C   UNL d   1      55.614   0.681  34.749  0.00  0.00     0.000 A 
ATOM     10  C   UNL d   1      56.398   0.589  34.484  0.00  0.00     0.002 A 
ATOM     11  C   UNL d   1      56.553   0.344  33.710  0.00  0.00     0.025 A 
ENDBRANCH   4   5
ENDBRANCH   3   4
ENDBRANCH   2   3
ENDBRANCH   1   2
BRANCH   1  12
ATOM     12  S   UNL d   1      57.946  -0.192  30.314  0.00  0.00    -0.048 SA
BRANCH  12  13
ATOM     13  C   UNL d   1      58.441  -0.702  29.896  0.00  0.00     0.194 A 
ATOM     14  N   UNL d   1      59.189  -0.522  29.584  0.00  0.00    -0.220 NA
ATOM     15  C   UNL d   1      59.481  -1.203  29.210  0.00  0.00     0.101 A 
ATOM     16  C   UNL d   1      60.190  -1.345  28.809  0.00  0.00     0.021 A 
ATOM     17  C   UNL d   1      58.918  -1.812  29.286  0.00  0.00     0.101 A 
ATOM     18  C   UNL d   1      60.339  -2.087  28.485  0.00  0.00     0.002 A 
ATOM     19  C   UNL d   1      59.782  -2.690  28.561  0.00  0.00     0.002 A 
ATOM     20  C   UNL d   1      59.075  -2.551  28.960  0.00  0.00     0.021 A 
ATOM     21  N   UNL d   1      58.270  -1.501  29.714  0.00  0.00    -0.220 NA
ENDBRANCH  12  13
ENDBRANCH   1  12
TORSDOF 6
ENDMDL
MODEL 4
REMARK VINA RESULT:      -2.7      8.641      9.927
REMARK  6 active torsions:
REMARK  status: ('A' for Active; 'I' for Inactive)
REMARK    1  A    between atoms: S_6  and  C_1 
REMARK    2  A    between atoms: C_15  and  S_6 
REMARK    3  A    between atoms: C_8  and  O_11 
REMARK    4  A    between atoms: C_10  and  C_15 
REMARK    5  A    between atoms: C_16  and  C_10 
REMARK    6  A    between atoms: O_11  and  C_16 
ROOT
ATOM      1  C   UNL d   1      60.655  -9.649  32.805  0.00  0.00     0.040 C 
ENDROOT
BRANCH   1   2
ATOM      2  C   UNL d   1      60.892  -9.524  32.025  0.00  0.00     0.034 C 
BRANCH   2   3
ATOM      3  C   UNL d   1      60.413  -9.787  31.403  0.00  0.00     0.123 C 
BRANCH   3   4
ATOM      4  O   UNL d   1      60.055  -9.228  30.913  0.00  0.00    -0.305 OA
BRANCH   4   5
ATOM      5  C   UNL d   1      59.869  -9.421  30.135  0.00  0.00     0.100 A 
ATOM      6  C   UNL d   1      59.082  -9.522  29.911  0.00  0.00     0.025 A 
ATOM      7  C   UNL d   1      58.900  -9.717  29.121  0.00  0.00     0.002 A 
ATOM      8  C   UNL d   1      58.113  -9.818  28.897  0.00  0.00     0.000 C 
ATOM      9  C   UNL d   1      59.506  -9.809  28.569  0.00  0.00     0.000 A 
ATOM     10  C   UNL d   1      60.298  -9.706  28.803  0.00  0.00     0.002 A 
ATOM     11  C   UNL d   1      60.483  -9.512  29.585  0.00  0.00     0.025 A 
ENDBRANCH   4   5
ENDBRANCH   3   4
ENDBRANCH   2   3
ENDBRANCH   1   2
BRANCH   1  12
ATOM     12  S   UNL d   1      61.105  -9.337  33.422  0.00  0.00    -0.048 SA
BRANCH  12  13
ATOM     13  C   UNL d   1      60.737  -9.040  34.097  0.00  0.00     0.194 A 
ATOM     14  N   UNL d   1      60.088  -9.372  34.494  0.00  0.00    -0.220 NA
ATOM     15  C   UNL d   1      59.908  -8.885  35.143  0.00  0.00     0.101 A 
ATOM     16  C   UNL d   1      59.324  -8.943  35.724  0.00  0.00     0.021 A 
ATOM     17  C   UNL d   1      60.443  -8.247  35.154  0.00  0.00     0.101 A 
ATOM     18  C   UNL d   1      59.270  -8.371  36.313  0.00  0.00     0.002 A 
ATOM     19  C   UNL d   1      59.800  -7.738  36.325  0.00  0.00     0.002 A 
ATOM     20  C   UNL d   1      60.383  -7.679  35.746  0.00  0.00     0.021 A 
ATOM     21  N   UNL d   1      60.960  -8.343  34.503  0.00  0.00    -0.220 NA
ENDBRANCH  12  13
ENDBRANCH   1  12
TORSDOF 6
ENDMDL
