MODEL 1
REMARK VINA RESULT:      -5.0      0.000      0.000
REMARK  5 active torsions:
REMARK  status: ('A' for Active; 'I' for Inactive)
REMARK    1  A    between atoms: C_3  and  C_1 
REMARK    2  A    between atoms: C_6  and  C_1 
REMARK    3  A    between atoms: C_2  and  C_3 
REMARK       I    between atoms: N_4  and  C_2 
REMARK    4  A    between atoms: C_12  and  N_4 
REMARK    5  A    between atoms: N_7  and  C_5 
ROOT
ATOM      1  C   UNL d   1      57.849  -0.352  30.074  0.00  0.00     0.328 C 
ATOM      2  N   UNL d   1      57.441  -0.255  30.783  0.00  0.00    -0.365 NA
ATOM      3  O   UNL d   1      57.766   0.204  29.470  0.00  0.00    -0.251 OA
ENDROOT
BRANCH   1   4
ATOM      4  C   UNL d   1      58.338  -1.005  29.969  0.00  0.00     0.076 C 
BRANCH   4   5
ATOM      5  C   UNL d   1      58.874  -1.020  29.344  0.00  0.00     0.007 C 
BRANCH   5   6
ATOM      6  C   UNL d   1      59.265  -1.723  29.150  0.00  0.00     0.011 A 
ATOM      7  C   UNL d   1      60.067  -1.706  28.941  0.00  0.00     0.058 A 
ATOM      8 CL   UNL d   1      60.475  -0.990  28.926  0.00  0.00    -0.082 Cl
ATOM      9  C   UNL d   1      60.459  -2.412  28.748  0.00  0.00     0.011 A 
ATOM     10  C   UNL d   1      60.047  -3.128  28.764  0.00  0.00     0.001 A 
ATOM     11  C   UNL d   1      59.249  -3.136  28.973  0.00  0.00     0.000 A 
ATOM     12  C   UNL d   1      58.857  -2.438  29.166  0.00  0.00     0.001 A 
ENDBRANCH   5   6
ENDBRANCH   4   5
ENDBRANCH   1   4
BRANCH   2  13
ATOM     13  C   UNL d   1      57.034  -0.158  31.492  0.00  0.00     0.135 A 
ATOM     14  C   UNL d   1      56.660  -0.809  31.839  0.00  0.00     0.034 A 
ATOM     15  C   UNL d   1      56.253  -0.712  32.547  0.00  0.00     0.020 A 
ATOM     16  C   UNL d   1      56.219   0.037  32.909  0.00  0.00     0.064 A 
ATOM     17  C   UNL d   1      56.593   0.682  32.560  0.00  0.00     0.020 A 
ATOM     18  C   UNL d   1      57.000   0.584  31.851  0.00  0.00     0.034 A 
BRANCH  16  19
ATOM     19  N   UNL d   1      55.807   0.132  33.625  0.00  0.00    -0.301 N 
ATOM     20  C   UNL d   1      56.191   0.468  34.277  0.00  0.00     0.100 C 
ATOM     21  C   UNL d   1      55.020  -0.110  33.679  0.00  0.00     0.100 C 
ENDBRANCH  16  19
ENDBRANCH   2  13
TORSDOF 5
ENDMDL
MODEL 2
REMARK VINA RESULT:      -4.8      1.299      1.748
REMARK  5 active torsions:
REMARK  status: ('A' for Active; 'I' for Inactive)
REMARK    1  A    between atoms: C_3  and  C_1 
REMARK    2  A    between atoms: C_6  and  C_1 
REMARK    3  A    between atoms: C_2  and  C_3 
REMARK       I    between atoms: N_4  and  C_2 
REMARK    4  A    between atoms: C_12  and  N_4 
REMARK    5  A    between atoms: N_7  and  C_5 
ROOT
ATOM      1  C   UNL d   1      57.488  -1.000  30.857  0.00  0.00     0.328 C 
ATOM      2  N   UNL d   1      57.039  -0.706  31.482  0.00  0.00    -0.365 NA
ATOM      3  O   UNL d   1      57.377  -1.774  30.596  0.00  0.00    -0.251 OA
ENDROOT
BRANCH   1   4
ATOM      4  C   UNL d   1      58.048  -0.518  30.494  0.00  0.00     0.076 C 
BRANCH   4   5
ATOM      5  C   UNL d   1      58.388  -0.751  29.781  0.00  0.00     0.007 C 
BRANCH   5   6
ATOM      6  C   UNL d   1      59.068  -0.370  29.503  0.00  0.00     0.011 A 
ATOM      7  C   UNL d   1      59.466  -0.666  28.839  0.00  0.00     0.058 A 
ATOM      8 CL   UNL d   1      59.185  -1.339  28.455  0.00  0.00    -0.082 Cl
ATOM      9  C   UNL d   1      60.148  -0.282  28.561  0.00  0.00     0.011 A 
ATOM     10  C   UNL d   1      60.426   0.393  28.948  0.00  0.00     0.001 A 
ATOM     11  C   UNL d   1      60.024   0.680  29.608  0.00  0.00     0.000 A 
ATOM     12  C   UNL d   1      59.347   0.303  29.886  0.00  0.00     0.001 A 
ENDBRANCH   5   6
ENDBRANCH   4   5
ENDBRANCH   1   4
BRANCH   2  13
ATOM     13  C   UNL d   1      56.590  -0.414  32.107  0.00  0.00     0.135 A 
ATOM     14  C   UNL d   1      56.103  -0.928  32.534  0.00  0.00     0.034 A 
ATOM     15  C   UNL d   1      55.654  -0.636  33.158  0.00  0.00     0.020 A 
ATOM     16  C   UNL d   1      55.692   0.172  33.356  0.00  0.00     0.064 A 
ATOM     17  C   UNL d   1      56.178   0.680  32.928  0.00  0.00     0.020 A 
ATOM     18  C   UNL d   1      56.628   0.387  32.303  0.00  0.00     0.034 A 
BRANCH  16  19
ATOM     19  N   UNL d   1      55.237   0.465  33.987  0.00  0.00    -0.301 N 
ATOM     20  C   UNL d   1      54.418   0.547  33.898  0.00  0.00     0.100 C 
ATOM     21  C   UNL d   1      55.605   0.671  34.697  0.00  0.00     0.100 C 
ENDBRANCH  16  19
ENDBRANCH   2  13
TORSDOF 5
ENDMDL
MODEL 3
REMARK VINA RESULT:      -4.2      1.678      5.179
REMARK  5 active torsions:
REMARK  status: ('A' for Active; 'I' for Inactive)
REMARK    1  A    between atoms: C_3  and  C_1 
REMARK    2  A    between atoms: C_6  and  C_1 
REMARK    3  A    between atoms: C_2  and  C_3 
REMARK       I    between atoms: N_4  and  C_2 
REMARK    4  A    between atoms: C_12  and  N_4 
REMARK    5  A    between atoms: N_7  and  C_5 
ROOT
ATOM      1  C   UNL d   1      57.457   0.118  30.664  0.00  0.00     0.328 C 
ATOM      2  N   UNL d   1      57.994  -0.372  30.275  0.00  0.00    -0.365 NA
ATOM      3  O   UNL d   1      57.027   0.680  30.241  0.00  0.00    -0.251 OA
ENDROOT
BRANCH   1   4
ATOM      4  C   UNL d   1      57.352   0.044  31.477  0.00  0.00     0.076 C 
BRANCH   4   5
ATOM      5  C   UNL d   1      56.700  -0.366  31.770  0.00  0.00     0.007 C 
BRANCH   5   6
ATOM      6  C   UNL d   1      56.416  -0.202  32.530  0.00  0.00     0.011 A 
ATOM      7  C   UNL d   1      55.959  -0.766  32.932  0.00  0.00     0.058 A 
ATOM      8 CL   UNL d   1      55.788  -1.489  32.575  0.00  0.00    -0.082 Cl
ATOM      9  C   UNL d   1      55.675  -0.600  33.693  0.00  0.00     0.011 A 
ATOM     10  C   UNL d   1      55.848   0.126  34.048  0.00  0.00     0.001 A 
ATOM     11  C   UNL d   1      56.303   0.681  33.641  0.00  0.00     0.000 A 
ATOM     12  C   UNL d   1      56.587   0.520  32.886  0.00  0.00     0.001 A 
ENDBRANCH   5   6
ENDBRANCH   4   5
ENDBRANCH   1   4
BRANCH   2  13
ATOM     13  C   UNL d   1      58.530  -0.860  29.886  0.00  0.00     0.135 A 
ATOM     14  C   UNL d   1      59.253  -0.548  29.630  0.00  0.00     0.034 A 
ATOM     15  C   UNL d   1      59.788  -1.036  29.241  0.00  0.00     0.020 A 
ATOM     16  C   UNL d   1      59.602  -1.837  29.106  0.00  0.00     0.064 A 
ATOM     17  C   UNL d   1      58.881  -2.142  29.362  0.00  0.00     0.020 A 
ATOM     18  C   UNL d   1      58.345  -1.653  29.752  0.00  0.00     0.034 A 
BRANCH  16  19
ATOM     19  N   UNL d   1      60.145  -2.327  28.713  0.00  0.00    -0.301 N 
ATOM     20  C   UNL d   1      60.918  -2.060  28.583  0.00  0.00     0.100 C 
ATOM     21  C   UNL d   1      59.911  -3.075  28.455  0.00  0.00     0.100 C 
ENDBRANCH  16  19
ENDBRANCH   2  13
TORSDOF 5
ENDMDL
MODEL 4
REMARK VINA RESULT:      -3.8      2.330      5.517
REMARK  5 active torsions:
REMARK  status: ('A' for Active; 'I' for Inactive)
REMARK    1  A    between atoms: C_3  and  C_1 
REMARK    2  A    between atoms: C_6  and  C_1 
REMARK    3  A    between atoms: C_2  and  C_3 
REMARK       I    between atoms: N_4  and  C_2 
REMARK    4  A    between atoms: C_12  and  N_4 
REMARK    5  A    between atoms: N_7  and  C_5 
ROOT
ATOM      1  C   UNL d   1      56.533  -0.898  32.075  0.00  0.00     0.328 C 
ATOM      2  N   UNL d   1      57.048  -0.706  31.461  0.00  0.00    -0.365 NA
ATOM      3  O   UNL d   1      56.193  -1.649  32.110  0.00  0.00    -0.251 OA
ENDROOT
BRANCH   1   4
ATOM      4  C   UNL d   1      56.357  -0.338  32.652  0.00  0.00     0.076 C 
BRANCH   4   5
ATOM      5  C   UNL d   1      55.611  -0.330  33.002  0.00  0.00     0.007 C 
BRANCH   5   6
ATOM      6  C   UNL d   1      55.509   0.008  33.751  0.00  0.00     0.011 A 
ATOM      7  C   UNL d   1      54.777   0.336  33.960  0.00  0.00     0.058 A 
ATOM      8 CL   UNL d   1      54.152   0.326  33.424  0.00  0.00    -0.082 Cl
ATOM      9  C   UNL d   1      54.676   0.674  34.711  0.00  0.00     0.011 A 
ATOM     10  C   UNL d   1      55.306   0.682  35.247  0.00  0.00     0.001 A 
ATOM     11  C   UNL d   1      56.031   0.353  35.030  0.00  0.00     0.000 A 
ATOM     12  C   UNL d   1      56.135   0.017  34.286  0.00  0.00     0.001 A 
ENDBRANCH   5   6
ENDBRANCH   4   5
ENDBRANCH   1   4
BRANCH   2  13
ATOM     13  C   UNL d   1      57.562  -0.515  30.849  0.00  0.00     0.135 A 
ATOM     14  C   UNL d   1      57.808   0.270  30.754  0.00  0.00     0.034 A 
ATOM     15  C   UNL d   1      58.323   0.461  30.141  0.00  0.00     0.020 A 
ATOM     16  C   UNL d   1      58.592  -0.132  29.622  0.00  0.00     0.064 A 
ATOM     17  C   UNL d   1      58.345  -0.911  29.721  0.00  0.00     0.020 A 
ATOM     18  C   UNL d   1      57.830  -1.102  30.335  0.00  0.00     0.034 A 
BRANCH  16  19
ATOM     19  N   UNL d   1      59.112   0.065  29.004  0.00  0.00    -0.301 N 
ATOM     20  C   UNL d   1      59.832  -0.338  28.931  0.00  0.00     0.100 C 
ATOM     21  C   UNL d   1      58.907   0.659  28.470  0.00  0.00     0.100 C 
ENDBRANCH  16  19
ENDBRANCH   2  13
TORSDOF 5
ENDMDL
