MODEL 1
REMARK VINA RESULT:      -7.3      0.000      0.000
REMARK  3 active torsions:
REMARK  status: ('A' for Active; 'I' for Inactive)
REMARK    1  A    between atoms: C_3  and  C_1 
REMARK       I    between atoms: N_6  and  C_3 
REMARK    2  A    between atoms: C_12  and  N_5 
REMARK    3  A    between atoms: C_8  and  N_6 
ROOT
ATOM      1  C   UNL d   1     -48.596  13.610  22.106  0.00  0.00     0.348 C 
ATOM      2  N   UNL d   1     -48.094  13.143  22.579  0.00  0.00    -0.362 NA
ATOM      3  O   UNL d   1     -48.749  13.388  21.297  0.00  0.00    -0.249 OA
ENDROOT
BRANCH   1   4
ATOM      4  C   UNL d   1     -48.944  14.295  22.434  0.00  0.00     0.173 A 
ATOM      5  N   UNL d   1     -49.553  14.306  23.002  0.00  0.00    -0.159 NA
ATOM      6  N   UNL d   1     -49.723  15.105  23.164  0.00  0.00    -0.227 N 
ATOM      7  C   UNL d   1     -49.227  15.574  22.704  0.00  0.00     0.102 A 
ATOM      8  C   UNL d   1     -48.743  15.076  22.250  0.00  0.00     0.048 A 
BRANCH   6   9
ATOM      9  C   UNL d   1     -50.293  15.377  23.698  0.00  0.00     0.101 C 
ATOM     10  C   UNL d   1     -50.917  15.915  23.657  0.00  0.00     0.022 C 
ENDBRANCH   6   9
ENDBRANCH   1   4
BRANCH   2  11
ATOM     11  C   UNL d   1     -47.584  12.610  22.955  0.00  0.00     0.146 A 
ATOM     12  C   UNL d   1     -46.761  12.750  22.964  0.00  0.00     0.087 A 
ATOM     13 CL   UNL d   1     -46.456  13.432  22.590  0.00  0.00    -0.080 Cl
ATOM     14  C   UNL d   1     -46.262  12.229  23.332  0.00  0.00     0.014 A 
ATOM     15  C   UNL d   1     -46.571  11.558  23.698  0.00  0.00     0.001 A 
ATOM     16  C   UNL d   1     -47.384  11.411  23.694  0.00  0.00     0.003 A 
ATOM     17  C   UNL d   1     -47.894  11.940  23.321  0.00  0.00     0.033 A 
ENDBRANCH   2  11
TORSDOF 3
ENDMDL
MODEL 2
REMARK VINA RESULT:      -6.9      1.286      3.837
REMARK  3 active torsions:
REMARK  status: ('A' for Active; 'I' for Inactive)
REMARK    1  A    between atoms: C_3  and  C_1 
REMARK       I    between atoms: N_6  and  C_3 
REMARK    2  A    between atoms: C_12  and  N_5 
REMARK    3  A    between atoms: C_8  and  N_6 
ROOT
ATOM      1  C   UNL d   1     -48.453  13.832  22.307  0.00  0.00     0.348 C 
ATOM      2  N   UNL d   1     -49.049  14.226  22.735  0.00  0.00    -0.362 NA
ATOM      3  O   UNL d   1     -48.525  13.739  21.463  0.00  0.00    -0.249 OA
ENDROOT
BRANCH   1   4
ATOM      4  C   UNL d   1     -47.789  13.532  22.715  0.00  0.00     0.173 A 
ATOM      5  N   UNL d   1     -47.687  12.745  22.966  0.00  0.00    -0.159 NA
ATOM      6  N   UNL d   1     -46.947  12.701  23.345  0.00  0.00    -0.227 N 
ATOM      7  C   UNL d   1     -46.603  13.448  23.327  0.00  0.00     0.102 A 
ATOM      8  C   UNL d   1     -47.120  13.966  22.937  0.00  0.00     0.048 A 
BRANCH   6   9
ATOM      9  C   UNL d   1     -46.618  12.021  23.682  0.00  0.00     0.101 C 
ATOM     10  C   UNL d   1     -46.823  11.223  23.697  0.00  0.00     0.022 C 
ENDBRANCH   6   9
ENDBRANCH   1   4
BRANCH   2  11
ATOM     11  C   UNL d   1     -49.695  14.630  23.059  0.00  0.00     0.146 A 
ATOM     12  C   UNL d   1     -50.428  14.242  23.156  0.00  0.00     0.087 A 
ATOM     13 CL   UNL d   1     -50.505  13.444  22.926  0.00  0.00    -0.080 Cl
ATOM     14  C   UNL d   1     -51.060  14.638  23.473  0.00  0.00     0.014 A 
ATOM     15  C   UNL d   1     -50.976  15.427  23.698  0.00  0.00     0.001 A 
ATOM     16  C   UNL d   1     -50.255  15.818  23.605  0.00  0.00     0.003 A 
ATOM     17  C   UNL d   1     -49.610  15.418  23.284  0.00  0.00     0.033 A 
ENDBRANCH   2  11
TORSDOF 3
ENDMDL
MODEL 3
REMARK VINA RESULT:      -6.5      1.999      3.382
REMARK  3 active torsions:
REMARK  status: ('A' for Active; 'I' for Inactive)
REMARK    1  A    between atoms: C_3  and  C_1 
REMARK       I    between atoms: N_6  and  C_3 
REMARK    2  A    between atoms: C_12  and  N_5 
REMARK    3  A    between atoms: C_8  and  N_6 
ROOT
ATOM      1  C   UNL d   1     -48.386  13.294  21.960  0.00  0.00     0.348 C 
ATOM      2  N   UNL d   1     -48.942  12.934  22.465  0.00  0.00    -0.362 NA
ATOM      3  O   UNL d   1     -48.585  13.443  21.144  0.00  0.00    -0.249 OA
ENDROOT
BRANCH   1   4
ATOM      4  C   UNL d   1     -47.637  13.504  22.262  0.00  0.00     0.173 A 
ATOM      5  N   UNL d   1     -46.930  13.079  22.149  0.00  0.00    -0.159 NA
ATOM      6  N   UNL d   1     -46.327  13.493  22.547  0.00  0.00    -0.227 N 
ATOM      7  C   UNL d   1     -46.660  14.159  22.898  0.00  0.00     0.102 A 
ATOM      8  C   UNL d   1     -47.470  14.170  22.724  0.00  0.00     0.048 A 
BRANCH   6   9
ATOM      9  C   UNL d   1     -45.532  13.269  22.583  0.00  0.00     0.101 C 
ATOM     10  C   UNL d   1     -44.952  13.093  22.023  0.00  0.00     0.022 C 
ENDBRANCH   6   9
ENDBRANCH   1   4
BRANCH   2  11
ATOM     11  C   UNL d   1     -49.565  12.574  22.875  0.00  0.00     0.146 A 
ATOM     12  C   UNL d   1     -50.300  12.965  22.950  0.00  0.00     0.087 A 
ATOM     13 CL   UNL d   1     -50.402  13.719  22.608  0.00  0.00    -0.080 Cl
ATOM     14  C   UNL d   1     -50.910  12.612  23.351  0.00  0.00     0.014 A 
ATOM     15  C   UNL d   1     -50.801  11.867  23.685  0.00  0.00     0.001 A 
ATOM     16  C   UNL d   1     -50.078  11.474  23.616  0.00  0.00     0.003 A 
ATOM     17  C   UNL d   1     -49.455  11.829  23.209  0.00  0.00     0.033 A 
ENDBRANCH   2  11
TORSDOF 3
ENDMDL
MODEL 4
REMARK VINA RESULT:      -5.7      8.696      9.893
REMARK  3 active torsions:
REMARK  status: ('A' for Active; 'I' for Inactive)
REMARK    1  A    between atoms: C_3  and  C_1 
REMARK       I    between atoms: N_6  and  C_3 
REMARK    2  A    between atoms: C_12  and  N_5 
REMARK    3  A    between atoms: C_8  and  N_6 
ROOT
ATOM      1  C   UNL d   1     -40.532  14.419  18.356  0.00  0.00     0.348 C 
ATOM      2  N   UNL d   1     -40.450  14.782  19.100  0.00  0.00    -0.362 NA
ATOM      3  O   UNL d   1     -40.940  13.674  18.286  0.00  0.00    -0.249 OA
ENDROOT
BRANCH   1   4
ATOM      4  C   UNL d   1     -40.208  14.792  17.682  0.00  0.00     0.173 A 
ATOM      5  N   UNL d   1     -39.429  14.701  17.402  0.00  0.00    -0.159 NA
ATOM      6  N   UNL d   1     -39.355  15.175  16.722  0.00  0.00    -0.227 N 
ATOM      7  C   UNL d   1     -40.076  15.550  16.588  0.00  0.00     0.102 A 
ATOM      8  C   UNL d   1     -40.607  15.316  17.180  0.00  0.00     0.048 A 
BRANCH   6   9
ATOM      9  C   UNL d   1     -38.673  15.254  16.262  0.00  0.00     0.101 C 
ATOM     10  C   UNL d   1     -38.323  15.871  15.842  0.00  0.00     0.022 C 
ENDBRANCH   6   9
ENDBRANCH   1   4
BRANCH   2  11
ATOM     11  C   UNL d   1     -40.429  15.052  19.883  0.00  0.00     0.146 A 
ATOM     12  C   UNL d   1     -39.893  14.716  20.429  0.00  0.00     0.087 A 
ATOM     13 CL   UNL d   1     -39.381  14.106  20.180  0.00  0.00    -0.080 Cl
ATOM     14  C   UNL d   1     -39.872  14.980  21.195  0.00  0.00     0.014 A 
ATOM     15  C   UNL d   1     -40.382  15.583  21.432  0.00  0.00     0.001 A 
ATOM     16  C   UNL d   1     -40.914  15.921  20.899  0.00  0.00     0.003 A 
ATOM     17  C   UNL d   1     -40.938  15.655  20.119  0.00  0.00     0.033 A 
ENDBRANCH   2  11
TORSDOF 3
ENDMDL
MODEL 5
REMARK VINA RESULT:      -5.7      8.966      9.976
REMARK  3 active torsions:
REMARK  status: ('A' for Active; 'I' for Inactive)
REMARK    1  A    between atoms: C_3  and  C_1 
REMARK       I    between atoms: N_6  and  C_3 
REMARK    2  A    between atoms: C_12  and  N_5 
REMARK    3  A    between atoms: C_8  and  N_6 
ROOT
ATOM      1  C   UNL d   1     -40.515  14.311  18.355  0.00  0.00     0.348 C 
ATOM      2  N   UNL d   1     -39.822  14.057  17.970  0.00  0.00    -0.362 NA
ATOM      3  O   UNL d   1     -41.278  14.050  18.078  0.00  0.00    -0.249 OA
ENDROOT
BRANCH   1   4
ATOM      4  C   UNL d   1     -40.452  14.822  19.013  0.00  0.00     0.173 A 
ATOM      5  N   UNL d   1     -40.242  14.596  19.786  0.00  0.00    -0.159 NA
ATOM      6  N   UNL d   1     -40.250  15.284  20.255  0.00  0.00    -0.227 N 
ATOM      7  C   UNL d   1     -40.461  15.920  19.777  0.00  0.00     0.102 A 
ATOM      8  C   UNL d   1     -40.587  15.639  19.007  0.00  0.00     0.048 A 
BRANCH   6   9
ATOM      9  C   UNL d   1     -40.075  15.319  21.062  0.00  0.00     0.101 C 
ATOM     10  C   UNL d   1     -39.711  15.872  21.555  0.00  0.00     0.022 C 
ENDBRANCH   6   9
ENDBRANCH   1   4
BRANCH   2  11
ATOM     11  C   UNL d   1     -39.204  13.745  17.516  0.00  0.00     0.146 A 
ATOM     12  C   UNL d   1     -38.983  14.111  16.798  0.00  0.00     0.087 A 
ATOM     13 CL   UNL d   1     -39.390  14.793  16.542  0.00  0.00    -0.080 Cl
ATOM     14  C   UNL d   1     -38.378  13.805  16.353  0.00  0.00     0.014 A 
ATOM     15  C   UNL d   1     -37.981  13.131  16.614  0.00  0.00     0.001 A 
ATOM     16  C   UNL d   1     -38.193  12.764  17.322  0.00  0.00     0.003 A 
ATOM     17  C   UNL d   1     -38.808  13.071  17.777  0.00  0.00     0.033 A 
ENDBRANCH   2  11
TORSDOF 3
ENDMDL
MODEL 6
REMARK VINA RESULT:      -5.2      8.475      9.394
REMARK  3 active torsions:
REMARK  status: ('A' for Active; 'I' for Inactive)
REMARK    1  A    between atoms: C_3  and  C_1 
REMARK       I    between atoms: N_6  and  C_3 
REMARK    2  A    between atoms: C_12  and  N_5 
REMARK    3  A    between atoms: C_8  and  N_6 
ROOT
ATOM      1  C   UNL d   1     -40.813  14.468  19.726  0.00  0.00     0.348 C 
ATOM      2  N   UNL d   1     -40.600  14.712  18.959  0.00  0.00    -0.362 NA
ATOM      3  O   UNL d   1     -41.298  13.775  19.834  0.00  0.00    -0.249 OA
ENDROOT
BRANCH   1   4
ATOM      4  C   UNL d   1     -40.546  14.908  20.383  0.00  0.00     0.173 A 
ATOM      5  N   UNL d   1     -39.867  14.744  20.836  0.00  0.00    -0.159 NA
ATOM      6  N   UNL d   1     -39.820  15.325  21.430  0.00  0.00    -0.227 N 
ATOM      7  C   UNL d   1     -40.459  15.836  21.342  0.00  0.00     0.102 A 
ATOM      8  C   UNL d   1     -40.912  15.582  20.695  0.00  0.00     0.048 A 
BRANCH   6   9
ATOM      9  C   UNL d   1     -39.231  15.377  22.008  0.00  0.00     0.101 C 
ATOM     10  C   UNL d   1     -39.044  15.919  22.600  0.00  0.00     0.022 C 
ENDBRANCH   6   9
ENDBRANCH   1   4
BRANCH   2  11
ATOM     11  C   UNL d   1     -40.450  14.864  18.159  0.00  0.00     0.146 A 
ATOM     12  C   UNL d   1     -39.862  14.431  17.752  0.00  0.00     0.087 A 
ATOM     13 CL   UNL d   1     -39.428  13.846  18.157  0.00  0.00    -0.080 Cl
ATOM     14  C   UNL d   1     -39.715  14.580  16.969  0.00  0.00     0.014 A 
ATOM     15  C   UNL d   1     -40.149  15.161  16.576  0.00  0.00     0.001 A 
ATOM     16  C   UNL d   1     -40.731  15.593  16.970  0.00  0.00     0.003 A 
ATOM     17  C   UNL d   1     -40.884  15.445  17.767  0.00  0.00     0.033 A 
ENDBRANCH   2  11
TORSDOF 3
ENDMDL
