MODEL 1
REMARK VINA RESULT:      -8.0      0.000      0.000
REMARK  7 active torsions:
REMARK  status: ('A' for Active; 'I' for Inactive)
REMARK    1  A    between atoms: C_4  and  N_1 
REMARK       I    between atoms: C_2  and  N_6 
REMARK    2  A    between atoms: C_3  and  C_2 
REMARK    3  A    between atoms: C_5  and  C_3 
REMARK    4  A    between atoms: C_12  and  C_5 
REMARK    5  A    between atoms: N_6  and  C_11 
REMARK    6  A    between atoms: O_22  and  C_13 
REMARK    7  A    between atoms: C_25  and  O_22 
ROOT
ATOM      1  C   UNL d   1      49.890  34.477  52.143  0.00  0.00     0.328 C 
ATOM      2  N   UNL d   1      50.596  34.274  52.507  0.00  0.00    -0.365 NA
ATOM      3  O   UNL d   1      49.759  34.278  51.352  0.00  0.00    -0.251 OA
ENDROOT
BRANCH   1   4
ATOM      4  C   UNL d   1      49.307  34.879  52.564  0.00  0.00     0.076 C 
BRANCH   4   5
ATOM      5  C   UNL d   1      48.688  35.250  52.161  0.00  0.00     0.006 C 
BRANCH   5   6
ATOM      6  C   UNL d   1      48.082  35.614  52.592  0.00  0.00     0.000 A 
ATOM      7  C   UNL d   1      47.312  35.637  52.280  0.00  0.00     0.002 A 
ATOM      8  C   UNL d   1      46.706  35.997  52.703  0.00  0.00     0.025 A 
ATOM      9  C   UNL d   1      46.860  36.338  53.443  0.00  0.00     0.100 A 
ATOM     10  C   UNL d   1      47.621  36.317  53.757  0.00  0.00     0.025 A 
ATOM     11  C   UNL d   1      48.236  35.954  53.332  0.00  0.00     0.002 A 
BRANCH   9  12
ATOM     12  O   UNL d   1      46.252  36.698  53.867  0.00  0.00    -0.305 OA
BRANCH  12  13
ATOM     13  C   UNL d   1      45.860  36.278  54.457  0.00  0.00     0.123 C 
ATOM     14  C   UNL d   1      45.237  36.628  54.869  0.00  0.00     0.029 C 
ENDBRANCH  12  13
ENDBRANCH   9  12
ENDBRANCH   5   6
ENDBRANCH   4   5
ENDBRANCH   1   4
BRANCH   2  15
ATOM     15  C   UNL d   1      51.310  34.067  52.869  0.00  0.00     0.135 A 
ATOM     16  C   UNL d   1      51.392  33.336  53.253  0.00  0.00     0.034 A 
ATOM     17  C   UNL d   1      52.110  33.142  53.609  0.00  0.00     0.020 A 
ATOM     18  C   UNL d   1      52.743  33.671  53.585  0.00  0.00     0.064 A 
ATOM     19  C   UNL d   1      52.661  34.395  53.205  0.00  0.00     0.020 A 
ATOM     20  C   UNL d   1      51.946  34.593  52.847  0.00  0.00     0.034 A 
BRANCH  18  21
ATOM     21  N   UNL d   1      53.458  33.473  53.943  0.00  0.00    -0.300 N 
ATOM     22  C   UNL d   1      54.005  33.003  53.541  0.00  0.00     0.107 A 
ATOM     23  C   UNL d   1      54.717  32.805  53.894  0.00  0.00     0.142 A 
ATOM     24  O   UNL d   1      54.889  33.078  54.656  0.00  0.00    -0.300 OA
ATOM     25  C   UNL d   1      54.343  33.548  55.058  0.00  0.00     0.142 A 
ATOM     26  C   UNL d   1      53.624  33.748  54.703  0.00  0.00     0.107 A 
ENDBRANCH  18  21
ENDBRANCH   2  15
TORSDOF 7
ENDMDL
MODEL 2
REMARK VINA RESULT:      -8.0      2.036      6.626
REMARK  7 active torsions:
REMARK  status: ('A' for Active; 'I' for Inactive)
REMARK    1  A    between atoms: C_4  and  N_1 
REMARK       I    between atoms: C_2  and  N_6 
REMARK    2  A    between atoms: C_3  and  C_2 
REMARK    3  A    between atoms: C_5  and  C_3 
REMARK    4  A    between atoms: C_12  and  C_5 
REMARK    5  A    between atoms: N_6  and  C_11 
REMARK    6  A    between atoms: O_22  and  C_13 
REMARK    7  A    between atoms: C_25  and  O_22 
ROOT
ATOM      1  C   UNL d   1      51.978  33.859  52.905  0.00  0.00     0.328 C 
ATOM      2  N   UNL d   1      51.226  34.151  52.755  0.00  0.00    -0.365 NA
ATOM      3  O   UNL d   1      52.621  34.374  52.951  0.00  0.00    -0.251 OA
ENDROOT
BRANCH   1   4
ATOM      4  C   UNL d   1      52.094  33.051  53.012  0.00  0.00     0.076 C 
BRANCH   4   5
ATOM      5  C   UNL d   1      52.850  32.728  52.930  0.00  0.00     0.006 C 
BRANCH   5   6
ATOM      6  C   UNL d   1      52.978  31.934  53.128  0.00  0.00     0.000 A 
ATOM      7  C   UNL d   1      53.566  31.739  53.681  0.00  0.00     0.002 A 
ATOM      8  C   UNL d   1      53.698  30.951  53.882  0.00  0.00     0.025 A 
ATOM      9  C   UNL d   1      53.245  30.351  53.533  0.00  0.00     0.100 A 
ATOM     10  C   UNL d   1      52.661  30.541  52.985  0.00  0.00     0.025 A 
ATOM     11  C   UNL d   1      52.525  31.334  52.779  0.00  0.00     0.002 A 
BRANCH   9  12
ATOM     12  O   UNL d   1      53.377  29.564  53.735  0.00  0.00    -0.305 OA
BRANCH  12  13
ATOM     13  C   UNL d   1      53.332  29.330  54.523  0.00  0.00     0.123 C 
ATOM     14  C   UNL d   1      53.452  28.540  54.728  0.00  0.00     0.029 C 
ENDBRANCH  12  13
ENDBRANCH   9  12
ENDBRANCH   5   6
ENDBRANCH   4   5
ENDBRANCH   1   4
BRANCH   2  15
ATOM     15  C   UNL d   1      50.470  34.452  52.603  0.00  0.00     0.135 A 
ATOM     16  C   UNL d   1      50.041  34.832  53.202  0.00  0.00     0.034 A 
ATOM     17  C   UNL d   1      49.288  35.127  53.037  0.00  0.00     0.020 A 
ATOM     18  C   UNL d   1      48.965  35.046  52.282  0.00  0.00     0.064 A 
ATOM     19  C   UNL d   1      49.392  34.668  51.690  0.00  0.00     0.020 A 
ATOM     20  C   UNL d   1      50.144  34.372  51.850  0.00  0.00     0.034 A 
BRANCH  18  21
ATOM     21  N   UNL d   1      48.213  35.342  52.122  0.00  0.00    -0.300 N 
ATOM     22  C   UNL d   1      47.860  35.875  52.643  0.00  0.00     0.107 A 
ATOM     23  C   UNL d   1      47.112  36.172  52.486  0.00  0.00     0.142 A 
ATOM     24  O   UNL d   1      46.711  35.935  51.802  0.00  0.00    -0.300 OA
ATOM     25  C   UNL d   1      47.064  35.401  51.281  0.00  0.00     0.142 A 
ATOM     26  C   UNL d   1      47.818  35.102  51.439  0.00  0.00     0.107 A 
ENDBRANCH  18  21
ENDBRANCH   2  15
TORSDOF 7
ENDMDL
MODEL 3
REMARK VINA RESULT:      -7.4      1.350      6.509
REMARK  7 active torsions:
REMARK  status: ('A' for Active; 'I' for Inactive)
REMARK    1  A    between atoms: C_4  and  N_1 
REMARK       I    between atoms: C_2  and  N_6 
REMARK    2  A    between atoms: C_3  and  C_2 
REMARK    3  A    between atoms: C_5  and  C_3 
REMARK    4  A    between atoms: C_12  and  C_5 
REMARK    5  A    between atoms: N_6  and  C_11 
REMARK    6  A    between atoms: O_22  and  C_13 
REMARK    7  A    between atoms: C_25  and  O_22 
ROOT
ATOM      1  C   UNL d   1      50.154  34.413  51.779  0.00  0.00     0.328 C 
ATOM      2  N   UNL d   1      49.409  34.744  51.876  0.00  0.00    -0.365 NA
ATOM      3  O   UNL d   1      50.374  34.094  51.051  0.00  0.00    -0.251 OA
ENDROOT
BRANCH   1   4
ATOM      4  C   UNL d   1      50.685  34.398  52.409  0.00  0.00     0.076 C 
BRANCH   4   5
ATOM      5  C   UNL d   1      51.468  34.167  52.282  0.00  0.00     0.006 C 
BRANCH   5   6
ATOM      6  C   UNL d   1      51.984  34.105  52.927  0.00  0.00     0.000 A 
ATOM      7  C   UNL d   1      52.086  33.371  53.303  0.00  0.00     0.002 A 
ATOM      8  C   UNL d   1      52.597  33.304  53.945  0.00  0.00     0.025 A 
ATOM      9  C   UNL d   1      53.012  33.967  54.218  0.00  0.00     0.100 A 
ATOM     10  C   UNL d   1      52.914  34.696  53.848  0.00  0.00     0.025 A 
ATOM     11  C   UNL d   1      52.399  34.769  53.200  0.00  0.00     0.002 A 
BRANCH   9  12
ATOM     12  O   UNL d   1      53.523  33.899  54.860  0.00  0.00    -0.305 OA
BRANCH  12  13
ATOM     13  C   UNL d   1      54.242  33.508  54.771  0.00  0.00     0.123 C 
ATOM     14  C   UNL d   1      54.818  33.560  55.360  0.00  0.00     0.029 C 
ENDBRANCH  12  13
ENDBRANCH   9  12
ENDBRANCH   5   6
ENDBRANCH   4   5
ENDBRANCH   1   4
BRANCH   2  15
ATOM     15  C   UNL d   1      48.657  35.076  51.968  0.00  0.00     0.135 A 
ATOM     16  C   UNL d   1      48.474  35.525  52.641  0.00  0.00     0.034 A 
ATOM     17  C   UNL d   1      47.720  35.850  52.719  0.00  0.00     0.020 A 
ATOM     18  C   UNL d   1      47.152  35.730  52.133  0.00  0.00     0.064 A 
ATOM     19  C   UNL d   1      47.335  35.285  51.466  0.00  0.00     0.020 A 
ATOM     20  C   UNL d   1      48.086  34.958  51.384  0.00  0.00     0.034 A 
BRANCH  18  21
ATOM     21  N   UNL d   1      46.400  36.057  52.215  0.00  0.00    -0.300 N 
ATOM     22  C   UNL d   1      45.878  36.057  51.576  0.00  0.00     0.107 A 
ATOM     23  C   UNL d   1      45.129  36.381  51.655  0.00  0.00     0.142 A 
ATOM     24  O   UNL d   1      44.897  36.709  52.378  0.00  0.00    -0.300 OA
ATOM     25  C   UNL d   1      45.419  36.709  53.017  0.00  0.00     0.142 A 
ATOM     26  C   UNL d   1      46.174  36.383  52.939  0.00  0.00     0.107 A 
ENDBRANCH  18  21
ENDBRANCH   2  15
TORSDOF 7
ENDMDL
MODEL 4
REMARK VINA RESULT:      -6.2      1.549      2.097
REMARK  7 active torsions:
REMARK  status: ('A' for Active; 'I' for Inactive)
REMARK    1  A    between atoms: C_4  and  N_1 
REMARK       I    between atoms: C_2  and  N_6 
REMARK    2  A    between atoms: C_3  and  C_2 
REMARK    3  A    between atoms: C_5  and  C_3 
REMARK    4  A    between atoms: C_12  and  C_5 
REMARK    5  A    between atoms: N_6  and  C_11 
REMARK    6  A    between atoms: O_22  and  C_13 
REMARK    7  A    between atoms: C_25  and  O_22 
ROOT
ATOM      1  C   UNL d   1      49.412  35.237  53.166  0.00  0.00     0.328 C 
ATOM      2  N   UNL d   1      50.055  34.727  53.165  0.00  0.00    -0.365 NA
ATOM      3  O   UNL d   1      49.345  35.819  53.746  0.00  0.00    -0.251 OA
ENDROOT
BRANCH   1   4
ATOM      4  C   UNL d   1      48.830  35.169  52.586  0.00  0.00     0.076 C 
BRANCH   4   5
ATOM      5  C   UNL d   1      48.431  35.842  52.320  0.00  0.00     0.006 C 
BRANCH   5   6
ATOM      6  C   UNL d   1      47.707  35.759  51.928  0.00  0.00     0.000 A 
ATOM      7  C   UNL d   1      47.037  36.159  52.214  0.00  0.00     0.002 A 
ATOM      8  C   UNL d   1      46.314  36.080  51.828  0.00  0.00     0.025 A 
ATOM      9  C   UNL d   1      46.252  35.601  51.154  0.00  0.00     0.100 A 
ATOM     10  C   UNL d   1      46.913  35.203  50.868  0.00  0.00     0.025 A 
ATOM     11  C   UNL d   1      47.645  35.280  51.254  0.00  0.00     0.002 A 
BRANCH   9  12
ATOM     12  O   UNL d   1      45.528  35.522  50.769  0.00  0.00    -0.305 OA
BRANCH  12  13
ATOM     13  C   UNL d   1      44.877  35.225  51.177  0.00  0.00     0.123 C 
ATOM     14  C   UNL d   1      44.314  34.770  50.782  0.00  0.00     0.029 C 
ENDBRANCH  12  13
ENDBRANCH   9  12
ENDBRANCH   5   6
ENDBRANCH   4   5
ENDBRANCH   1   4
BRANCH   2  15
ATOM     15  C   UNL d   1      50.706  34.217  53.170  0.00  0.00     0.135 A 
ATOM     16  C   UNL d   1      51.469  34.508  53.028  0.00  0.00     0.034 A 
ATOM     17  C   UNL d   1      52.110  33.988  53.036  0.00  0.00     0.020 A 
ATOM     18  C   UNL d   1      51.992  33.184  53.183  0.00  0.00     0.064 A 
ATOM     19  C   UNL d   1      51.234  32.898  53.324  0.00  0.00     0.020 A 
ATOM     20  C   UNL d   1      50.592  33.413  53.317  0.00  0.00     0.034 A 
BRANCH  18  21
ATOM     21  N   UNL d   1      52.634  32.669  53.190  0.00  0.00    -0.300 N 
ATOM     22  C   UNL d   1      52.544  31.894  52.921  0.00  0.00     0.107 A 
ATOM     23  C   UNL d   1      53.181  31.378  52.927  0.00  0.00     0.142 A 
ATOM     24  O   UNL d   1      53.917  31.637  53.204  0.00  0.00    -0.300 OA
ATOM     25  C   UNL d   1      54.007  32.411  53.472  0.00  0.00     0.142 A 
ATOM     26  C   UNL d   1      53.366  32.932  53.467  0.00  0.00     0.107 A 
ENDBRANCH  18  21
ENDBRANCH   2  15
TORSDOF 7
ENDMDL
MODEL 5
REMARK VINA RESULT:      -5.1      9.479     11.171
REMARK  7 active torsions:
REMARK  status: ('A' for Active; 'I' for Inactive)
REMARK    1  A    between atoms: C_4  and  N_1 
REMARK       I    between atoms: C_2  and  N_6 
REMARK    2  A    between atoms: C_3  and  C_2 
REMARK    3  A    between atoms: C_5  and  C_3 
REMARK    4  A    between atoms: C_12  and  C_5 
REMARK    5  A    between atoms: N_6  and  C_11 
REMARK    6  A    between atoms: O_22  and  C_13 
REMARK    7  A    between atoms: C_25  and  O_22 
ROOT
ATOM      1  C   UNL d   1      44.866  30.234  58.639  0.00  0.00     0.328 C 
ATOM      2  N   UNL d   1      44.783  30.392  59.441  0.00  0.00    -0.365 NA
ATOM      3  O   UNL d   1      45.152  30.816  58.130  0.00  0.00    -0.251 OA
ENDROOT
BRANCH   1   4
ATOM      4  C   UNL d   1      44.663  29.494  58.341  0.00  0.00     0.076 C 
BRANCH   4   5
ATOM      5  C   UNL d   1      45.015  29.218  57.646  0.00  0.00     0.006 C 
BRANCH   5   6
ATOM      6  C   UNL d   1      44.879  28.439  57.401  0.00  0.00     0.000 A 
ATOM      7  C   UNL d   1      44.637  28.290  56.620  0.00  0.00     0.002 A 
ATOM      8  C   UNL d   1      44.501  27.517  56.371  0.00  0.00     0.025 A 
ATOM      9  C   UNL d   1      44.604  26.886  56.899  0.00  0.00     0.100 A 
ATOM     10  C   UNL d   1      44.843  27.029  57.673  0.00  0.00     0.025 A 
ATOM     11  C   UNL d   1      44.982  27.807  57.928  0.00  0.00     0.002 A 
BRANCH   9  12
ATOM     12  O   UNL d   1      44.467  26.112  56.649  0.00  0.00    -0.305 OA
BRANCH  12  13
ATOM     13  C   UNL d   1      45.057  25.701  56.249  0.00  0.00     0.123 C 
ATOM     14  C   UNL d   1      44.869  25.025  55.815  0.00  0.00     0.029 C 
ENDBRANCH  12  13
ENDBRANCH   9  12
ENDBRANCH   5   6
ENDBRANCH   4   5
ENDBRANCH   1   4
BRANCH   2  15
ATOM     15  C   UNL d   1      44.703  30.557  60.247  0.00  0.00     0.135 A 
ATOM     16  C   UNL d   1      44.448  31.305  60.500  0.00  0.00     0.034 A 
ATOM     17  C   UNL d   1      44.373  31.456  61.308  0.00  0.00     0.020 A 
ATOM     18  C   UNL d   1      44.548  30.868  61.860  0.00  0.00     0.064 A 
ATOM     19  C   UNL d   1      44.800  30.127  61.607  0.00  0.00     0.020 A 
ATOM     20  C   UNL d   1      44.877  29.972  60.802  0.00  0.00     0.034 A 
BRANCH  18  21
ATOM     21  N   UNL d   1      44.471  31.023  62.665  0.00  0.00    -0.300 N 
ATOM     22  C   UNL d   1      44.391  30.400  63.200  0.00  0.00     0.107 A 
ATOM     23  C   UNL d   1      44.314  30.551  64.001  0.00  0.00     0.142 A 
ATOM     24  O   UNL d   1      44.316  31.332  64.275  0.00  0.00    -0.300 OA
ATOM     25  C   UNL d   1      44.396  31.956  63.740  0.00  0.00     0.142 A 
ATOM     26  C   UNL d   1      44.473  31.804  62.932  0.00  0.00     0.107 A 
ENDBRANCH  18  21
ENDBRANCH   2  15
TORSDOF 7
ENDMDL
