MODEL 1
REMARK VINA RESULT:      35.3      0.000      0.000
REMARK  5 active torsions:
REMARK  status: ('A' for Active; 'I' for Inactive)
REMARK    1  A    between atoms: C_8  and  N_1 
REMARK    2  A    between atoms: S_4  and  C_10 
REMARK    3  A    between atoms: C_5  and  C_8 
REMARK       I    between atoms: N_9  and  C_5 
REMARK    4  A    between atoms: C_20  and  C_8 
REMARK    5  A    between atoms: C_19  and  N_9 
ROOT
ATOM      1  C   UNL d   1      45.290 -15.602  44.083  0.00  0.00     0.140 C 
ENDROOT
BRANCH   1   2
ATOM      2  C   UNL d   1      45.891 -16.119  44.312  0.00  0.00     0.344 C 
ATOM      3  N   UNL d   1      46.003 -16.818  43.898  0.00  0.00    -0.363 NA
ATOM      4  O   UNL d   1      46.374 -15.930  44.955  0.00  0.00    -0.249 OA
BRANCH   3   5
ATOM      5  C   UNL d   1      46.137 -17.520  43.505  0.00  0.00     0.135 A 
ATOM      6  C   UNL d   1      46.503 -18.160  43.874  0.00  0.00     0.033 A 
ATOM      7  C   UNL d   1      46.633 -18.864  43.464  0.00  0.00     0.016 A 
ATOM      8  C   UNL d   1      46.388 -18.924  42.672  0.00  0.00     0.107 A 
ATOM      9  C   UNL d   1      46.022 -18.284  42.304  0.00  0.00     0.016 A 
ATOM     10  C   UNL d   1      45.897 -17.583  42.722  0.00  0.00     0.033 A 
BRANCH   8  11
ATOM     11  S   UNL d   1      46.517 -19.628  42.262  0.00  0.00     0.302 S 
ATOM     12  O   UNL d   1      46.393 -20.038  42.928  0.00  0.00    -0.197 OA
ATOM     13  O   UNL d   1      46.647 -19.197  41.571  0.00  0.00    -0.197 OA
ATOM     14  N   UNL d   1      46.646 -20.326  41.851  0.00  0.00    -0.043 N 
ENDBRANCH   8  11
ENDBRANCH   3   5
ENDBRANCH   1   2
BRANCH   1  15
ATOM     15  N   UNL d   1      45.405 -14.786  44.139  0.00  0.00    -0.236 N 
ATOM     16  C   UNL d   1      46.028 -14.354  43.809  0.00  0.00     0.267 A 
ATOM     17  C   UNL d   1      45.921 -13.554  44.005  0.00  0.00     0.061 A 
ATOM     18  O   UNL d   1      46.647 -14.664  43.361  0.00  0.00    -0.267 OA
ATOM     19  C   UNL d   1      46.356 -12.866  43.835  0.00  0.00     0.005 A 
ATOM     20  C   UNL d   1      45.224 -13.493  44.462  0.00  0.00     0.061 A 
ATOM     21  C   UNL d   1      46.106 -12.136  44.113  0.00  0.00     0.000 A 
ATOM     22  C   UNL d   1      45.417 -12.081  44.564  0.00  0.00     0.000 A 
ATOM     23  C   UNL d   1      44.978 -12.755  44.738  0.00  0.00     0.005 A 
ATOM     24  C   UNL d   1      44.905 -14.253  44.546  0.00  0.00     0.267 A 
ATOM     25  O   UNL d   1      44.220 -14.444  44.955  0.00  0.00    -0.267 OA
ENDBRANCH   1  15
BRANCH   1  26
ATOM     26  C   UNL d   1      44.585 -15.901  43.801  0.00  0.00     0.022 C 
ATOM     27  C   UNL d   1      44.385 -15.830  43.007  0.00  0.00     0.002 C 
ATOM     28  C   UNL d   1      44.066 -16.280  44.319  0.00  0.00     0.002 C 
ENDBRANCH   1  26
TORSDOF 5
ENDMDL
MODEL 2
REMARK VINA RESULT:      37.4      1.905      5.193
REMARK  5 active torsions:
REMARK  status: ('A' for Active; 'I' for Inactive)
REMARK    1  A    between atoms: C_8  and  N_1 
REMARK    2  A    between atoms: S_4  and  C_10 
REMARK    3  A    between atoms: C_5  and  C_8 
REMARK       I    between atoms: N_9  and  C_5 
REMARK    4  A    between atoms: C_20  and  C_8 
REMARK    5  A    between atoms: C_19  and  N_9 
ROOT
ATOM      1  C   UNL d   1      45.485 -17.405  43.898  0.00  0.00     0.140 C 
ENDROOT
BRANCH   1   2
ATOM      2  C   UNL d   1      46.004 -17.012  44.405  0.00  0.00     0.344 C 
ATOM      3  N   UNL d   1      45.966 -16.195  44.469  0.00  0.00    -0.363 NA
ATOM      4  O   UNL d   1      46.557 -17.441  44.842  0.00  0.00    -0.249 OA
BRANCH   3   5
ATOM      5  C   UNL d   1      45.951 -15.383  44.553  0.00  0.00     0.135 A 
ATOM      6  C   UNL d   1      46.623 -14.922  44.427  0.00  0.00     0.033 A 
ATOM      7  C   UNL d   1      46.593 -14.103  44.515  0.00  0.00     0.016 A 
ATOM      8  C   UNL d   1      45.876 -13.744  44.733  0.00  0.00     0.107 A 
ATOM      9  C   UNL d   1      45.204 -14.205  44.858  0.00  0.00     0.016 A 
ATOM     10  C   UNL d   1      45.243 -15.025  44.767  0.00  0.00     0.033 A 
BRANCH   8  11
ATOM     11  S   UNL d   1      45.846 -12.924  44.821  0.00  0.00     0.302 S 
ATOM     12  O   UNL d   1      46.637 -12.897  44.844  0.00  0.00    -0.197 OA
ATOM     13  O   UNL d   1      45.021 -12.956  44.797  0.00  0.00    -0.197 OA
ATOM     14  N   UNL d   1      45.811 -12.109  44.909  0.00  0.00    -0.043 N 
ENDBRANCH   8  11
ENDBRANCH   3   5
ENDBRANCH   1   2
BRANCH   1  15
ATOM     15  N   UNL d   1      45.756 -18.034  43.437  0.00  0.00    -0.236 N 
ATOM     16  C   UNL d   1      45.913 -18.802  43.699  0.00  0.00     0.267 A 
ATOM     17  C   UNL d   1      46.174 -19.248  43.048  0.00  0.00     0.061 A 
ATOM     18  O   UNL d   1      45.826 -19.076  44.471  0.00  0.00    -0.267 OA
ATOM     19  C   UNL d   1      46.411 -20.041  42.964  0.00  0.00     0.005 A 
ATOM     20  C   UNL d   1      46.177 -18.749  42.379  0.00  0.00     0.061 A 
ATOM     21  C   UNL d   1      46.645 -20.330  42.233  0.00  0.00     0.000 A 
ATOM     22  C   UNL d   1      46.647 -19.832  41.574  0.00  0.00     0.000 A 
ATOM     23  C   UNL d   1      46.414 -19.047  41.646  0.00  0.00     0.005 A 
ATOM     24  C   UNL d   1      45.919 -17.998  42.618  0.00  0.00     0.267 A 
ATOM     25  O   UNL d   1      45.840 -17.341  42.133  0.00  0.00    -0.267 OA
ENDBRANCH   1  15
BRANCH   1  26
ATOM     26  C   UNL d   1      44.704 -17.168  43.857  0.00  0.00     0.022 C 
ATOM     27  C   UNL d   1      44.320 -17.112  43.134  0.00  0.00     0.002 C 
ATOM     28  C   UNL d   1      44.297 -16.984  44.550  0.00  0.00     0.002 C 
ENDBRANCH   1  26
TORSDOF 5
ENDMDL
