MODEL 1
REMARK VINA RESULT:      -1.5      0.000      0.000
REMARK  5 active torsions:
REMARK  status: ('A' for Active; 'I' for Inactive)
REMARK    1  A    between atoms: C_23  and  N_10 
REMARK    2  A    between atoms: C_14  and  N_13 
REMARK    3  A    between atoms: N_15  and  C_28 
REMARK    4  A    between atoms: C_27  and  C_23 
REMARK    5  A    between atoms: C_28  and  C_27 
ROOT
ATOM      1  C   UNL d   1      32.840  22.158 -21.821  0.00  0.00     0.173 A 
ATOM      2  C   UNL d   1      32.889  21.366 -21.683  0.00  0.00     0.191 A 
ATOM      3  C   UNL d   1      33.019  21.109 -23.080  0.00  0.00     0.722 A 
ATOM      4  N   UNL d   1      32.969  21.923 -23.234  0.00  0.00    -0.131 N 
ATOM      5  N   UNL d   1      32.979  20.831 -22.305  0.00  0.00    -0.042 NA
ATOM      6  N   UNL d   1      32.850  21.075 -20.916  0.00  0.00    -0.240 N 
ATOM      7  N   UNL d   1      32.709  22.456 -20.455  0.00  0.00    -0.223 N 
ATOM      8  C   UNL d   1      32.760  21.620 -20.297  0.00  0.00     0.343 A 
ATOM      9  C   UNL d   1      32.750  22.723 -21.228  0.00  0.00     0.288 A 
ATOM     10  N   UNL d   1      33.109  20.575 -23.703  0.00  0.00    -0.139 N 
ATOM     11  C   UNL d   1      33.101  21.664 -24.644  0.00  0.00     0.116 A 
ATOM     12  C   UNL d   1      33.150  20.851 -24.490  0.00  0.00     0.100 A 
ATOM     13  O   UNL d   1      32.721  21.299 -19.501  0.00  0.00    -0.245 OA
ATOM     14  O   UNL d   1      32.700  23.535 -21.381  0.00  0.00    -0.265 OA
ATOM     15  C   UNL d   1      32.900  20.262 -20.762  0.00  0.00     0.105 C 
ATOM     16  C   UNL d   1      32.619  22.990 -19.832  0.00  0.00     0.107 C 
ATOM     17  C   UNL d   1      33.241  20.296 -25.096  0.00  0.00     0.021 C 
ENDROOT
BRANCH  10  18
ATOM     18  C   UNL d   1      33.159  19.762 -23.556  0.00  0.00     0.100 C 
BRANCH  18  19
ATOM     19  C   UNL d   1      32.515  19.262 -23.715  0.00  0.00     0.039 C 
BRANCH  19  20
ATOM     20  C   UNL d   1      32.582  18.456 -23.598  0.00  0.00     0.082 C 
BRANCH  20  21
ATOM     21  N   UNL d   1      31.939  17.961 -23.745  0.00  0.00    -0.300 N 
ATOM     22  C   UNL d   1      31.718  17.400 -23.181  0.00  0.00     0.100 A 
ATOM     23  C   UNL d   1      31.071  16.905 -23.333  0.00  0.00     0.100 A 
ATOM     24  N   UNL d   1      30.652  16.969 -24.037  0.00  0.00    -0.301 N 
ATOM     25  C   UNL d   1      30.877  17.532 -24.599  0.00  0.00     0.100 A 
ATOM     26  C   UNL d   1      31.517  18.025 -24.455  0.00  0.00     0.100 A 
BRANCH  24  27
ATOM     27  C   UNL d   1      30.009  16.473 -24.183  0.00  0.00     0.065 A 
ATOM     28  C   UNL d   1      29.456  16.336 -23.597  0.00  0.00     0.029 A 
ATOM     29  C   UNL d   1      28.821  15.847 -23.738  0.00  0.00     0.059 A 
ATOM     30 CL   UNL d   1      28.255  15.707 -23.140  0.00  0.00    -0.082 Cl
ATOM     31  C   UNL d   1      28.733  15.486 -24.479  0.00  0.00     0.011 A 
ATOM     32  C   UNL d   1      29.289  15.622 -25.074  0.00  0.00     0.002 A 
ATOM     33  C   UNL d   1      29.932  16.118 -24.928  0.00  0.00     0.018 A 
ENDBRANCH  24  27
ENDBRANCH  20  21
ENDBRANCH  19  20
ENDBRANCH  18  19
ENDBRANCH  10  18
TORSDOF 5
ENDMDL
