MODEL 1
REMARK VINA RESULT:      35.3      0.000      0.000
REMARK  3 active torsions:
REMARK  status: ('A' for Active; 'I' for Inactive)
REMARK    1  A    between atoms: N_3  and  C_1 
REMARK       I    between atoms: C_5  and  N_3 
REMARK    2  A    between atoms: C_4  and  C_5 
REMARK    3  A    between atoms: C_12  and  C_6 
ROOT
ATOM      1  C   UNL d   1      13.474  12.700  -3.152  0.00  0.00     0.249 A 
ATOM      2  N   UNL d   1      13.588  13.485  -3.390  0.00  0.00    -0.210 NA
ATOM      3  C   UNL d   1      13.342  13.549  -4.185  0.00  0.00     0.091 A 
ATOM      4  S   UNL d   1      13.161  12.272  -3.782  0.00  0.00    -0.033 SA
ATOM      5  C   UNL d   1      13.079  12.805  -4.429  0.00  0.00     0.059 A 
ENDROOT
BRANCH   1   6
ATOM      6  N   UNL d   1      13.646  12.399  -2.404  0.00  0.00    -0.337 NA
ATOM      7  C   UNL d   1      13.563  12.048  -1.662  0.00  0.00     0.355 C 
ATOM      8  O   UNL d   1      12.818  11.781  -1.407  0.00  0.00    -0.249 OA
BRANCH   7   9
ATOM      9  C   UNL d   1      14.223  11.959  -1.166  0.00  0.00     0.197 A 
ATOM     10  O   UNL d   1      15.024  11.940  -1.406  0.00  0.00    -0.205 OA
ATOM     11  N   UNL d   1      15.491  11.842  -0.727  0.00  0.00    -0.124 NA
ATOM     12  C   UNL d   1      14.986  11.801  -0.071  0.00  0.00     0.130 A 
ATOM     13  C   UNL d   1      14.202  11.873  -0.335  0.00  0.00     0.056 A 
ENDBRANCH   7   9
ENDBRANCH   1   6
BRANCH   3  14
ATOM     14  C   UNL d   1      13.358  14.229  -4.643  0.00  0.00     0.018 A 
ATOM     15  C   UNL d   1      13.919  14.313  -5.233  0.00  0.00     0.002 A 
ATOM     16  C   UNL d   1      13.937  14.996  -5.694  0.00  0.00     0.000 A 
ATOM     17  C   UNL d   1      13.385  15.593  -5.557  0.00  0.00     0.000 A 
ATOM     18  C   UNL d   1      12.818  15.513  -4.964  0.00  0.00     0.000 A 
ATOM     19  C   UNL d   1      13.398  16.282  -6.018  0.00  0.00     0.000 C 
ATOM     20  C   UNL d   1      12.804  14.824  -4.503  0.00  0.00     0.002 A 
ENDBRANCH   3  14
TORSDOF 3
ENDMDL
MODEL 2
REMARK VINA RESULT:      38.0      3.057      3.979
REMARK  3 active torsions:
REMARK  status: ('A' for Active; 'I' for Inactive)
REMARK    1  A    between atoms: N_3  and  C_1 
REMARK       I    between atoms: C_5  and  N_3 
REMARK    2  A    between atoms: C_4  and  C_5 
REMARK    3  A    between atoms: C_12  and  C_6 
ROOT
ATOM      1  C   UNL d   1      14.877  14.262  -1.316  0.00  0.00     0.249 A 
ATOM      2  N   UNL d   1      14.525  14.133  -2.054  0.00  0.00    -0.210 NA
ATOM      3  C   UNL d   1      14.312  13.327  -2.098  0.00  0.00     0.091 A 
ATOM      4  S   UNL d   1      14.888  13.553  -0.898  0.00  0.00    -0.033 SA
ATOM      5  C   UNL d   1      14.534  12.968  -1.390  0.00  0.00     0.059 A 
ENDROOT
BRANCH   1   6
ATOM      6  N   UNL d   1      15.167  14.984  -1.045  0.00  0.00    -0.337 NA
ATOM      7  C   UNL d   1      15.612  15.547  -0.638  0.00  0.00     0.355 C 
ATOM      8  O   UNL d   1      16.206  15.308  -0.108  0.00  0.00    -0.249 OA
BRANCH   7   9
ATOM      9  C   UNL d   1      15.469  16.357  -0.756  0.00  0.00     0.197 A 
ATOM     10  O   UNL d   1      15.513  16.958  -0.176  0.00  0.00    -0.205 OA
ATOM     11  N   UNL d   1      15.327  17.679  -0.540  0.00  0.00    -0.124 NA
ATOM     12  C   UNL d   1      15.168  17.529  -1.340  0.00  0.00     0.130 A 
ATOM     13  C   UNL d   1      15.253  16.715  -1.480  0.00  0.00     0.056 A 
ENDBRANCH   7   9
ENDBRANCH   1   6
BRANCH   3  14
ATOM     14  C   UNL d   1      13.947  12.958  -2.734  0.00  0.00     0.018 A 
ATOM     15  C   UNL d   1      13.792  12.155  -2.707  0.00  0.00     0.002 A 
ATOM     16  C   UNL d   1      13.426  11.782  -3.344  0.00  0.00     0.000 A 
ATOM     17  C   UNL d   1      13.217  12.224  -4.008  0.00  0.00     0.000 A 
ATOM     18  C   UNL d   1      13.372  13.034  -4.040  0.00  0.00     0.000 A 
ATOM     19  C   UNL d   1      12.849  11.854  -4.652  0.00  0.00     0.000 C 
ATOM     20  C   UNL d   1      13.741  13.404  -3.396  0.00  0.00     0.002 A 
ENDBRANCH   3  14
TORSDOF 3
ENDMDL
