MODEL 1
REMARK VINA RESULT:      -4.2      0.000      0.000
REMARK  2 active torsions:
REMARK  status: ('A' for Active; 'I' for Inactive)
REMARK    1  A    between atoms: C_5  and  N_2 
REMARK    2  A    between atoms: C_4  and  C_5 
ROOT
ATOM      1  C   UNL d   1      56.732  -0.206  31.976  0.00  0.00     0.206 A 
ATOM      2  N   UNL d   1      56.296  -0.110  32.674  0.00  0.00    -0.279 N 
ATOM      3  N   UNL d   1      56.702  -1.013  31.765  0.00  0.00    -0.215 NA
ATOM      4  C   UNL d   1      56.251  -1.402  32.334  0.00  0.00     0.120 A 
ATOM      5  C   UNL d   1      55.999  -0.848  32.894  0.00  0.00     0.103 A 
ATOM      6  S   UNL d   1      57.127   0.391  31.561  0.00  0.00    -0.038 SA
ENDROOT
BRANCH   2   7
ATOM      7  C   UNL d   1      56.178   0.604  33.082  0.00  0.00     0.089 C 
BRANCH   7   8
ATOM      8  C   UNL d   1      55.666   0.631  33.721  0.00  0.00     0.047 A 
ATOM      9  S   UNL d   1      55.884   0.663  34.512  0.00  0.00    -0.085 SA
ATOM     10  C   UNL d   1      55.198   0.682  34.971  0.00  0.00     0.035 A 
ATOM     11  C   UNL d   1      54.552   0.660  34.452  0.00  0.00     0.007 A 
ATOM     12  C   UNL d   1      54.843   0.629  33.683  0.00  0.00     0.009 A 
ENDBRANCH   7   8
ENDBRANCH   2   7
TORSDOF 2
ENDMDL
MODEL 2
REMARK VINA RESULT:      -3.9      1.124      2.738
REMARK  2 active torsions:
REMARK  status: ('A' for Active; 'I' for Inactive)
REMARK    1  A    between atoms: C_5  and  N_2 
REMARK    2  A    between atoms: C_4  and  C_5 
ROOT
ATOM      1  C   UNL d   1      55.568  -0.113  33.328  0.00  0.00     0.206 A 
ATOM      2  N   UNL d   1      56.140  -0.034  32.734  0.00  0.00    -0.279 N 
ATOM      3  N   UNL d   1      55.424  -0.928  33.436  0.00  0.00    -0.215 NA
ATOM      4  C   UNL d   1      55.907  -1.337  32.910  0.00  0.00     0.120 A 
ATOM      5  C   UNL d   1      56.349  -0.790  32.477  0.00  0.00     0.103 A 
ATOM      6  S   UNL d   1      55.204   0.505  33.740  0.00  0.00    -0.038 SA
ENDROOT
BRANCH   2   7
ATOM      7  C   UNL d   1      56.451   0.682  32.446  0.00  0.00     0.089 C 
BRANCH   7   8
ATOM      8  C   UNL d   1      57.077   0.673  31.918  0.00  0.00     0.047 A 
ATOM      9  S   UNL d   1      57.874   0.682  32.115  0.00  0.00    -0.085 SA
ATOM     10  C   UNL d   1      58.315   0.669  31.417  0.00  0.00     0.035 A 
ATOM     11  C   UNL d   1      57.779   0.652  30.785  0.00  0.00     0.007 A 
ATOM     12  C   UNL d   1      57.017   0.655  31.096  0.00  0.00     0.009 A 
ENDBRANCH   7   8
ENDBRANCH   2   7
TORSDOF 2
ENDMDL
MODEL 3
REMARK VINA RESULT:      -3.3      8.837      9.629
REMARK  2 active torsions:
REMARK  status: ('A' for Active; 'I' for Inactive)
REMARK    1  A    between atoms: C_5  and  N_2 
REMARK    2  A    between atoms: C_4  and  C_5 
ROOT
ATOM      1  C   UNL d   1      59.646  -9.364  35.660  0.00  0.00     0.206 A 
ATOM      2  N   UNL d   1      60.014  -8.621  35.659  0.00  0.00    -0.279 N 
ATOM      3  N   UNL d   1      59.493  -9.574  34.867  0.00  0.00    -0.215 NA
ATOM      4  C   UNL d   1      59.768  -8.961  34.390  0.00  0.00     0.120 A 
ATOM      5  C   UNL d   1      60.089  -8.374  34.875  0.00  0.00     0.103 A 
ATOM      6  S   UNL d   1      59.462  -9.816  36.328  0.00  0.00    -0.038 SA
ENDROOT
BRANCH   2   7
ATOM      7  C   UNL d   1      60.265  -8.199  36.330  0.00  0.00     0.089 C 
BRANCH   7   8
ATOM      8  C   UNL d   1      60.398  -7.393  36.279  0.00  0.00     0.047 A 
ATOM      9  S   UNL d   1      61.131  -7.024  36.271  0.00  0.00    -0.085 SA
ATOM     10  C   UNL d   1      61.013  -6.209  36.215  0.00  0.00     0.035 A 
ATOM     11  C   UNL d   1      60.195  -6.078  36.188  0.00  0.00     0.007 A 
ATOM     12  C   UNL d   1      59.818  -6.809  36.228  0.00  0.00     0.009 A 
ENDBRANCH   7   8
ENDBRANCH   2   7
TORSDOF 2
ENDMDL
MODEL 4
REMARK VINA RESULT:      -3.2      8.706      9.670
REMARK  2 active torsions:
REMARK  status: ('A' for Active; 'I' for Inactive)
REMARK    1  A    between atoms: C_5  and  N_2 
REMARK    2  A    between atoms: C_4  and  C_5 
ROOT
ATOM      1  C   UNL d   1      60.470  -6.156  36.158  0.00  0.00     0.206 A 
ATOM      2  N   UNL d   1      60.462  -6.985  36.122  0.00  0.00    -0.279 N 
ATOM      3  N   UNL d   1      59.686  -5.890  36.047  0.00  0.00    -0.215 NA
ATOM      4  C   UNL d   1      59.210  -6.554  35.944  0.00  0.00     0.120 A 
ATOM      5  C   UNL d   1      59.685  -7.228  35.990  0.00  0.00     0.103 A 
ATOM      6  S   UNL d   1      61.133  -5.679  36.283  0.00  0.00    -0.038 SA
ENDROOT
BRANCH   2   7
ATOM      7  C   UNL d   1      61.123  -7.483  36.204  0.00  0.00     0.089 C 
BRANCH   7   8
ATOM      8  C   UNL d   1      61.103  -8.242  35.896  0.00  0.00     0.047 A 
ATOM      9  S   UNL d   1      61.050  -8.937  36.329  0.00  0.00    -0.085 SA
ATOM     10  C   UNL d   1      61.047  -9.573  35.802  0.00  0.00     0.035 A 
ATOM     11  C   UNL d   1      61.099  -9.260  35.036  0.00  0.00     0.007 A 
ATOM     12  C   UNL d   1      61.133  -8.441  35.096  0.00  0.00     0.009 A 
ENDBRANCH   7   8
ENDBRANCH   2   7
TORSDOF 2
ENDMDL
MODEL 5
REMARK VINA RESULT:      -3.1      1.674      2.490
REMARK  2 active torsions:
REMARK  status: ('A' for Active; 'I' for Inactive)
REMARK    1  A    between atoms: C_5  and  N_2 
REMARK    2  A    between atoms: C_4  and  C_5 
ROOT
ATOM      1  C   UNL d   1      58.308   0.525  30.722  0.00  0.00     0.206 A 
ATOM      2  N   UNL d   1      57.807   0.483  31.381  0.00  0.00    -0.279 N 
ATOM      3  N   UNL d   1      59.085   0.649  31.000  0.00  0.00    -0.215 NA
ATOM      4  C   UNL d   1      59.053   0.682  31.822  0.00  0.00     0.120 A 
ATOM      5  C   UNL d   1      58.267   0.580  32.059  0.00  0.00     0.103 A 
ATOM      6  S   UNL d   1      58.079   0.456  29.930  0.00  0.00    -0.038 SA
ENDROOT
BRANCH   2   7
ATOM      7  C   UNL d   1      56.984   0.365  31.363  0.00  0.00     0.089 C 
BRANCH   7   8
ATOM      8  C   UNL d   1      56.613  -0.021  31.982  0.00  0.00     0.047 A 
ATOM      9  S   UNL d   1      56.204   0.337  32.597  0.00  0.00    -0.085 SA
ATOM     10  C   UNL d   1      55.918  -0.254  33.099  0.00  0.00     0.035 A 
ATOM     11  C   UNL d   1      56.156  -0.983  32.784  0.00  0.00     0.007 A 
ATOM     12  C   UNL d   1      56.584  -0.837  32.097  0.00  0.00     0.009 A 
ENDBRANCH   7   8
ENDBRANCH   2   7
TORSDOF 2
ENDMDL
MODEL 6
REMARK VINA RESULT:      -2.9      9.233      9.847
REMARK  2 active torsions:
REMARK  status: ('A' for Active; 'I' for Inactive)
REMARK    1  A    between atoms: C_5  and  N_2 
REMARK    2  A    between atoms: C_4  and  C_5 
ROOT
ATOM      1  C   UNL d   1      59.679  -9.516  33.574  0.00  0.00     0.206 A 
ATOM      2  N   UNL d   1      60.002  -9.165  34.253  0.00  0.00    -0.279 N 
ATOM      3  N   UNL d   1      60.266  -9.510  32.981  0.00  0.00    -0.215 NA
ATOM      4  C   UNL d   1      60.939  -9.158  33.299  0.00  0.00     0.120 A 
ATOM      5  C   UNL d   1      60.779  -8.945  34.082  0.00  0.00     0.103 A 
ATOM      6  S   UNL d   1      58.913  -9.817  33.499  0.00  0.00    -0.038 SA
ENDROOT
BRANCH   2   7
ATOM      7  C   UNL d   1      59.613  -9.054  34.978  0.00  0.00     0.089 C 
BRANCH   7   8
ATOM      8  C   UNL d   1      59.797  -8.408  35.447  0.00  0.00     0.047 A 
ATOM      9  S   UNL d   1      60.426  -8.358  35.973  0.00  0.00    -0.085 SA
ATOM     10  C   UNL d   1      60.408  -7.613  36.330  0.00  0.00     0.035 A 
ATOM     11  C   UNL d   1      59.759  -7.204  36.017  0.00  0.00     0.007 A 
ATOM     12  C   UNL d   1      59.384  -7.695  35.474  0.00  0.00     0.009 A 
ENDBRANCH   7   8
ENDBRANCH   2   7
TORSDOF 2
ENDMDL
MODEL 7
REMARK VINA RESULT:      -2.2      4.217      5.698
REMARK  2 active torsions:
REMARK  status: ('A' for Active; 'I' for Inactive)
REMARK    1  A    between atoms: C_5  and  N_2 
REMARK    2  A    between atoms: C_4  and  C_5 
ROOT
ATOM      1  C   UNL d   1      58.463   0.117  29.103  0.00  0.00     0.206 A 
ATOM      2  N   UNL d   1      58.678  -0.680  29.183  0.00  0.00    -0.279 N 
ATOM      3  N   UNL d   1      58.050   0.340  29.794  0.00  0.00    -0.215 NA
ATOM      4  C   UNL d   1      58.016  -0.319  30.287  0.00  0.00     0.120 A 
ATOM      5  C   UNL d   1      58.402  -0.948  29.913  0.00  0.00     0.103 A 
ATOM      6  S   UNL d   1      58.627   0.605  28.456  0.00  0.00    -0.038 SA
ENDROOT
BRANCH   2   7
ATOM      7  C   UNL d   1      59.097  -1.131  28.625  0.00  0.00     0.089 C 
BRANCH   7   8
ATOM      8  C   UNL d   1      59.242  -1.924  28.766  0.00  0.00     0.047 A 
ATOM      9  S   UNL d   1      59.937  -2.242  29.068  0.00  0.00    -0.085 SA
ATOM     10  C   UNL d   1      59.847  -3.061  29.121  0.00  0.00     0.035 A 
ATOM     11  C   UNL d   1      59.086  -3.246  28.848  0.00  0.00     0.007 A 
ATOM     12  C   UNL d   1      58.716  -2.544  28.630  0.00  0.00     0.009 A 
ENDBRANCH   7   8
ENDBRANCH   2   7
TORSDOF 2
ENDMDL
MODEL 8
REMARK VINA RESULT:      -2.1      5.107      5.955
REMARK  2 active torsions:
REMARK  status: ('A' for Active; 'I' for Inactive)
REMARK    1  A    between atoms: C_5  and  N_2 
REMARK    2  A    between atoms: C_4  and  C_5 
ROOT
ATOM      1  C   UNL d   1      59.500  -3.240  28.742  0.00  0.00     0.206 A 
ATOM      2  N   UNL d   1      59.517  -2.413  28.790  0.00  0.00    -0.279 N 
ATOM      3  N   UNL d   1      60.227  -3.528  29.034  0.00  0.00    -0.215 NA
ATOM      4  C   UNL d   1      60.680  -2.877  29.257  0.00  0.00     0.120 A 
ATOM      5  C   UNL d   1      60.245  -2.190  29.108  0.00  0.00     0.103 A 
ATOM      6  S   UNL d   1      58.874  -3.699  28.456  0.00  0.00    -0.038 SA
ENDROOT
BRANCH   2   7
ATOM      7  C   UNL d   1      58.907  -1.897  28.559  0.00  0.00     0.089 C 
BRANCH   7   8
ATOM      8  C   UNL d   1      58.894  -1.127  28.839  0.00  0.00     0.047 A 
ATOM      9  S   UNL d   1      59.202  -0.470  28.456  0.00  0.00    -0.085 SA
ATOM     10  C   UNL d   1      59.071   0.194  28.931  0.00  0.00     0.035 A 
ATOM     11  C   UNL d   1      58.678  -0.064  29.614  0.00  0.00     0.007 A 
ATOM     12  C   UNL d   1      58.570  -0.878  29.555  0.00  0.00     0.009 A 
ENDBRANCH   7   8
ENDBRANCH   2   7
TORSDOF 2
ENDMDL
