MODEL 1
REMARK VINA RESULT:      73.5      0.000      0.000
REMARK  6 active torsions:
REMARK  status: ('A' for Active; 'I' for Inactive)
REMARK    1  A    between atoms: S_9  and  C_3 
REMARK    2  A    between atoms: C_11  and  C_4 
REMARK    3  A    between atoms: C_20  and  S_9 
REMARK    4  A    between atoms: C_12  and  C_20 
REMARK       I    between atoms: N_17  and  C_12 
REMARK    5  A    between atoms: C_25  and  N_17 
REMARK    6  A    between atoms: C_24  and  C_25 
ROOT
ATOM      1  N   UNL d   1     -51.744  24.492  33.408  0.00  0.00    -0.263 N 
ATOM      2  C   UNL d   1     -52.447  24.066  33.370  0.00  0.00     0.202 A 
ATOM      3  C   UNL d   1     -51.936  25.292  33.455  0.00  0.00     0.202 A 
ATOM      4  C   UNL d   1     -51.121  23.952  33.384  0.00  0.00     0.074 A 
ATOM      5  N   UNL d   1     -53.072  24.590  33.392  0.00  0.00    -0.121 NA
ATOM      6  N   UNL d   1     -52.765  25.356  33.445  0.00  0.00    -0.121 NA
ATOM      7  S   UNL d   1     -52.259  23.264  33.322  0.00  0.00    -0.046 SA
ATOM      8  C   UNL d   1     -51.445  23.191  33.331  0.00  0.00     0.056 A 
ENDROOT
BRANCH   3   9
ATOM      9  S   UNL d   1     -51.342  25.863  33.500  0.00  0.00    -0.043 SA
BRANCH   9  10
ATOM     10  C   UNL d   1     -51.462  26.560  33.931  0.00  0.00     0.101 C 
BRANCH  10  11
ATOM     11  C   UNL d   1     -51.023  26.701  34.612  0.00  0.00     0.286 C 
ATOM     12  N   UNL d   1     -51.360  26.555  35.359  0.00  0.00    -0.206 NA
ATOM     13  O   UNL d   1     -50.253  26.988  34.554  0.00  0.00    -0.265 OA
BRANCH  12  14
ATOM     14  C   UNL d   1     -50.920  26.698  36.047  0.00  0.00     0.102 C 
BRANCH  14  15
ATOM     15  C   UNL d   1     -51.266  26.577  36.795  0.00  0.00     0.021 A 
ATOM     16  C   UNL d   1     -51.846  25.997  36.914  0.00  0.00     0.028 A 
ATOM     17  C   UNL d   1     -52.173  25.894  37.656  0.00  0.00     0.119 A 
ATOM     18  O   UNL d   1     -52.742  25.382  37.942  0.00  0.00    -0.300 OA
ATOM     19  C   UNL d   1     -51.927  26.365  38.281  0.00  0.00     0.119 A 
ATOM     20  C   UNL d   1     -52.855  25.520  38.723  0.00  0.00     0.304 A 
ATOM     21  O   UNL d   1     -52.347  26.137  38.944  0.00  0.00    -0.300 OA
ATOM     22  C   UNL d   1     -51.354  26.936  38.160  0.00  0.00     0.026 A 
ATOM     23  C   UNL d   1     -51.024  27.038  37.405  0.00  0.00     0.004 A 
ENDBRANCH  14  15
ENDBRANCH  12  14
ENDBRANCH  10  11
ENDBRANCH   9  10
ENDBRANCH   3   9
BRANCH   4  24
ATOM     24  C   UNL d   1     -50.308  24.096  33.406  0.00  0.00     0.017 A 
ATOM     25  C   UNL d   1     -50.021  24.860  33.346  0.00  0.00     0.002 A 
ATOM     26  C   UNL d   1     -49.215  25.005  33.368  0.00  0.00     0.011 A 
ATOM     27  C   UNL d   1     -48.687  24.368  33.452  0.00  0.00     0.058 A 
ATOM     28  C   UNL d   1     -48.976  23.595  33.514  0.00  0.00     0.011 A 
ATOM     29 CL   UNL d   1     -47.871  24.502  33.476  0.00  0.00    -0.082 Cl
ATOM     30  C   UNL d   1     -49.789  23.459  33.491  0.00  0.00     0.002 A 
ENDBRANCH   4  24
TORSDOF 6
ENDMDL
MODEL 2
REMARK VINA RESULT:      73.8      4.472      6.413
REMARK  6 active torsions:
REMARK  status: ('A' for Active; 'I' for Inactive)
REMARK    1  A    between atoms: S_9  and  C_3 
REMARK    2  A    between atoms: C_11  and  C_4 
REMARK    3  A    between atoms: C_20  and  S_9 
REMARK    4  A    between atoms: C_12  and  C_20 
REMARK       I    between atoms: N_17  and  C_12 
REMARK    5  A    between atoms: C_25  and  N_17 
REMARK    6  A    between atoms: C_24  and  C_25 
ROOT
ATOM      1  N   UNL d   1     -47.697  30.076  35.119  0.00  0.00    -0.263 N 
ATOM      2  C   UNL d   1     -47.278  29.681  35.706  0.00  0.00     0.202 A 
ATOM      3  C   UNL d   1     -48.150  29.521  34.713  0.00  0.00     0.202 A 
ATOM      4  C   UNL d   1     -47.500  30.876  35.164  0.00  0.00     0.074 A 
ATOM      5  N   UNL d   1     -47.465  28.888  35.671  0.00  0.00    -0.121 NA
ATOM      6  N   UNL d   1     -48.007  28.777  35.057  0.00  0.00    -0.121 NA
ATOM      7  S   UNL d   1     -46.822  30.235  36.114  0.00  0.00    -0.046 SA
ATOM      8  C   UNL d   1     -46.957  30.970  35.783  0.00  0.00     0.056 A 
ENDROOT
BRANCH   3   9
ATOM      9  S   UNL d   1     -48.635  29.751  34.087  0.00  0.00    -0.043 SA
BRANCH   9  10
ATOM     10  C   UNL d   1     -48.998  29.184  33.606  0.00  0.00     0.101 C 
BRANCH  10  11
ATOM     11  C   UNL d   1     -49.683  28.807  33.862  0.00  0.00     0.286 C 
ATOM     12  N   UNL d   1     -50.203  28.471  33.307  0.00  0.00    -0.206 NA
ATOM     13  O   UNL d   1     -49.853  28.764  34.668  0.00  0.00    -0.265 OA
BRANCH  12  14
ATOM     14  C   UNL d   1     -50.894  28.092  33.562  0.00  0.00     0.102 C 
BRANCH  14  15
ATOM     15  C   UNL d   1     -50.964  27.265  33.496  0.00  0.00     0.021 A 
ATOM     16  C   UNL d   1     -50.297  26.773  33.504  0.00  0.00     0.028 A 
ATOM     17  C   UNL d   1     -50.386  25.963  33.437  0.00  0.00     0.119 A 
ATOM     18  O   UNL d   1     -49.849  25.347  33.427  0.00  0.00    -0.300 OA
ATOM     19  C   UNL d   1     -51.137  25.639  33.363  0.00  0.00     0.119 A 
ATOM     20  C   UNL d   1     -50.242  24.654  33.349  0.00  0.00     0.304 A 
ATOM     21  O   UNL d   1     -51.052  24.827  33.308  0.00  0.00    -0.300 OA
ATOM     22  C   UNL d   1     -51.792  26.127  33.355  0.00  0.00     0.026 A 
ATOM     23  C   UNL d   1     -51.698  26.949  33.423  0.00  0.00     0.004 A 
ENDBRANCH  14  15
ENDBRANCH  12  14
ENDBRANCH  10  11
ENDBRANCH   9  10
ENDBRANCH   3   9
BRANCH   4  24
ATOM     24  C   UNL d   1     -47.768  31.504  34.699  0.00  0.00     0.017 A 
ATOM     25  C   UNL d   1     -48.570  31.621  34.584  0.00  0.00     0.002 A 
ATOM     26  C   UNL d   1     -48.839  32.243  34.125  0.00  0.00     0.011 A 
ATOM     27  C   UNL d   1     -48.289  32.759  33.773  0.00  0.00     0.058 A 
ATOM     28  C   UNL d   1     -47.478  32.643  33.889  0.00  0.00     0.011 A 
ATOM     29 CL   UNL d   1     -48.548  33.391  33.307  0.00  0.00    -0.082 Cl
ATOM     30  C   UNL d   1     -47.218  32.013  34.353  0.00  0.00     0.002 A 
ENDBRANCH   4  24
TORSDOF 6
ENDMDL
