MODEL 1
REMARK VINA RESULT:      -4.8      0.000      0.000
REMARK  5 active torsions:
REMARK  status: ('A' for Active; 'I' for Inactive)
REMARK    1  A    between atoms: C_4  and  C_1 
REMARK    2  A    between atoms: S_2  and  C_4 
REMARK    3  A    between atoms: C_8  and  S_2 
REMARK    4  A    between atoms: N_5  and  C_3 
REMARK    5  A    between atoms: C_9  and  C_4 
ROOT
ATOM      1  C   UNL d   1     -38.643  13.836  18.669  0.00  0.00     0.128 A 
ATOM      2  C   UNL d   1     -38.820  13.753  17.873  0.00  0.00     0.166 A 
ATOM      3  N   UNL d   1     -38.379  13.191  19.104  0.00  0.00    -0.240 NA
ATOM      4  N   UNL d   1     -38.734  13.024  17.507  0.00  0.00    -0.225 NA
ATOM      5  C   UNL d   1     -38.295  12.466  18.734  0.00  0.00     0.099 A 
ATOM      6  C   UNL d   1     -38.470  12.375  17.939  0.00  0.00     0.101 A 
ATOM      7  C   UNL d   1     -38.383  11.647  17.581  0.00  0.00     0.021 A 
ATOM      8  C   UNL d   1     -38.029  11.817  19.170  0.00  0.00     0.021 A 
ATOM      9  C   UNL d   1     -38.121  11.006  18.010  0.00  0.00     0.002 A 
ATOM     10  C   UNL d   1     -37.945  11.093  18.804  0.00  0.00     0.002 A 
ENDROOT
BRANCH   1  11
ATOM     11  C   UNL d   1     -38.727  14.561  19.039  0.00  0.00     0.129 C 
BRANCH  11  12
ATOM     12  S   UNL d   1     -39.045  14.571  19.867  0.00  0.00     0.213 S 
ATOM     13  O   UNL d   1     -38.460  14.649  20.527  0.00  0.00    -0.217 OA
ATOM     14  O   UNL d   1     -38.222  14.642  19.938  0.00  0.00    -0.217 OA
BRANCH  12  15
ATOM     15  C   UNL d   1     -39.812  14.522  20.180  0.00  0.00     0.088 A 
ATOM     16  C   UNL d   1     -40.228  15.222  20.349  0.00  0.00     0.011 A 
ATOM     17  C   UNL d   1     -40.990  15.167  20.661  0.00  0.00     0.001 A 
ATOM     18  C   UNL d   1     -41.409  15.852  20.830  0.00  0.00     0.000 C 
ATOM     19  C   UNL d   1     -41.335  14.432  20.803  0.00  0.00     0.000 A 
ATOM     20  C   UNL d   1     -40.909  13.739  20.631  0.00  0.00     0.001 A 
ATOM     21  C   UNL d   1     -40.150  13.796  20.320  0.00  0.00     0.011 A 
ENDBRANCH  12  15
ENDBRANCH  11  12
BRANCH  11  22
ATOM     22  C   UNL d   1     -38.551  15.355  18.750  0.00  0.00     0.135 C 
ATOM     23  N   UNL d   1     -37.941  15.922  19.044  0.00  0.00    -0.146 N 
ENDBRANCH  11  22
ENDBRANCH   1  11
BRANCH   2  24
ATOM     24  N   UNL d   1     -39.086  14.405  17.441  0.00  0.00    -0.284 N 
ATOM     25  C   UNL d   1     -39.890  14.623  17.475  0.00  0.00     0.106 A 
ATOM     26  C   UNL d   1     -40.148  15.282  17.035  0.00  0.00     0.118 A 
ATOM     27  C   UNL d   1     -40.952  15.500  17.069  0.00  0.00     0.028 C 
ATOM     28  O   UNL d   1     -39.612  15.716  16.571  0.00  0.00    -0.304 OA
ATOM     29  C   UNL d   1     -38.819  15.490  16.546  0.00  0.00     0.118 A 
ATOM     30  C   UNL d   1     -38.550  14.839  16.977  0.00  0.00     0.106 A 
ATOM     31  C   UNL d   1     -38.280  15.921  16.083  0.00  0.00     0.028 C 
ENDBRANCH   2  24
TORSDOF 5
ENDMDL
MODEL 2
REMARK VINA RESULT:      -2.3      1.072      3.058
REMARK  5 active torsions:
REMARK  status: ('A' for Active; 'I' for Inactive)
REMARK    1  A    between atoms: C_4  and  C_1 
REMARK    2  A    between atoms: S_2  and  C_4 
REMARK    3  A    between atoms: C_8  and  S_2 
REMARK    4  A    between atoms: N_5  and  C_3 
REMARK    5  A    between atoms: C_9  and  C_4 
ROOT
ATOM      1  C   UNL d   1     -38.576  14.098  18.256  0.00  0.00     0.128 A 
ATOM      2  C   UNL d   1     -38.705  13.549  18.851  0.00  0.00     0.166 A 
ATOM      3  N   UNL d   1     -38.352  13.851  17.505  0.00  0.00    -0.240 NA
ATOM      4  N   UNL d   1     -38.610  12.749  18.698  0.00  0.00    -0.225 NA
ATOM      5  C   UNL d   1     -38.259  13.051  17.359  0.00  0.00     0.099 A 
ATOM      6  C   UNL d   1     -38.386  12.497  17.948  0.00  0.00     0.101 A 
ATOM      7  C   UNL d   1     -38.290  11.702  17.790  0.00  0.00     0.021 A 
ATOM      8  C   UNL d   1     -38.034  12.801  16.605  0.00  0.00     0.021 A 
ATOM      9  C   UNL d   1     -38.068  11.453  17.046  0.00  0.00     0.002 A 
ATOM     10  C   UNL d   1     -37.940  12.004  16.456  0.00  0.00     0.002 A 
ENDROOT
BRANCH   1  11
ATOM     11  C   UNL d   1     -38.669  14.898  18.403  0.00  0.00     0.129 C 
BRANCH  11  12
ATOM     12  S   UNL d   1     -38.899  15.421  17.725  0.00  0.00     0.213 S 
ATOM     13  O   UNL d   1     -38.255  15.882  17.329  0.00  0.00    -0.217 OA
ATOM     14  O   UNL d   1     -38.080  15.510  17.813  0.00  0.00    -0.217 OA
BRANCH  12  15
ATOM     15  C   UNL d   1     -39.625  15.586  17.356  0.00  0.00     0.088 A 
ATOM     16  C   UNL d   1     -40.311  15.655  17.821  0.00  0.00     0.011 A 
ATOM     17  C   UNL d   1     -41.029  15.819  17.449  0.00  0.00     0.001 A 
ATOM     18  C   UNL d   1     -41.711  15.888  17.898  0.00  0.00     0.000 C 
ATOM     19  C   UNL d   1     -41.068  15.914  16.630  0.00  0.00     0.000 A 
ATOM     20  C   UNL d   1     -40.374  15.843  16.176  0.00  0.00     0.001 A 
ATOM     21  C   UNL d   1     -39.660  15.680  16.549  0.00  0.00     0.011 A 
ENDBRANCH  12  15
ENDBRANCH  11  12
BRANCH  11  22
ATOM     22  C   UNL d   1     -38.578  15.342  19.138  0.00  0.00     0.135 C 
ATOM     23  N   UNL d   1     -37.940  15.911  19.357  0.00  0.00    -0.146 N 
ENDBRANCH  11  22
ENDBRANCH   1  11
BRANCH   2  24
ATOM     24  N   UNL d   1     -38.930  13.804  19.604  0.00  0.00    -0.284 N 
ATOM     25  C   UNL d   1     -38.348  14.051  20.147  0.00  0.00     0.106 A 
ATOM     26  C   UNL d   1     -38.585  14.306  20.904  0.00  0.00     0.118 A 
ATOM     27  C   UNL d   1     -38.003  14.553  21.447  0.00  0.00     0.028 C 
ATOM     28  O   UNL d   1     -39.389  14.315  21.114  0.00  0.00    -0.304 OA
ATOM     29  C   UNL d   1     -39.956  14.069  20.567  0.00  0.00     0.118 A 
ATOM     30  C   UNL d   1     -39.734  13.813  19.814  0.00  0.00     0.106 A 
ATOM     31  C   UNL d   1     -40.761  14.076  20.773  0.00  0.00     0.028 C 
ENDBRANCH   2  24
TORSDOF 5
ENDMDL
