MODEL 1
REMARK VINA RESULT:      20.4      0.000      0.000
REMARK  2 active torsions:
REMARK  status: ('A' for Active; 'I' for Inactive)
REMARK    1  A    between atoms: N_2  and  S_1 
REMARK    2  A    between atoms: C_3  and  S_1 
ROOT
ATOM      1  N   UNL d   1     -51.627  25.381  33.355  0.00  0.00    -0.229 N 
ATOM      2  C   UNL d   1     -52.443  25.377  33.355  0.00  0.00     0.092 A 
ATOM      3  C   UNL d   1     -52.838  24.652  33.356  0.00  0.00     0.018 A 
ATOM      4  C   UNL d   1     -51.193  24.677  33.358  0.00  0.00     0.092 A 
ATOM      5  C   UNL d   1     -52.396  23.935  33.358  0.00  0.00     0.003 A 
ATOM      6  C   UNL d   1     -51.575  23.969  33.359  0.00  0.00     0.020 A 
ATOM      7  C   UNL d   1     -53.665  24.623  33.356  0.00  0.00     0.002 A 
ATOM      8  C   UNL d   1     -52.797  23.216  33.360  0.00  0.00     0.000 A 
ATOM      9  C   UNL d   1     -54.048  23.901  33.357  0.00  0.00     0.000 A 
ATOM     10  C   UNL d   1     -53.613  23.197  33.359  0.00  0.00     0.000 A 
ENDROOT
BRANCH   1  11
ATOM     11  S   UNL d   1     -51.224  26.129  33.354  0.00  0.00     0.277 S 
ATOM     12  O   UNL d   1     -51.964  26.526  33.311  0.00  0.00    -0.199 OA
ATOM     13  O   UNL d   1     -50.485  25.740  33.397  0.00  0.00    -0.199 OA
BRANCH  11  14
ATOM     14  C   UNL d   1     -50.821  26.840  33.353  0.00  0.00     0.133 A 
ATOM     15  S   UNL d   1     -50.016  26.907  33.354  0.00  0.00    -0.074 SA
ATOM     16  C   UNL d   1     -49.811  27.743  33.353  0.00  0.00     0.036 A 
ATOM     17  C   UNL d   1     -50.541  28.181  33.352  0.00  0.00     0.008 A 
ATOM     18  C   UNL d   1     -51.145  27.636  33.352  0.00  0.00     0.020 A 
ENDBRANCH  11  14
ENDBRANCH   1  11
TORSDOF 2
ENDMDL
MODEL 2
REMARK VINA RESULT:      23.3      1.444      3.814
REMARK  2 active torsions:
REMARK  status: ('A' for Active; 'I' for Inactive)
REMARK    1  A    between atoms: N_2  and  S_1 
REMARK    2  A    between atoms: C_3  and  S_1 
ROOT
ATOM      1  N   UNL d   1     -51.916  25.216  33.319  0.00  0.00    -0.229 N 
ATOM      2  C   UNL d   1     -51.183  24.856  33.325  0.00  0.00     0.092 A 
ATOM      3  C   UNL d   1     -50.507  25.329  33.323  0.00  0.00     0.018 A 
ATOM      4  C   UNL d   1     -51.990  26.040  33.311  0.00  0.00     0.092 A 
ATOM      5  C   UNL d   1     -50.583  26.167  33.314  0.00  0.00     0.003 A 
ATOM      6  C   UNL d   1     -51.332  26.503  33.308  0.00  0.00     0.020 A 
ATOM      7  C   UNL d   1     -49.754  24.985  33.329  0.00  0.00     0.002 A 
ATOM      8  C   UNL d   1     -49.903  26.632  33.312  0.00  0.00     0.000 A 
ATOM      9  C   UNL d   1     -49.089  25.461  33.327  0.00  0.00     0.000 A 
ATOM     10  C   UNL d   1     -49.164  26.284  33.318  0.00  0.00     0.000 A 
ENDROOT
BRANCH   1  11
ATOM     11  S   UNL d   1     -52.610  24.727  33.322  0.00  0.00     0.277 S 
ATOM     12  O   UNL d   1     -52.125  24.041  33.311  0.00  0.00    -0.199 OA
ATOM     13  O   UNL d   1     -53.098  25.406  33.332  0.00  0.00    -0.199 OA
BRANCH  11  14
ATOM     14  C   UNL d   1     -53.288  24.270  33.324  0.00  0.00     0.133 A 
ATOM     15  S   UNL d   1     -53.291  23.462  33.341  0.00  0.00    -0.074 SA
ATOM     16  C   UNL d   1     -54.109  23.193  33.338  0.00  0.00     0.036 A 
ATOM     17  C   UNL d   1     -54.603  23.886  33.319  0.00  0.00     0.008 A 
ATOM     18  C   UNL d   1     -54.107  24.530  33.311  0.00  0.00     0.020 A 
ENDBRANCH  11  14
ENDBRANCH   1  11
TORSDOF 2
ENDMDL
