MODEL 1
REMARK VINA RESULT:      23.6      0.000      0.000
REMARK  5 active torsions:
REMARK  status: ('A' for Active; 'I' for Inactive)
REMARK    1  A    between atoms: C_12  and  C_4 
REMARK    2  A    between atoms: N_10  and  C_5 
REMARK    3  A    between atoms: C_11  and  C_8 
REMARK    4  A    between atoms: C_14  and  N_10 
REMARK    5  A    between atoms: C_15  and  C_14 
ROOT
ATOM      1  C   UNL d   1      46.418 -18.179  42.792  0.00  0.00     0.167 A 
ATOM      2  N   UNL d   1      46.395 -17.448  43.201  0.00  0.00    -0.195 N 
ATOM      3  N   UNL d   1      46.314 -18.878  43.203  0.00  0.00    -0.231 NA
ATOM      4  C   UNL d   1      46.543 -18.194  41.994  0.00  0.00     0.057 A 
ATOM      5  C   UNL d   1      46.269 -17.458  43.998  0.00  0.00     0.167 A 
ATOM      6  N   UNL d   1      46.622 -16.780  41.994  0.00  0.00    -0.161 NA
ATOM      7  C   UNL d   1      46.164 -18.153  44.420  0.00  0.00     0.054 A 
ATOM      8  C   UNL d   1      46.186 -18.872  44.017  0.00  0.00     0.063 A 
ATOM      9  C   UNL d   1      46.645 -17.499  41.591  0.00  0.00     0.124 A 
ENDROOT
BRANCH   5  10
ATOM     10  N   UNL d   1      46.245 -16.715  44.414  0.00  0.00    -0.224 NA
BRANCH  10  11
ATOM     11  C   UNL d   1      45.771 -16.270  44.954  0.00  0.00     0.120 C 
BRANCH  11  12
ATOM     12  C   UNL d   1      45.505 -15.491  44.760  0.00  0.00     0.101 A 
ATOM     13  N   UNL d   1      46.068 -14.859  44.667  0.00  0.00    -0.242 NA
ATOM     14  C   UNL d   1      45.794 -14.079  44.472  0.00  0.00     0.099 A 
ATOM     15  C   UNL d   1      44.960 -13.931  44.369  0.00  0.00     0.021 A 
ATOM     16  C   UNL d   1      44.401 -14.576  44.465  0.00  0.00     0.003 A 
ATOM     17  C   UNL d   1      44.676 -15.347  44.658  0.00  0.00     0.021 A 
ENDBRANCH  11  12
ENDBRANCH  10  11
ENDBRANCH   5  10
BRANCH   8  18
ATOM     18  C   UNL d   1      46.079 -19.604  44.441  0.00  0.00     0.036 C 
ATOM     19  C   UNL d   1      45.976 -20.329  44.859  0.00  0.00     0.006 C 
ATOM     20  C   UNL d   1      45.406 -19.699  44.954  0.00  0.00     0.006 C 
ATOM     21  C   UNL d   1      46.646 -20.237  44.349  0.00  0.00     0.006 C 
ENDBRANCH   8  18
BRANCH   4  22
ATOM     22  C   UNL d   1      46.566 -18.913  41.591  0.00  0.00     0.004 A 
ATOM     23  C   UNL d   1      46.541 -18.915  40.788  0.00  0.00     0.000 A 
ATOM     24  C   UNL d   1      46.564 -19.635  40.385  0.00  0.00     0.000 A 
ATOM     25  C   UNL d   1      46.611 -20.330  40.798  0.00  0.00     0.000 A 
ATOM     26  C   UNL d   1      46.635 -20.320  41.613  0.00  0.00     0.000 A 
ATOM     27  C   UNL d   1      46.612 -19.601  42.016  0.00  0.00     0.000 A 
ENDBRANCH   4  22
TORSDOF 5
ENDMDL
