MODEL 1
REMARK VINA RESULT:      -8.6      0.000      0.000
REMARK  3 active torsions:
REMARK  status: ('A' for Active; 'I' for Inactive)
REMARK    1  A    between atoms: C_15  and  C_4 
REMARK    2  A    between atoms: C_8  and  S_16 
REMARK    3  A    between atoms: S_16  and  C_15 
ROOT
ATOM      1  N   UNL d   1      53.150  32.918  53.802  0.00  0.00    -0.133 N 
ATOM      2  C   UNL d   1      53.125  33.679  54.107  0.00  0.00     0.736 A 
ATOM      3  C   UNL d   1      52.485  32.810  53.328  0.00  0.00     0.135 A 
ATOM      4  C   UNL d   1      52.044  33.507  53.338  0.00  0.00     0.129 A 
ATOM      5  N   UNL d   1      52.444  34.046  53.823  0.00  0.00    -0.058 NA
ATOM      6  C   UNL d   1      53.768  32.420  53.991  0.00  0.00     0.084 A 
ATOM      7  N   UNL d   1      53.718  33.948  54.602  0.00  0.00    -0.060 NA
ATOM      8  C   UNL d   1      54.375  32.682  54.492  0.00  0.00     0.038 A 
ATOM      9  C   UNL d   1      54.350  33.443  54.797  0.00  0.00     0.101 A 
ATOM     10 BR   UNL d   1      52.275  32.110  52.898  0.00  0.00    -0.028 Br
ATOM     11  C   UNL d   1      53.794  31.644  53.681  0.00  0.00     0.020 C 
ATOM     12  C   UNL d   1      54.980  33.683  55.303  0.00  0.00     0.021 C 
ENDROOT
BRANCH   4  13
ATOM     13  C   UNL d   1      51.338  33.628  52.934  0.00  0.00     0.059 C 
BRANCH  13  14
ATOM     14  S   UNL d   1      50.875  34.302  53.046  0.00  0.00    -0.059 SA
BRANCH  14  15
ATOM     15  C   UNL d   1      50.225  34.456  52.569  0.00  0.00     0.141 A 
ATOM     16  N   UNL d   1      50.047  34.284  51.777  0.00  0.00    -0.232 NA
ATOM     17  C   UNL d   1      49.322  34.573  51.608  0.00  0.00     0.088 A 
ATOM     18  C   UNL d   1      48.895  34.549  50.906  0.00  0.00     0.020 A 
ATOM     19  C   UNL d   1      49.010  34.929  52.253  0.00  0.00     0.049 A 
ATOM     20  C   UNL d   1      48.141  34.893  50.867  0.00  0.00     0.002 A 
ATOM     21  C   UNL d   1      47.824  35.252  51.514  0.00  0.00     0.001 A 
ATOM     22  C   UNL d   1      48.255  35.275  52.218  0.00  0.00     0.008 A 
ATOM     23  S   UNL d   1      49.579  34.858  52.867  0.00  0.00    -0.060 SA
ENDBRANCH  14  15
ENDBRANCH  13  14
ENDBRANCH   4  13
TORSDOF 3
ENDMDL
MODEL 2
REMARK VINA RESULT:      -8.0      1.388      5.310
REMARK  3 active torsions:
REMARK  status: ('A' for Active; 'I' for Inactive)
REMARK    1  A    between atoms: C_15  and  C_4 
REMARK    2  A    between atoms: C_8  and  S_16 
REMARK    3  A    between atoms: S_16  and  C_15 
ROOT
ATOM      1  N   UNL d   1      48.762  35.140  52.181  0.00  0.00    -0.133 N 
ATOM      2  C   UNL d   1      48.896  35.417  52.941  0.00  0.00     0.736 A 
ATOM      3  C   UNL d   1      49.381  34.635  51.980  0.00  0.00     0.135 A 
ATOM      4  C   UNL d   1      49.902  34.598  52.617  0.00  0.00     0.129 A 
ATOM      5  N   UNL d   1      49.599  35.085  53.214  0.00  0.00    -0.058 NA
ATOM      6  C   UNL d   1      48.099  35.378  51.768  0.00  0.00     0.084 A 
ATOM      7  N   UNL d   1      48.369  35.934  53.295  0.00  0.00    -0.060 NA
ATOM      8  C   UNL d   1      47.558  35.902  52.116  0.00  0.00     0.038 A 
ATOM      9  C   UNL d   1      47.693  36.179  52.876  0.00  0.00     0.101 A 
ATOM     10 BR   UNL d   1      49.480  34.218  51.248  0.00  0.00    -0.028 Br
ATOM     11  C   UNL d   1      47.962  35.095  50.994  0.00  0.00     0.020 C 
ATOM     12  C   UNL d   1      47.127  36.709  53.205  0.00  0.00     0.021 C 
ENDROOT
BRANCH   4  13
ATOM     13  C   UNL d   1      50.595  34.153  52.640  0.00  0.00     0.059 C 
BRANCH  13  14
ATOM     14  S   UNL d   1      51.167  34.256  53.225  0.00  0.00    -0.059 SA
BRANCH  14  15
ATOM     15  C   UNL d   1      51.805  33.746  53.290  0.00  0.00     0.141 A 
ATOM     16  N   UNL d   1      51.929  32.956  53.064  0.00  0.00    -0.232 NA
ATOM     17  C   UNL d   1      52.670  32.742  53.270  0.00  0.00     0.088 A 
ATOM     18  C   UNL d   1      53.059  32.026  53.169  0.00  0.00     0.020 A 
ATOM     19  C   UNL d   1      53.045  33.355  53.624  0.00  0.00     0.049 A 
ATOM     20  C   UNL d   1      53.840  31.937  53.434  0.00  0.00     0.002 A 
ATOM     21  C   UNL d   1      54.221  32.550  53.791  0.00  0.00     0.001 A 
ATOM     22  C   UNL d   1      53.828  33.269  53.891  0.00  0.00     0.008 A 
ATOM     23  S   UNL d   1      52.502  33.994  53.640  0.00  0.00    -0.060 SA
ENDBRANCH  14  15
ENDBRANCH  13  14
ENDBRANCH   4  13
TORSDOF 3
ENDMDL
MODEL 3
REMARK VINA RESULT:      -6.3     10.299     10.839
REMARK  3 active torsions:
REMARK  status: ('A' for Active; 'I' for Inactive)
REMARK    1  A    between atoms: C_15  and  C_4 
REMARK    2  A    between atoms: C_8  and  S_16 
REMARK    3  A    between atoms: S_16  and  C_15 
ROOT
ATOM      1  N   UNL d   1      44.696  25.220  56.926  0.00  0.00    -0.133 N 
ATOM      2  C   UNL d   1      44.926  25.544  56.209  0.00  0.00     0.736 A 
ATOM      3  C   UNL d   1      44.659  25.827  57.481  0.00  0.00     0.135 A 
ATOM      4  C   UNL d   1      44.867  26.532  57.108  0.00  0.00     0.129 A 
ATOM      5  N   UNL d   1      45.033  26.354  56.316  0.00  0.00    -0.058 NA
ATOM      6  C   UNL d   1      44.549  24.419  56.987  0.00  0.00     0.084 A 
ATOM      7  N   UNL d   1      45.011  25.070  55.547  0.00  0.00    -0.060 NA
ATOM      8  C   UNL d   1      44.632  23.929  56.322  0.00  0.00     0.038 A 
ATOM      9  C   UNL d   1      44.862  24.253  55.605  0.00  0.00     0.101 A 
ATOM     10 BR   UNL d   1      44.446  25.757  58.299  0.00  0.00    -0.028 Br
ATOM     11  C   UNL d   1      44.314  24.089  57.718  0.00  0.00     0.020 C 
ATOM     12  C   UNL d   1      44.938  23.733  54.948  0.00  0.00     0.021 C 
ENDROOT
BRANCH   4  13
ATOM     13  C   UNL d   1      44.899  27.270  57.470  0.00  0.00     0.059 C 
BRANCH  13  14
ATOM     14  S   UNL d   1      45.051  27.963  57.048  0.00  0.00    -0.059 SA
BRANCH  14  15
ATOM     15  C   UNL d   1      45.029  28.697  57.413  0.00  0.00     0.141 A 
ATOM     16  N   UNL d   1      45.264  28.968  58.163  0.00  0.00    -0.232 NA
ATOM     17  C   UNL d   1      45.108  29.749  58.215  0.00  0.00     0.088 A 
ATOM     18  C   UNL d   1      45.235  30.271  58.836  0.00  0.00     0.020 A 
ATOM     19  C   UNL d   1      44.780  30.010  57.533  0.00  0.00     0.049 A 
ATOM     20  C   UNL d   1      45.024  31.070  58.756  0.00  0.00     0.002 A 
ATOM     21  C   UNL d   1      44.693  31.337  58.073  0.00  0.00     0.001 A 
ATOM     22  C   UNL d   1      44.567  30.809  57.450  0.00  0.00     0.008 A 
ATOM     23  S   UNL d   1      44.727  29.347  57.020  0.00  0.00    -0.060 SA
ENDBRANCH  14  15
ENDBRANCH  13  14
ENDBRANCH   4  13
TORSDOF 3
ENDMDL
MODEL 4
REMARK VINA RESULT:      -6.0     10.881     11.520
REMARK  3 active torsions:
REMARK  status: ('A' for Active; 'I' for Inactive)
REMARK    1  A    between atoms: C_15  and  C_4 
REMARK    2  A    between atoms: C_8  and  S_16 
REMARK    3  A    between atoms: S_16  and  C_15 
ROOT
ATOM      1  N   UNL d   1      44.836  28.834  58.242  0.00  0.00    -0.133 N 
ATOM      2  C   UNL d   1      44.754  28.170  58.716  0.00  0.00     0.736 A 
ATOM      3  C   UNL d   1      44.714  29.500  58.711  0.00  0.00     0.135 A 
ATOM      4  C   UNL d   1      44.556  29.248  59.481  0.00  0.00     0.129 A 
ATOM      5  N   UNL d   1      44.581  28.421  59.481  0.00  0.00    -0.058 NA
ATOM      6  C   UNL d   1      45.009  28.754  57.448  0.00  0.00     0.084 A 
ATOM      7  N   UNL d   1      44.845  27.420  58.400  0.00  0.00    -0.060 NA
ATOM      8  C   UNL d   1      45.104  27.999  57.117  0.00  0.00     0.038 A 
ATOM      9  C   UNL d   1      45.022  27.335  57.591  0.00  0.00     0.101 A 
ATOM     10 BR   UNL d   1      44.743  30.310  58.463  0.00  0.00    -0.028 Br
ATOM     11  C   UNL d   1      45.093  29.431  56.966  0.00  0.00     0.020 C 
ATOM     12  C   UNL d   1      45.123  26.581  57.229  0.00  0.00     0.021 C 
ENDROOT
BRANCH   4  13
ATOM     13  C   UNL d   1      44.403  29.743  60.120  0.00  0.00     0.059 C 
BRANCH  13  14
ATOM     14  S   UNL d   1      44.422  29.475  60.900  0.00  0.00    -0.059 SA
BRANCH  14  15
ATOM     15  C   UNL d   1      44.401  29.999  61.531  0.00  0.00     0.141 A 
ATOM     16  N   UNL d   1      44.404  30.828  61.583  0.00  0.00    -0.232 NA
ATOM     17  C   UNL d   1      44.376  31.037  62.353  0.00  0.00     0.088 A 
ATOM     18  C   UNL d   1      44.367  31.784  62.696  0.00  0.00     0.020 A 
ATOM     19  C   UNL d   1      44.354  30.385  62.815  0.00  0.00     0.049 A 
ATOM     20  C   UNL d   1      44.335  31.861  63.522  0.00  0.00     0.002 A 
ATOM     21  C   UNL d   1      44.314  31.207  63.991  0.00  0.00     0.001 A 
ATOM     22  C   UNL d   1      44.323  30.458  63.643  0.00  0.00     0.008 A 
ATOM     23  S   UNL d   1      44.370  29.722  62.300  0.00  0.00    -0.060 SA
ENDBRANCH  14  15
ENDBRANCH  13  14
ENDBRANCH   4  13
TORSDOF 3
ENDMDL
MODEL 5
REMARK VINA RESULT:      -6.0     10.699     11.140
REMARK  3 active torsions:
REMARK  status: ('A' for Active; 'I' for Inactive)
REMARK    1  A    between atoms: C_15  and  C_4 
REMARK    2  A    between atoms: C_8  and  S_16 
REMARK    3  A    between atoms: S_16  and  C_15 
ROOT
ATOM      1  N   UNL d   1      44.440  30.301  61.886  0.00  0.00    -0.133 N 
ATOM      2  C   UNL d   1      44.482  30.962  61.403  0.00  0.00     0.736 A 
ATOM      3  C   UNL d   1      44.494  29.632  61.409  0.00  0.00     0.135 A 
ATOM      4  C   UNL d   1      44.571  29.878  60.626  0.00  0.00     0.129 A 
ATOM      5  N   UNL d   1      44.563  30.706  60.624  0.00  0.00    -0.058 NA
ATOM      6  C   UNL d   1      44.358  30.386  62.693  0.00  0.00     0.084 A 
ATOM      7  N   UNL d   1      44.443  31.714  61.724  0.00  0.00    -0.060 NA
ATOM      8  C   UNL d   1      44.317  31.144  63.030  0.00  0.00     0.038 A 
ATOM      9  C   UNL d   1      44.359  31.805  62.547  0.00  0.00     0.101 A 
ATOM     10 BR   UNL d   1      44.476  28.823  61.663  0.00  0.00    -0.028 Br
ATOM     11  C   UNL d   1      44.315  29.712  63.186  0.00  0.00     0.020 C 
ATOM     12  C   UNL d   1      44.315  32.561  62.915  0.00  0.00     0.021 C 
ENDROOT
BRANCH   4  13
ATOM     13  C   UNL d   1      44.641  29.379  59.975  0.00  0.00     0.059 C 
BRANCH  13  14
ATOM     14  S   UNL d   1      44.630  29.660  59.200  0.00  0.00    -0.059 SA
BRANCH  14  15
ATOM     15  C   UNL d   1      44.736  29.154  58.562  0.00  0.00     0.141 A 
ATOM     16  N   UNL d   1      45.198  28.475  58.444  0.00  0.00    -0.232 NA
ATOM     17  C   UNL d   1      45.078  28.207  57.702  0.00  0.00     0.088 A 
ATOM     18  C   UNL d   1      45.402  27.558  57.317  0.00  0.00     0.020 A 
ATOM     19  C   UNL d   1      44.556  28.679  57.320  0.00  0.00     0.049 A 
ATOM     20  C   UNL d   1      45.188  27.391  56.533  0.00  0.00     0.002 A 
ATOM     21  C   UNL d   1      44.663  27.862  56.145  0.00  0.00     0.001 A 
ATOM     22  C   UNL d   1      44.339  28.514  56.535  0.00  0.00     0.008 A 
ATOM     23  S   UNL d   1      44.335  29.282  57.861  0.00  0.00    -0.060 SA
ENDBRANCH  14  15
ENDBRANCH  13  14
ENDBRANCH   4  13
TORSDOF 3
ENDMDL
MODEL 6
REMARK VINA RESULT:      -5.9     10.921     11.275
REMARK  3 active torsions:
REMARK  status: ('A' for Active; 'I' for Inactive)
REMARK    1  A    between atoms: C_15  and  C_4 
REMARK    2  A    between atoms: C_8  and  S_16 
REMARK    3  A    between atoms: S_16  and  C_15 
ROOT
ATOM      1  N   UNL d   1      44.364  29.903  62.464  0.00  0.00    -0.133 N 
ATOM      2  C   UNL d   1      44.364  30.694  62.249  0.00  0.00     0.736 A 
ATOM      3  C   UNL d   1      44.374  29.450  61.776  0.00  0.00     0.135 A 
ATOM      4  C   UNL d   1      44.381  29.963  61.130  0.00  0.00     0.129 A 
ATOM      5  N   UNL d   1      44.375  30.736  61.426  0.00  0.00    -0.058 NA
ATOM      6  C   UNL d   1      44.354  29.692  63.252  0.00  0.00     0.084 A 
ATOM      7  N   UNL d   1      44.355  31.281  62.819  0.00  0.00    -0.060 NA
ATOM      8  C   UNL d   1      44.345  30.278  63.840  0.00  0.00     0.038 A 
ATOM      9  C   UNL d   1      44.345  31.069  63.624  0.00  0.00     0.101 A 
ATOM     10 BR   UNL d   1      44.378  28.604  61.723  0.00  0.00    -0.028 Br
ATOM     11  C   UNL d   1      44.354  28.885  63.472  0.00  0.00     0.020 C 
ATOM     12  C   UNL d   1      44.335  31.642  64.241  0.00  0.00     0.021 C 
ENDROOT
BRANCH   4  13
ATOM     13  C   UNL d   1      44.392  29.731  60.340  0.00  0.00     0.059 C 
BRANCH  13  14
ATOM     14  S   UNL d   1      44.797  30.156  59.761  0.00  0.00    -0.059 SA
BRANCH  14  15
ATOM     15  C   UNL d   1      44.849  29.881  58.990  0.00  0.00     0.141 A 
ATOM     16  N   UNL d   1      45.070  29.153  58.657  0.00  0.00    -0.232 NA
ATOM     17  C   UNL d   1      45.014  29.204  57.863  0.00  0.00     0.088 A 
ATOM     18  C   UNL d   1      45.170  28.641  57.286  0.00  0.00     0.020 A 
ATOM     19  C   UNL d   1      44.766  29.935  57.651  0.00  0.00     0.049 A 
ATOM     20  C   UNL d   1      45.069  28.829  56.484  0.00  0.00     0.002 A 
ATOM     21  C   UNL d   1      44.819  29.563  56.267  0.00  0.00     0.001 A 
ATOM     22  C   UNL d   1      44.664  30.127  56.849  0.00  0.00     0.008 A 
ATOM     23  S   UNL d   1      44.659  30.370  58.362  0.00  0.00    -0.060 SA
ENDBRANCH  14  15
ENDBRANCH  13  14
ENDBRANCH   4  13
TORSDOF 3
ENDMDL
MODEL 7
REMARK VINA RESULT:      -5.8      9.988     10.794
REMARK  3 active torsions:
REMARK  status: ('A' for Active; 'I' for Inactive)
REMARK    1  A    between atoms: C_15  and  C_4 
REMARK    2  A    between atoms: C_8  and  S_16 
REMARK    3  A    between atoms: S_16  and  C_15 
ROOT
ATOM      1  N   UNL d   1      44.858  29.796  57.923  0.00  0.00    -0.133 N 
ATOM      2  C   UNL d   1      44.663  29.822  57.127  0.00  0.00     0.736 A 
ATOM      3  C   UNL d   1      44.936  29.005  58.142  0.00  0.00     0.135 A 
ATOM      4  C   UNL d   1      44.788  28.538  57.479  0.00  0.00     0.129 A 
ATOM      5  N   UNL d   1      44.619  29.047  56.849  0.00  0.00    -0.058 NA
ATOM      6  C   UNL d   1      44.940  30.487  58.349  0.00  0.00     0.084 A 
ATOM      7  N   UNL d   1      44.550  30.539  56.750  0.00  0.00    -0.060 NA
ATOM      8  C   UNL d   1      44.827  31.220  57.977  0.00  0.00     0.038 A 
ATOM      9  C   UNL d   1      44.633  31.246  57.181  0.00  0.00     0.101 A 
ATOM     10 BR   UNL d   1      45.132  28.707  58.912  0.00  0.00    -0.028 Br
ATOM     11  C   UNL d   1      45.139  30.461  59.160  0.00  0.00     0.020 C 
ATOM     12  C   UNL d   1      44.524  32.004  56.829  0.00  0.00     0.021 C 
ENDROOT
BRANCH   4  13
ATOM     13  C   UNL d   1      44.810  27.715  57.464  0.00  0.00     0.059 C 
BRANCH  13  14
ATOM     14  S   UNL d   1      44.649  27.282  56.781  0.00  0.00    -0.059 SA
BRANCH  14  15
ATOM     15  C   UNL d   1      44.618  26.463  56.794  0.00  0.00     0.141 A 
ATOM     16  N   UNL d   1      44.445  25.908  57.388  0.00  0.00    -0.232 NA
ATOM     17  C   UNL d   1      44.500  25.175  57.079  0.00  0.00     0.088 A 
ATOM     18  C   UNL d   1      44.383  24.443  57.434  0.00  0.00     0.020 A 
ATOM     19  C   UNL d   1      44.702  25.215  56.306  0.00  0.00     0.049 A 
ATOM     20  C   UNL d   1      44.474  23.747  56.992  0.00  0.00     0.002 A 
ATOM     21  C   UNL d   1      44.677  23.784  56.213  0.00  0.00     0.001 A 
ATOM     22  C   UNL d   1      44.794  24.520  55.859  0.00  0.00     0.008 A 
ATOM     23  S   UNL d   1      44.778  26.030  56.118  0.00  0.00    -0.060 SA
ENDBRANCH  14  15
ENDBRANCH  13  14
ENDBRANCH   4  13
TORSDOF 3
ENDMDL
MODEL 8
REMARK VINA RESULT:      -5.7     10.964     11.430
REMARK  3 active torsions:
REMARK  status: ('A' for Active; 'I' for Inactive)
REMARK    1  A    between atoms: C_15  and  C_4 
REMARK    2  A    between atoms: C_8  and  S_16 
REMARK    3  A    between atoms: S_16  and  C_15 
ROOT
ATOM      1  N   UNL d   1      44.839  27.639  58.456  0.00  0.00    -0.133 N 
ATOM      2  C   UNL d   1      45.010  28.025  57.753  0.00  0.00     0.736 A 
ATOM      3  C   UNL d   1      44.760  26.835  58.294  0.00  0.00     0.135 A 
ATOM      4  C   UNL d   1      44.882  26.721  57.487  0.00  0.00     0.129 A 
ATOM      5  N   UNL d   1      45.038  27.462  57.152  0.00  0.00    -0.058 NA
ATOM      6  C   UNL d   1      44.776  28.061  59.152  0.00  0.00     0.084 A 
ATOM      7  N   UNL d   1      45.120  28.836  57.740  0.00  0.00    -0.060 NA
ATOM      8  C   UNL d   1      44.885  28.884  59.151  0.00  0.00     0.038 A 
ATOM      9  C   UNL d   1      45.056  29.270  58.448  0.00  0.00     0.101 A 
ATOM     10 BR   UNL d   1      44.583  26.219  58.849  0.00  0.00    -0.028 Br
ATOM     11  C   UNL d   1      44.601  27.668  59.868  0.00  0.00     0.020 C 
ATOM     12  C   UNL d   1      45.162  30.105  58.476  0.00  0.00     0.021 C 
ENDROOT
BRANCH   4  13
ATOM     13  C   UNL d   1      44.852  25.995  57.099  0.00  0.00     0.059 C 
BRANCH  13  14
ATOM     14  S   UNL d   1      44.726  25.933  56.287  0.00  0.00    -0.059 SA
BRANCH  14  15
ATOM     15  C   UNL d   1      44.774  25.210  55.903  0.00  0.00     0.141 A 
ATOM     16  N   UNL d   1      45.153  24.494  56.082  0.00  0.00    -0.232 NA
ATOM     17  C   UNL d   1      45.006  23.971  55.498  0.00  0.00     0.088 A 
ATOM     18  C   UNL d   1      45.253  23.192  55.413  0.00  0.00     0.020 A 
ATOM     19  C   UNL d   1      44.546  24.308  54.936  0.00  0.00     0.049 A 
ATOM     20  C   UNL d   1      45.024  22.754  54.745  0.00  0.00     0.002 A 
ATOM     21  C   UNL d   1      44.561  23.089  54.179  0.00  0.00     0.001 A 
ATOM     22  C   UNL d   1      44.315  23.873  54.266  0.00  0.00     0.008 A 
ATOM     23  S   UNL d   1      44.395  25.095  55.187  0.00  0.00    -0.060 SA
ENDBRANCH  14  15
ENDBRANCH  13  14
ENDBRANCH   4  13
TORSDOF 3
ENDMDL
