MODEL 1
REMARK VINA RESULT:      59.1      0.000      0.000
REMARK  9 active torsions:
REMARK  status: ('A' for Active; 'I' for Inactive)
REMARK    1  A    between atoms: N_7  and  N_1 
REMARK    2  A    between atoms: S_9  and  C_2 
REMARK       I    between atoms: C_8  and  N_7 
REMARK    3  A    between atoms: C_15  and  C_8 
REMARK    4  A    between atoms: C_14  and  S_9 
REMARK    5  A    between atoms: C_11  and  C_14 
REMARK       I    between atoms: N_16  and  C_11 
REMARK    6  A    between atoms: C_18  and  C_15 
REMARK    7  A    between atoms: C_19  and  N_16 
REMARK    8  A    between atoms: C_22  and  C_19 
REMARK    9  A    between atoms: C_21  and  C_22 
ROOT
ATOM      1  N   UNL d   1      13.577  13.614  -3.573  0.00  0.00    -0.168 N 
ATOM      2  C   UNL d   1      13.660  14.205  -4.131  0.00  0.00     0.199 A 
ATOM      3  C   UNL d   1      13.340  12.857  -3.807  0.00  0.00     0.283 A 
ATOM      4  N   UNL d   1      13.506  14.056  -4.948  0.00  0.00    -0.221 NA
ATOM      5  C   UNL d   1      13.185  12.701  -4.624  0.00  0.00     0.076 A 
ATOM      6  C   UNL d   1      13.268  13.297  -5.188  0.00  0.00     0.088 A 
ATOM      7  O   UNL d   1      13.255  12.254  -3.245  0.00  0.00    -0.265 OA
ATOM      8  C   UNL d   1      12.947  11.934  -4.845  0.00  0.00     0.006 A 
ATOM      9  C   UNL d   1      13.114  13.135  -5.980  0.00  0.00     0.019 A 
ATOM     10  C   UNL d   1      12.795  11.786  -5.650  0.00  0.00     0.000 A 
ATOM     11  C   UNL d   1      12.878  12.382  -6.214  0.00  0.00     0.002 A 
ENDROOT
BRANCH   2  12
ATOM     12  S   UNL d   1      13.894  14.955  -3.906  0.00  0.00    -0.043 SA
BRANCH  12  13
ATOM     13  C   UNL d   1      14.502  15.342  -4.313  0.00  0.00     0.101 C 
BRANCH  13  14
ATOM     14  C   UNL d   1      14.525  16.166  -4.326  0.00  0.00     0.286 C 
ATOM     15  O   UNL d   1      14.907  16.576  -3.717  0.00  0.00    -0.265 OA
ATOM     16  N   UNL d   1      14.172  16.583  -4.941  0.00  0.00    -0.206 NA
BRANCH  16  17
ATOM     17  C   UNL d   1      14.195  17.406  -4.954  0.00  0.00     0.102 C 
BRANCH  17  18
ATOM     18  C   UNL d   1      13.851  17.823  -5.574  0.00  0.00     0.021 C 
BRANCH  18  19
ATOM     19  C   UNL d   1      14.059  18.605  -5.714  0.00  0.00     0.002 A 
ATOM     20  C   UNL d   1      14.706  18.937  -5.319  0.00  0.00     0.000 A 
ATOM     21  C   UNL d   1      14.913  19.729  -5.463  0.00  0.00     0.000 A 
ATOM     22  C   UNL d   1      14.477  20.184  -5.995  0.00  0.00     0.000 A 
ATOM     23  C   UNL d   1      13.826  19.843  -6.389  0.00  0.00     0.000 A 
ATOM     24  C   UNL d   1      13.623  19.060  -6.246  0.00  0.00     0.000 A 
ENDBRANCH  18  19
ENDBRANCH  17  18
ENDBRANCH  16  17
ENDBRANCH  13  14
ENDBRANCH  12  13
ENDBRANCH   2  12
BRANCH   1  25
ATOM     25  N   UNL d   1      13.728  13.770  -2.787  0.00  0.00    -0.119 NA
ATOM     26  C   UNL d   1      14.430  13.513  -2.441  0.00  0.00     0.296 C 
ATOM     27  O   UNL d   1      14.989  13.096  -2.882  0.00  0.00    -0.264 OA
BRANCH  26  28
ATOM     28  C   UNL d   1      14.578  13.675  -1.642  0.00  0.00     0.064 C 
BRANCH  28  29
ATOM     29  C   UNL d   1      14.613  13.060  -1.102  0.00  0.00     0.005 A 
ATOM     30  C   UNL d   1      13.927  12.785  -0.748  0.00  0.00     0.000 A 
ATOM     31  C   UNL d   1      13.959  12.166  -0.204  0.00  0.00     0.000 A 
ATOM     32  C   UNL d   1      14.690  11.822  -0.018  0.00  0.00     0.000 A 
ATOM     33  C   UNL d   1      15.376  12.097  -0.373  0.00  0.00     0.000 A 
ATOM     34  C   UNL d   1      15.344  12.714  -0.915  0.00  0.00     0.000 A 
ENDBRANCH  28  29
ENDBRANCH  26  28
ENDBRANCH   1  25
TORSDOF 9
ENDMDL
