MODEL 1
REMARK VINA RESULT:      43.3      0.000      0.000
REMARK  3 active torsions:
REMARK  status: ('A' for Active; 'I' for Inactive)
REMARK    1  A    between atoms: C_8  and  C_6 
REMARK    2  A    between atoms: C_9  and  C_8 
REMARK       I    between atoms: N_10  and  C_9 
REMARK    3  A    between atoms: C_14  and  N_10 
ROOT
ATOM      1  N   UNL d   1     -57.435 -98.761 -45.337  0.00  0.00    -0.207 NA
ATOM      2  N   UNL d   1     -57.140 -98.795 -43.687  0.00  0.00    -0.240 NA
ATOM      3  C   UNL d   1     -56.744 -98.769 -44.904  0.00  0.00     0.297 A 
ATOM      4  C   UNL d   1     -58.220 -98.768 -45.073  0.00  0.00     0.086 A 
ATOM      5  C   UNL d   1     -57.960 -98.797 -43.667  0.00  0.00     0.083 A 
ATOM      6  C   UNL d   1     -56.649 -98.781 -44.346  0.00  0.00     0.144 A 
ATOM      7  C   UNL d   1     -58.494 -98.785 -44.295  0.00  0.00     0.035 A 
ATOM      8  O   UNL d   1     -56.053 -98.758 -45.352  0.00  0.00    -0.264 OA
ATOM      9  C   UNL d   1     -59.306 -98.790 -44.144  0.00  0.00     0.003 A 
ATOM     10  C   UNL d   1     -58.229 -98.814 -42.890  0.00  0.00     0.019 A 
ATOM     11  C   UNL d   1     -58.764 -98.756 -45.702  0.00  0.00     0.019 A 
ATOM     12  C   UNL d   1     -59.049 -98.819 -42.737  0.00  0.00     0.002 A 
ATOM     13  C   UNL d   1     -59.575 -98.761 -45.548  0.00  0.00     0.002 A 
ATOM     14  C   UNL d   1     -59.587 -98.807 -43.364  0.00  0.00     0.000 A 
ATOM     15  C   UNL d   1     -59.845 -98.777 -44.774  0.00  0.00     0.000 A 
ENDROOT
BRANCH   6  16
ATOM     16  C   UNL d   1     -55.846 -98.783 -44.159  0.00  0.00     0.086 C 
BRANCH  16  17
ATOM     17  C   UNL d   1     -55.309 -99.111 -44.696  0.00  0.00     0.281 C 
ATOM     18  N   UNL d   1     -54.762 -99.670 -44.432  0.00  0.00    -0.208 NA
ATOM     19  O   UNL d   1     -55.315 -98.884 -45.493  0.00  0.00    -0.265 OA
BRANCH  18  20
ATOM     20  C   UNL d   1     -54.746 -99.905 -43.640  0.00  0.00     0.085 A 
ATOM     21  C   UNL d   1     -54.744-100.698 -43.441  0.00  0.00     0.019 A 
ATOM     22  C   UNL d   1     -54.727-100.927 -42.654  0.00  0.00     0.002 A 
ATOM     23  C   UNL d   1     -54.713-100.356 -42.055  0.00  0.00     0.000 A 
ATOM     24  C   UNL d   1     -54.715 -99.549 -42.264  0.00  0.00     0.002 A 
ATOM     25  C   UNL d   1     -54.732 -99.332 -43.053  0.00  0.00     0.019 A 
ENDBRANCH  18  20
ENDBRANCH  16  17
ENDBRANCH   6  16
TORSDOF 3
ENDMDL
