MODEL 1
REMARK VINA RESULT:     112.7      0.000      0.000
REMARK  6 active torsions:
REMARK  status: ('A' for Active; 'I' for Inactive)
REMARK    1  A    between atoms: N_3  and  C_1 
REMARK    2  A    between atoms: S_2  and  C_9 
REMARK    3  A    between atoms: N_10  and  S_2 
REMARK       I    between atoms: C_8  and  N_3 
REMARK    4  A    between atoms: C_20  and  N_4 
REMARK    5  A    between atoms: C_13  and  C_8 
REMARK    6  A    between atoms: O_22  and  C_14 
ROOT
ATOM      1  N   UNL d   1      61.662  44.947  50.700  0.00  0.00    -0.184 NA
ATOM      2  C   UNL d   1      61.774  45.565  50.156  0.00  0.00     0.281 C 
ATOM      3  O   UNL d   1      62.181  45.424  49.454  0.00  0.00    -0.265 OA
ENDROOT
BRANCH   1   4
ATOM      4  C   UNL d   1      61.963  44.188  50.529  0.00  0.00     0.182 A 
ATOM      5  N   UNL d   1      62.087  43.592  51.075  0.00  0.00    -0.283 N 
ATOM      6  C   UNL d   1      62.389  42.934  50.682  0.00  0.00     0.094 A 
ATOM      7  C   UNL d   1      62.618  42.175  50.951  0.00  0.00     0.111 A 
ATOM      8  C   UNL d   1      62.453  43.119  49.887  0.00  0.00     0.050 A 
ATOM      9  C   UNL d   1      62.903  41.627  50.412  0.00  0.00     0.026 A 
ATOM     10  C   UNL d   1      62.970  41.806  49.613  0.00  0.00     0.003 A 
ATOM     11  C   UNL d   1      62.743  42.558  49.349  0.00  0.00     0.008 A 
ATOM     12  S   UNL d   1      62.191  43.894  49.783  0.00  0.00    -0.048 SA
BRANCH   5  13
ATOM     13  C   UNL d   1      61.939  43.635  51.884  0.00  0.00     0.082 C 
ATOM     14  C   UNL d   1      61.133  43.562  52.028  0.00  0.00     0.021 C 
ENDBRANCH   5  13
BRANCH   7  15
ATOM     15  O   UNL d   1      62.555  41.989  51.739  0.00  0.00    -0.327 OA
ATOM     16  C   UNL d   1      62.483  41.210  51.975  0.00  0.00     0.181 C 
ENDBRANCH   7  15
ENDBRANCH   1   4
BRANCH   2  17
ATOM     17  C   UNL d   1      61.477  46.320  50.321  0.00  0.00     0.058 A 
ATOM     18  C   UNL d   1      61.781  46.971  49.922  0.00  0.00     0.005 A 
ATOM     19  C   UNL d   1      61.489  47.725  50.082  0.00  0.00     0.013 A 
ATOM     20  C   UNL d   1      60.888  47.824  50.648  0.00  0.00     0.104 A 
ATOM     21  C   UNL d   1      60.588  47.158  51.047  0.00  0.00     0.013 A 
ATOM     22  C   UNL d   1      60.879  46.404  50.886  0.00  0.00     0.005 A 
BRANCH  20  23
ATOM     23  S   UNL d   1      60.594  48.576  50.810  0.00  0.00     0.271 S 
ATOM     24  O   UNL d   1      60.136  48.224  51.412  0.00  0.00    -0.200 OA
ATOM     25  O   UNL d   1      61.045  48.917  50.219  0.00  0.00    -0.200 OA
BRANCH  23  26
ATOM     26  N   UNL d   1      60.298  49.325  50.976  0.00  0.00    -0.226 N 
ATOM     27  C   UNL d   1      60.515  49.707  51.682  0.00  0.00     0.111 C 
ATOM     28  C   UNL d   1      59.793  49.707  50.461  0.00  0.00     0.111 C 
ENDBRANCH  23  26
ENDBRANCH  20  23
ENDBRANCH   2  17
TORSDOF 6
ENDMDL
