MODEL 1
REMARK VINA RESULT:       1.6      0.000      0.000
REMARK  3 active torsions:
REMARK  status: ('A' for Active; 'I' for Inactive)
REMARK    1  A    between atoms: C_4  and  C_1 
REMARK    2  A    between atoms: C_9  and  N_2 
REMARK    3  A    between atoms: C_8  and  N_3 
ROOT
ATOM      1  C   UNL d   1     -41.879-122.499 -52.007  0.00  0.00     0.139 A 
ATOM      2  N   UNL d   1     -41.855-122.808 -52.771  0.00  0.00    -0.290 N 
ATOM      3  N   UNL d   1     -41.863-123.125 -51.469  0.00  0.00    -0.290 N 
ATOM      4  C   UNL d   1     -41.824-123.618 -52.710  0.00  0.00     0.101 A 
ATOM      5  C   UNL d   1     -41.829-123.815 -51.918  0.00  0.00     0.101 A 
ENDROOT
BRANCH   2   6
ATOM      6  C   UNL d   1     -41.857-122.443 -53.524  0.00  0.00     0.066 A 
ATOM      7  C   UNL d   1     -42.535-122.103 -53.824  0.00  0.00     0.018 A 
ATOM      8  C   UNL d   1     -42.532-121.748 -54.558  0.00  0.00     0.002 A 
ATOM      9  C   UNL d   1     -41.836-121.732 -55.002  0.00  0.00     0.000 A 
ATOM     10  C   UNL d   1     -41.157-122.073 -54.702  0.00  0.00     0.002 A 
ATOM     11  C   UNL d   1     -41.158-122.431 -53.963  0.00  0.00     0.018 A 
ENDBRANCH   2   6
BRANCH   1  12
ATOM     12  C   UNL d   1     -41.914-121.687 -51.837  0.00  0.00     0.063 A 
ATOM     13  S   UNL d   1     -41.123-121.419 -51.669  0.00  0.00    -0.083 SA
ATOM     14  C   UNL d   1     -41.172-120.610 -51.502  0.00  0.00     0.035 A 
ATOM     15  C   UNL d   1     -41.952-120.372 -51.559  0.00  0.00     0.008 A 
ATOM     16  C   UNL d   1     -42.422-121.035 -51.767  0.00  0.00     0.010 A 
ENDBRANCH   1  12
BRANCH   3  17
ATOM     17  C   UNL d   1     -41.882-122.983 -50.664  0.00  0.00     0.066 A 
ATOM     18  C   UNL d   1     -42.579-122.754 -50.292  0.00  0.00     0.018 A 
ATOM     19  C   UNL d   1     -42.577-122.615 -49.475  0.00  0.00     0.002 A 
ATOM     20  C   UNL d   1     -41.899-122.701 -49.036  0.00  0.00     0.000 A 
ATOM     21  C   UNL d   1     -41.185-122.933 -49.398  0.00  0.00     0.002 A 
ATOM     22  C   UNL d   1     -41.179-123.073 -50.212  0.00  0.00     0.018 A 
ENDBRANCH   3  17
TORSDOF 3
ENDMDL
MODEL 2
REMARK VINA RESULT:       2.3      1.533      4.284
REMARK  3 active torsions:
REMARK  status: ('A' for Active; 'I' for Inactive)
REMARK    1  A    between atoms: C_4  and  C_1 
REMARK    2  A    between atoms: C_9  and  N_2 
REMARK    3  A    between atoms: C_8  and  N_3 
ROOT
ATOM      1  C   UNL d   1     -42.184-122.946 -49.803  0.00  0.00     0.139 A 
ATOM      2  N   UNL d   1     -42.029-123.344 -49.098  0.00  0.00    -0.290 N 
ATOM      3  N   UNL d   1     -41.619-123.171 -50.361  0.00  0.00    -0.290 N 
ATOM      4  C   UNL d   1     -41.376-123.812 -49.216  0.00  0.00     0.101 A 
ATOM      5  C   UNL d   1     -41.123-123.709 -49.985  0.00  0.00     0.101 A 
ENDROOT
BRANCH   2   6
ATOM      6  C   UNL d   1     -42.412-123.336 -48.353  0.00  0.00     0.066 A 
ATOM      7  C   UNL d   1     -43.057-123.812 -48.207  0.00  0.00     0.018 A 
ATOM      8  C   UNL d   1     -43.427-123.800 -47.480  0.00  0.00     0.002 A 
ATOM      9  C   UNL d   1     -43.145-123.302 -46.886  0.00  0.00     0.000 A 
ATOM     10  C   UNL d   1     -42.497-122.824 -47.032  0.00  0.00     0.002 A 
ATOM     11  C   UNL d   1     -42.125-122.835 -47.763  0.00  0.00     0.018 A 
ENDBRANCH   2   6
BRANCH   1  12
ATOM     12  C   UNL d   1     -42.811-122.412 -49.905  0.00  0.00     0.063 A 
ATOM     13  S   UNL d   1     -43.512-122.861 -50.087  0.00  0.00    -0.083 SA
ATOM     14  C   UNL d   1     -44.128-122.318 -50.185  0.00  0.00     0.035 A 
ATOM     15  C   UNL d   1     -43.839-121.562 -50.073  0.00  0.00     0.008 A 
ATOM     16  C   UNL d   1     -43.021-121.610 -49.898  0.00  0.00     0.010 A 
ENDBRANCH   1  12
BRANCH   3  17
ATOM     17  C   UNL d   1     -41.635-122.860 -51.118  0.00  0.00     0.066 A 
ATOM     18  C   UNL d   1     -41.404-122.084 -51.261  0.00  0.00     0.018 A 
ATOM     19  C   UNL d   1     -41.428-121.789 -52.035  0.00  0.00     0.002 A 
ATOM     20  C   UNL d   1     -41.675-122.252 -52.654  0.00  0.00     0.000 A 
ATOM     21  C   UNL d   1     -41.913-123.041 -52.525  0.00  0.00     0.002 A 
ATOM     22  C   UNL d   1     -41.892-123.343 -51.757  0.00  0.00     0.018 A 
ENDBRANCH   3  17
TORSDOF 3
ENDMDL
MODEL 3
REMARK VINA RESULT:       2.6      1.453      2.516
REMARK  3 active torsions:
REMARK  status: ('A' for Active; 'I' for Inactive)
REMARK    1  A    between atoms: C_4  and  C_1 
REMARK    2  A    between atoms: C_9  and  N_2 
REMARK    3  A    between atoms: C_8  and  N_3 
ROOT
ATOM      1  C   UNL d   1     -42.189-122.975 -49.902  0.00  0.00     0.139 A 
ATOM      2  N   UNL d   1     -41.697-123.154 -50.539  0.00  0.00    -0.290 N 
ATOM      3  N   UNL d   1     -41.916-123.380 -49.238  0.00  0.00    -0.290 N 
ATOM      4  C   UNL d   1     -41.123-123.664 -50.274  0.00  0.00     0.101 A 
ATOM      5  C   UNL d   1     -41.253-123.804 -49.481  0.00  0.00     0.101 A 
ENDROOT
BRANCH   2   6
ATOM      6  C   UNL d   1     -41.704-122.908 -51.340  0.00  0.00     0.066 A 
ATOM      7  C   UNL d   1     -41.954-123.411 -51.931  0.00  0.00     0.018 A 
ATOM      8  C   UNL d   1     -41.959-123.168 -52.709  0.00  0.00     0.002 A 
ATOM      9  C   UNL d   1     -41.710-122.405 -52.901  0.00  0.00     0.000 A 
ATOM     10  C   UNL d   1     -41.460-121.900 -52.308  0.00  0.00     0.002 A 
ATOM     11  C   UNL d   1     -41.454-122.144 -51.525  0.00  0.00     0.018 A 
ENDBRANCH   2   6
BRANCH   1  12
ATOM     12  C   UNL d   1     -42.845-122.468 -49.952  0.00  0.00     0.063 A 
ATOM     13  S   UNL d   1     -43.530-122.940 -50.135  0.00  0.00    -0.083 SA
ATOM     14  C   UNL d   1     -44.174-122.424 -50.181  0.00  0.00     0.035 A 
ATOM     15  C   UNL d   1     -43.917-121.662 -50.036  0.00  0.00     0.008 A 
ATOM     16  C   UNL d   1     -43.091-121.679 -49.892  0.00  0.00     0.010 A 
ENDBRANCH   1  12
BRANCH   3  17
ATOM     17  C   UNL d   1     -42.299-123.307 -48.518  0.00  0.00     0.066 A 
ATOM     18  C   UNL d   1     -42.062-122.743 -47.969  0.00  0.00     0.018 A 
ATOM     19  C   UNL d   1     -42.464-122.686 -47.246  0.00  0.00     0.002 A 
ATOM     20  C   UNL d   1     -43.087-123.176 -47.072  0.00  0.00     0.000 A 
ATOM     21  C   UNL d   1     -43.340-123.753 -47.619  0.00  0.00     0.002 A 
ATOM     22  C   UNL d   1     -42.944-123.816 -48.341  0.00  0.00     0.018 A 
ENDBRANCH   3  17
TORSDOF 3
ENDMDL
