MODEL 1
REMARK VINA RESULT:      59.9      0.000      0.000
REMARK  8 active torsions:
REMARK  status: ('A' for Active; 'I' for Inactive)
REMARK    1  A    between atoms: C_2  and  S_1 
REMARK    2  A    between atoms: N_3  and  S_1 
REMARK    3  A    between atoms: C_17  and  N_3 
REMARK    4  A    between atoms: O_21  and  C_8 
REMARK    5  A    between atoms: O_22  and  C_16 
REMARK    6  A    between atoms: C_18  and  C_17 
REMARK    7  A    between atoms: C_23  and  O_21 
REMARK    8  A    between atoms: C_24  and  O_22 
ROOT
ATOM      1  S   UNL d   1      60.885  49.203  50.028  0.00  0.00     0.287 S 
ATOM      2  O   UNL d   1      61.671  48.963  49.996  0.00  0.00    -0.198 OA
ATOM      3  O   UNL d   1      60.953  49.491  49.240  0.00  0.00    -0.198 OA
ENDROOT
BRANCH   1   4
ATOM      4  C   UNL d   1      60.812  48.918  50.813  0.00  0.00     0.130 A 
ATOM      5  C   UNL d   1      60.653  49.440  51.432  0.00  0.00     0.040 A 
ATOM      6  C   UNL d   1      60.584  49.152  52.195  0.00  0.00     0.101 A 
ATOM      7  C   UNL d   1      60.670  48.350  52.345  0.00  0.00     0.027 A 
ATOM      8  C   UNL d   1      60.829  47.815  51.736  0.00  0.00     0.028 A 
ATOM      9  C   UNL d   1      60.899  48.117  50.963  0.00  0.00     0.112 A 
BRANCH   6  10
ATOM     10  O   UNL d   1      60.420  49.699  52.825  0.00  0.00    -0.305 OA
BRANCH  10  11
ATOM     11  C   UNL d   1      60.483  49.464  53.627  0.00  0.00     0.123 C 
ATOM     12  C   UNL d   1      59.804  49.241  54.032  0.00  0.00     0.029 C 
ENDBRANCH  10  11
ENDBRANCH   6  10
BRANCH   9  13
ATOM     13  O   UNL d   1      61.065  47.564  50.319  0.00  0.00    -0.304 OA
BRANCH  13  14
ATOM     14  C   UNL d   1      61.695  47.012  50.401  0.00  0.00     0.123 C 
ATOM     15  C   UNL d   1      61.626  46.262  50.058  0.00  0.00     0.029 C 
ENDBRANCH  13  14
ENDBRANCH   9  13
ENDBRANCH   1   4
BRANCH   1  16
ATOM     16  N   UNL d   1      60.084  49.454  50.048  0.00  0.00    -0.157 NA
BRANCH  16  17
ATOM     17  C   UNL d   1      59.474  48.911  50.247  0.00  0.00     0.112 C 
BRANCH  17  18
ATOM     18  C   UNL d   1      58.664  49.131  50.107  0.00  0.00     0.022 A 
ATOM     19  C   UNL d   1      58.121  49.043  50.728  0.00  0.00     0.028 A 
ATOM     20  C   UNL d   1      57.333  49.255  50.600  0.00  0.00     0.119 A 
ATOM     21  O   UNL d   1      56.675  49.231  51.100  0.00  0.00    -0.300 OA
ATOM     22  C   UNL d   1      57.092  49.548  49.873  0.00  0.00     0.119 A 
ATOM     23  C   UNL d   1      56.034  49.512  50.668  0.00  0.00     0.304 A 
ATOM     24  O   UNL d   1      56.284  49.706  49.923  0.00  0.00    -0.300 OA
ATOM     25  C   UNL d   1      57.633  49.635  49.261  0.00  0.00     0.026 A 
ATOM     26  C   UNL d   1      58.422  49.425  49.381  0.00  0.00     0.004 A 
ENDBRANCH  17  18
ENDBRANCH  16  17
ENDBRANCH   1  16
TORSDOF 8
ENDMDL
MODEL 2
REMARK VINA RESULT:      61.0      1.433      3.831
REMARK  8 active torsions:
REMARK  status: ('A' for Active; 'I' for Inactive)
REMARK    1  A    between atoms: C_2  and  S_1 
REMARK    2  A    between atoms: N_3  and  S_1 
REMARK    3  A    between atoms: C_17  and  N_3 
REMARK    4  A    between atoms: O_21  and  C_8 
REMARK    5  A    between atoms: O_22  and  C_16 
REMARK    6  A    between atoms: C_18  and  C_17 
REMARK    7  A    between atoms: C_23  and  O_21 
REMARK    8  A    between atoms: C_24  and  O_22 
ROOT
ATOM      1  S   UNL d   1      61.153  48.738  50.246  0.00  0.00     0.287 S 
ATOM      2  O   UNL d   1      61.279  49.494  49.948  0.00  0.00    -0.198 OA
ATOM      3  O   UNL d   1      61.634  48.427  49.630  0.00  0.00    -0.198 OA
ENDROOT
BRANCH   1   4
ATOM      4  C   UNL d   1      60.673  49.042  50.863  0.00  0.00     0.130 A 
ATOM      5  C   UNL d   1      60.960  49.075  51.636  0.00  0.00     0.040 A 
ATOM      6  C   UNL d   1      60.483  49.374  52.230  0.00  0.00     0.101 A 
ATOM      7  C   UNL d   1      59.725  49.639  52.060  0.00  0.00     0.027 A 
ATOM      8  C   UNL d   1      59.424  49.613  51.291  0.00  0.00     0.028 A 
ATOM      9  C   UNL d   1      59.916  49.308  50.693  0.00  0.00     0.112 A 
BRANCH   6  10
ATOM     10  O   UNL d   1      60.788  49.403  53.023  0.00  0.00    -0.305 OA
BRANCH  10  11
ATOM     11  C   UNL d   1      60.326  49.708  53.652  0.00  0.00     0.123 C 
ATOM     12  C   UNL d   1      60.627  49.684  54.416  0.00  0.00     0.029 C 
ENDBRANCH  10  11
ENDBRANCH   6  10
BRANCH   9  13
ATOM     13  O   UNL d   1      59.610  49.276  49.885  0.00  0.00    -0.304 OA
BRANCH  13  14
ATOM     14  C   UNL d   1      58.906  49.696  49.694  0.00  0.00     0.123 C 
ATOM     15  C   UNL d   1      58.602  49.652  48.925  0.00  0.00     0.029 C 
ENDBRANCH  13  14
ENDBRANCH   9  13
ENDBRANCH   1   4
BRANCH   1  16
ATOM     16  N   UNL d   1      61.033  47.961  50.541  0.00  0.00    -0.157 NA
BRANCH  16  17
ATOM     17  C   UNL d   1      61.447  47.311  50.206  0.00  0.00     0.112 C 
BRANCH  17  18
ATOM     18  C   UNL d   1      61.242  46.521  50.450  0.00  0.00     0.022 A 
ATOM     19  C   UNL d   1      61.619  45.885  50.075  0.00  0.00     0.028 A 
ATOM     20  C   UNL d   1      61.425  45.116  50.307  0.00  0.00     0.119 A 
ATOM     21  O   UNL d   1      61.700  44.383  50.042  0.00  0.00    -0.300 OA
ATOM     22  C   UNL d   1      60.870  44.984  50.896  0.00  0.00     0.119 A 
ATOM     23  C   UNL d   1      61.306  43.807  50.477  0.00  0.00     0.304 A 
ATOM     24  O   UNL d   1      60.802  44.168  50.996  0.00  0.00    -0.300 OA
ATOM     25  C   UNL d   1      60.499  45.618  51.265  0.00  0.00     0.026 A 
ATOM     26  C   UNL d   1      60.688  46.389  51.039  0.00  0.00     0.004 A 
ENDBRANCH  17  18
ENDBRANCH  16  17
ENDBRANCH   1  16
TORSDOF 8
ENDMDL
