MODEL 1
REMARK VINA RESULT:      -9.3      0.000      0.000
REMARK  4 active torsions:
REMARK  status: ('A' for Active; 'I' for Inactive)
REMARK    1  A    between atoms: N_2  and  S_1 
REMARK    2  A    between atoms: C_4  and  S_1 
REMARK    3  A    between atoms: C_3  and  C_9 
REMARK       I    between atoms: N_5  and  C_3 
REMARK    4  A    between atoms: C_6  and  N_5 
ROOT
ATOM      1  C   UNL d   1     -47.778  13.640  22.724  0.00  0.00     0.104 A 
ATOM      2  C   UNL d   1     -46.352  13.598  22.659  0.00  0.00     0.059 A 
ATOM      3  C   UNL d   1     -47.073  13.205  22.682  0.00  0.00     0.018 A 
ATOM      4  C   UNL d   1     -47.755  14.463  22.743  0.00  0.00     0.013 A 
ATOM      5  C   UNL d   1     -46.329  14.422  22.679  0.00  0.00     0.005 A 
ATOM      6  C   UNL d   1     -47.037  14.856  22.721  0.00  0.00     0.001 A 
ENDROOT
BRANCH   1   7
ATOM      7  S   UNL d   1     -48.494  13.247  22.746  0.00  0.00     0.271 S 
ATOM      8  O   UNL d   1     -48.504  13.666  23.433  0.00  0.00    -0.200 OA
ATOM      9  O   UNL d   1     -48.526  12.798  22.050  0.00  0.00    -0.200 OA
BRANCH   7  10
ATOM     10  N   UNL d   1     -49.229  12.897  22.855  0.00  0.00    -0.229 N 
ATOM     11  C   UNL d   1     -49.863  13.183  22.385  0.00  0.00     0.092 A 
ATOM     12  C   UNL d   1     -50.549  12.944  22.404  0.00  0.00     0.020 A 
ATOM     13  C   UNL d   1     -50.972  12.342  22.851  0.00  0.00     0.002 A 
ATOM     14  C   UNL d   1     -50.764  11.858  23.378  0.00  0.00     0.002 A 
ATOM     15  C   UNL d   1     -49.988  11.775  23.697  0.00  0.00     0.020 A 
ATOM     16  C   UNL d   1     -49.278  12.255  23.456  0.00  0.00     0.092 A 
ENDBRANCH   7  10
ENDBRANCH   1   7
BRANCH   2  17
ATOM     17  C   UNL d   1     -45.647  13.164  22.617  0.00  0.00     0.281 C 
ATOM     18  N   UNL d   1     -45.149  13.264  21.965  0.00  0.00    -0.187 NA
ATOM     19  O   UNL d   1     -45.458  12.644  23.222  0.00  0.00    -0.265 OA
BRANCH  18  20
ATOM     20  C   UNL d   1     -44.453  12.832  21.928  0.00  0.00     0.194 A 
ATOM     21  N   UNL d   1     -44.285  12.137  22.341  0.00  0.00    -0.106 NA
ATOM     22  O   UNL d   1     -43.527  11.896  22.137  0.00  0.00    -0.207 OA
ATOM     23  C   UNL d   1     -43.221  12.444  21.595  0.00  0.00     0.153 A 
ATOM     24  C   UNL d   1     -43.788  13.018  21.467  0.00  0.00     0.070 A 
ENDBRANCH  18  20
ENDBRANCH   2  17
TORSDOF 4
ENDMDL
MODEL 2
REMARK VINA RESULT:      -8.3      1.258      1.896
REMARK  4 active torsions:
REMARK  status: ('A' for Active; 'I' for Inactive)
REMARK    1  A    between atoms: N_2  and  S_1 
REMARK    2  A    between atoms: C_4  and  S_1 
REMARK    3  A    between atoms: C_3  and  C_9 
REMARK       I    between atoms: N_5  and  C_3 
REMARK    4  A    between atoms: C_6  and  N_5 
ROOT
ATOM      1  C   UNL d   1     -48.435  12.808  23.181  0.00  0.00     0.104 A 
ATOM      2  C   UNL d   1     -47.080  12.360  23.217  0.00  0.00     0.059 A 
ATOM      3  C   UNL d   1     -47.629  12.946  23.044  0.00  0.00     0.018 A 
ATOM      4  C   UNL d   1     -48.683  12.086  23.490  0.00  0.00     0.013 A 
ATOM      5  C   UNL d   1     -47.328  11.638  23.525  0.00  0.00     0.005 A 
ATOM      6  C   UNL d   1     -48.138  11.501  23.663  0.00  0.00     0.001 A 
ENDROOT
BRANCH   1   7
ATOM      7  S   UNL d   1     -48.980  13.392  23.009  0.00  0.00     0.271 S 
ATOM      8  O   UNL d   1     -49.265  13.086  23.697  0.00  0.00    -0.200 OA
ATOM      9  O   UNL d   1     -48.724  13.737  22.301  0.00  0.00    -0.200 OA
BRANCH   7  10
ATOM     10  N   UNL d   1     -49.574  13.952  22.919  0.00  0.00    -0.229 N 
ATOM     11  C   UNL d   1     -50.261  13.716  22.498  0.00  0.00     0.092 A 
ATOM     12  C   UNL d   1     -50.842  14.133  22.363  0.00  0.00     0.020 A 
ATOM     13  C   UNL d   1     -51.064  14.944  22.545  0.00  0.00     0.002 A 
ATOM     14  C   UNL d   1     -50.724  15.497  22.910  0.00  0.00     0.002 A 
ATOM     15  C   UNL d   1     -49.962  15.459  23.269  0.00  0.00     0.020 A 
ATOM     16  C   UNL d   1     -49.430  14.745  23.274  0.00  0.00     0.092 A 
ENDBRANCH   7  10
ENDBRANCH   1   7
BRANCH   2  17
ATOM     17  C   UNL d   1     -46.274  12.498  23.079  0.00  0.00     0.281 C 
ATOM     18  N   UNL d   1     -45.957  12.333  22.334  0.00  0.00    -0.187 NA
ATOM     19  O   UNL d   1     -45.807  12.794  23.684  0.00  0.00    -0.265 OA
BRANCH  18  20
ATOM     20  C   UNL d   1     -45.159  12.471  22.203  0.00  0.00     0.194 A 
ATOM     21  N   UNL d   1     -44.529  12.030  22.506  0.00  0.00    -0.106 NA
ATOM     22  O   UNL d   1     -43.831  12.364  22.233  0.00  0.00    -0.207 OA
ATOM     23  C   UNL d   1     -44.026  13.015  21.759  0.00  0.00     0.153 A 
ATOM     24  C   UNL d   1     -44.840  13.081  21.740  0.00  0.00     0.070 A 
ENDBRANCH  18  20
ENDBRANCH   2  17
TORSDOF 4
ENDMDL
MODEL 3
REMARK VINA RESULT:      -6.6      7.759      8.770
REMARK  4 active torsions:
REMARK  status: ('A' for Active; 'I' for Inactive)
REMARK    1  A    between atoms: N_2  and  S_1 
REMARK    2  A    between atoms: C_4  and  S_1 
REMARK    3  A    between atoms: C_3  and  C_9 
REMARK       I    between atoms: N_5  and  C_3 
REMARK    4  A    between atoms: C_6  and  N_5 
ROOT
ATOM      1  C   UNL d   1     -40.287  15.255  19.949  0.00  0.00     0.104 A 
ATOM      2  C   UNL d   1     -39.849  15.026  21.289  0.00  0.00     0.059 A 
ATOM      3  C   UNL d   1     -39.776  14.879  20.484  0.00  0.00     0.018 A 
ATOM      4  C   UNL d   1     -40.864  15.774  20.225  0.00  0.00     0.013 A 
ATOM      5  C   UNL d   1     -40.426  15.545  21.565  0.00  0.00     0.005 A 
ATOM      6  C   UNL d   1     -40.937  15.922  21.026  0.00  0.00     0.001 A 
ENDROOT
BRANCH   1   7
ATOM      7  S   UNL d   1     -40.213  15.107  19.149  0.00  0.00     0.271 S 
ATOM      8  O   UNL d   1     -39.813  15.800  19.236  0.00  0.00    -0.200 OA
ATOM      9  O   UNL d   1     -40.614  14.396  19.014  0.00  0.00    -0.200 OA
BRANCH   7  10
ATOM     10  N   UNL d   1     -40.087  15.043  18.340  0.00  0.00    -0.229 N 
ATOM     11  C   UNL d   1     -40.585  15.495  17.838  0.00  0.00     0.092 A 
ATOM     12  C   UNL d   1     -40.557  15.510  17.112  0.00  0.00     0.020 A 
ATOM     13  C   UNL d   1     -40.071  15.128  16.513  0.00  0.00     0.002 A 
ATOM     14  C   UNL d   1     -39.506  14.644  16.548  0.00  0.00     0.002 A 
ATOM     15  C   UNL d   1     -39.171  14.322  17.251  0.00  0.00     0.020 A 
ATOM     16  C   UNL d   1     -39.439  14.506  18.081  0.00  0.00     0.092 A 
ENDBRANCH   7  10
ENDBRANCH   1   7
BRANCH   2  17
ATOM     17  C   UNL d   1     -39.339  14.650  21.825  0.00  0.00     0.281 C 
ATOM     18  N   UNL d   1     -39.471  13.858  22.020  0.00  0.00    -0.187 NA
ATOM     19  O   UNL d   1     -38.715  15.071  22.149  0.00  0.00    -0.265 OA
BRANCH  18  20
ATOM     20  C   UNL d   1     -38.964  13.491  22.550  0.00  0.00     0.194 A 
ATOM     21  N   UNL d   1     -38.281  13.067  22.360  0.00  0.00    -0.106 NA
ATOM     22  O   UNL d   1     -37.947  12.798  23.061  0.00  0.00    -0.207 OA
ATOM     23  C   UNL d   1     -38.423  13.054  23.688  0.00  0.00     0.153 A 
ATOM     24  C   UNL d   1     -39.047  13.479  23.375  0.00  0.00     0.070 A 
ENDBRANCH  18  20
ENDBRANCH   2  17
TORSDOF 4
ENDMDL
MODEL 4
REMARK VINA RESULT:      -6.6      1.569      5.037
REMARK  4 active torsions:
REMARK  status: ('A' for Active; 'I' for Inactive)
REMARK    1  A    between atoms: N_2  and  S_1 
REMARK    2  A    between atoms: C_4  and  S_1 
REMARK    3  A    between atoms: C_3  and  C_9 
REMARK       I    between atoms: N_5  and  C_3 
REMARK    4  A    between atoms: C_6  and  N_5 
ROOT
ATOM      1  C   UNL d   1     -47.408  12.596  23.136  0.00  0.00     0.104 A 
ATOM      2  C   UNL d   1     -48.639  13.308  23.273  0.00  0.00     0.059 A 
ATOM      3  C   UNL d   1     -47.837  13.305  23.094  0.00  0.00     0.018 A 
ATOM      4  C   UNL d   1     -47.785  11.898  23.355  0.00  0.00     0.013 A 
ATOM      5  C   UNL d   1     -49.017  12.609  23.493  0.00  0.00     0.005 A 
ATOM      6  C   UNL d   1     -48.584  11.899  23.534  0.00  0.00     0.001 A 
ENDROOT
BRANCH   1   7
ATOM      7  S   UNL d   1     -46.611  12.596  22.957  0.00  0.00     0.271 S 
ATOM      8  O   UNL d   1     -46.952  12.537  22.231  0.00  0.00    -0.200 OA
ATOM      9  O   UNL d   1     -46.218  12.656  23.684  0.00  0.00    -0.200 OA
BRANCH   7  10
ATOM     10  N   UNL d   1     -45.837  12.589  22.683  0.00  0.00    -0.229 N 
ATOM     11  C   UNL d   1     -45.349  11.952  22.932  0.00  0.00     0.092 A 
ATOM     12  C   UNL d   1     -44.653  11.852  22.748  0.00  0.00     0.020 A 
ATOM     13  C   UNL d   1     -44.085  12.277  22.259  0.00  0.00     0.002 A 
ATOM     14  C   UNL d   1     -44.126  12.902  21.856  0.00  0.00     0.002 A 
ATOM     15  C   UNL d   1     -44.805  13.395  21.772  0.00  0.00     0.020 A 
ATOM     16  C   UNL d   1     -45.596  13.251  22.154  0.00  0.00     0.092 A 
ENDBRANCH   7  10
ENDBRANCH   1   7
BRANCH   2  17
ATOM     17  C   UNL d   1     -49.068  14.016  23.231  0.00  0.00     0.281 C 
ATOM     18  N   UNL d   1     -49.886  13.986  23.114  0.00  0.00    -0.187 NA
ATOM     19  O   UNL d   1     -48.674  14.730  23.308  0.00  0.00    -0.265 OA
BRANCH  18  20
ATOM     20  C   UNL d   1     -50.306  14.690  23.073  0.00  0.00     0.194 A 
ATOM     21  N   UNL d   1     -50.386  15.175  22.410  0.00  0.00    -0.106 NA
ATOM     22  O   UNL d   1     -50.852  15.818  22.620  0.00  0.00    -0.207 OA
ATOM     23  C   UNL d   1     -51.062  15.733  23.417  0.00  0.00     0.153 A 
ATOM     24  C   UNL d   1     -50.728  15.041  23.695  0.00  0.00     0.070 A 
ENDBRANCH  18  20
ENDBRANCH   2  17
TORSDOF 4
ENDMDL
MODEL 5
REMARK VINA RESULT:      -6.4      7.849      9.628
REMARK  4 active torsions:
REMARK  status: ('A' for Active; 'I' for Inactive)
REMARK    1  A    between atoms: N_2  and  S_1 
REMARK    2  A    between atoms: C_4  and  S_1 
REMARK    3  A    between atoms: C_3  and  C_9 
REMARK       I    between atoms: N_5  and  C_3 
REMARK    4  A    between atoms: C_6  and  N_5 
ROOT
ATOM      1  C   UNL d   1     -39.862  14.398  18.899  0.00  0.00     0.104 A 
ATOM      2  C   UNL d   1     -39.927  14.620  20.309  0.00  0.00     0.059 A 
ATOM      3  C   UNL d   1     -39.481  14.507  19.628  0.00  0.00     0.018 A 
ATOM      4  C   UNL d   1     -40.684  14.402  18.859  0.00  0.00     0.013 A 
ATOM      5  C   UNL d   1     -40.751  14.625  20.268  0.00  0.00     0.005 A 
ATOM      6  C   UNL d   1     -41.130  14.514  19.536  0.00  0.00     0.001 A 
ENDROOT
BRANCH   1   7
ATOM      7  S   UNL d   1     -39.416  14.286  18.224  0.00  0.00     0.271 S 
ATOM      8  O   UNL d   1     -39.920  13.658  18.206  0.00  0.00    -0.200 OA
ATOM      9  O   UNL d   1     -38.878  14.915  18.202  0.00  0.00    -0.200 OA
BRANCH   7  10
ATOM     10  N   UNL d   1     -39.023  14.092  17.530  0.00  0.00    -0.229 N 
ATOM     11  C   UNL d   1     -38.600  13.366  17.519  0.00  0.00     0.092 A 
ATOM     12  C   UNL d   1     -38.220  13.103  16.958  0.00  0.00     0.020 A 
ATOM     13  C   UNL d   1     -38.051  13.371  16.158  0.00  0.00     0.002 A 
ATOM     14  C   UNL d   1     -38.244  13.978  15.772  0.00  0.00     0.002 A 
ATOM     15  C   UNL d   1     -38.724  14.612  16.052  0.00  0.00     0.020 A 
ATOM     16  C   UNL d   1     -39.084  14.665  16.865  0.00  0.00     0.092 A 
ENDBRANCH   7  10
ENDBRANCH   1   7
BRANCH   2  17
ATOM     17  C   UNL d   1     -39.547  14.730  21.037  0.00  0.00     0.281 C 
ATOM     18  N   UNL d   1     -39.277  15.484  21.242  0.00  0.00    -0.187 NA
ATOM     19  O   UNL d   1     -39.447  14.090  21.539  0.00  0.00    -0.265 OA
BRANCH  18  20
ATOM     20  C   UNL d   1     -38.902  15.587  21.964  0.00  0.00     0.194 A 
ATOM     21  N   UNL d   1     -38.124  15.379  22.146  0.00  0.00    -0.106 NA
ATOM     22  O   UNL d   1     -37.982  15.583  22.929  0.00  0.00    -0.207 OA
ATOM     23  C   UNL d   1     -38.674  15.919  23.236  0.00  0.00     0.153 A 
ATOM     24  C   UNL d   1     -39.239  15.922  22.645  0.00  0.00     0.070 A 
ENDBRANCH  18  20
ENDBRANCH   2  17
TORSDOF 4
ENDMDL
MODEL 6
REMARK VINA RESULT:      -6.3      8.007      9.063
REMARK  4 active torsions:
REMARK  status: ('A' for Active; 'I' for Inactive)
REMARK    1  A    between atoms: N_2  and  S_1 
REMARK    2  A    between atoms: C_4  and  S_1 
REMARK    3  A    between atoms: C_3  and  C_9 
REMARK       I    between atoms: N_5  and  C_3 
REMARK    4  A    between atoms: C_6  and  N_5 
ROOT
ATOM      1  C   UNL d   1     -40.042  15.085  20.213  0.00  0.00     0.104 A 
ATOM      2  C   UNL d   1     -40.056  14.896  18.797  0.00  0.00     0.059 A 
ATOM      3  C   UNL d   1     -39.779  14.678  19.540  0.00  0.00     0.018 A 
ATOM      4  C   UNL d   1     -40.579  15.704  20.137  0.00  0.00     0.013 A 
ATOM      5  C   UNL d   1     -40.594  15.515  18.721  0.00  0.00     0.005 A 
ATOM      6  C   UNL d   1     -40.857  15.922  19.398  0.00  0.00     0.001 A 
ENDROOT
BRANCH   1   7
ATOM      7  S   UNL d   1     -39.765  14.867  20.950  0.00  0.00     0.271 S 
ATOM      8  O   UNL d   1     -39.284  15.484  20.758  0.00  0.00    -0.200 OA
ATOM      9  O   UNL d   1     -40.236  14.229  21.188  0.00  0.00    -0.200 OA
BRANCH   7  10
ATOM     10  N   UNL d   1     -39.421  14.722  21.681  0.00  0.00    -0.229 N 
ATOM     11  C   UNL d   1     -39.317  13.918  21.902  0.00  0.00     0.092 A 
ATOM     12  C   UNL d   1     -39.024  13.682  22.524  0.00  0.00     0.020 A 
ATOM     13  C   UNL d   1     -38.694  14.060  23.223  0.00  0.00     0.002 A 
ATOM     14  C   UNL d   1     -38.600  14.771  23.422  0.00  0.00     0.002 A 
ATOM     15  C   UNL d   1     -38.815  15.447  22.966  0.00  0.00     0.020 A 
ATOM     16  C   UNL d   1     -39.194  15.425  22.161  0.00  0.00     0.092 A 
ENDBRANCH   7  10
ENDBRANCH   1   7
BRANCH   2  17
ATOM     17  C   UNL d   1     -39.793  14.489  18.124  0.00  0.00     0.281 C 
ATOM     18  N   UNL d   1     -39.051  14.669  17.808  0.00  0.00    -0.187 NA
ATOM     19  O   UNL d   1     -40.274  13.919  17.785  0.00  0.00    -0.265 OA
BRANCH  18  20
ATOM     20  C   UNL d   1     -38.795  14.264  17.142  0.00  0.00     0.194 A 
ATOM     21  N   UNL d   1     -38.547  13.477  17.112  0.00  0.00    -0.106 NA
ATOM     22  O   UNL d   1     -38.341  13.305  16.336  0.00  0.00    -0.207 OA
ATOM     23  C   UNL d   1     -38.461  13.987  15.882  0.00  0.00     0.153 A 
ATOM     24  C   UNL d   1     -38.739  14.575  16.375  0.00  0.00     0.070 A 
ENDBRANCH  18  20
ENDBRANCH   2  17
TORSDOF 4
ENDMDL
