MODEL 1
REMARK VINA RESULT:       3.0      0.000      0.000
REMARK  5 active torsions:
REMARK  status: ('A' for Active; 'I' for Inactive)
REMARK    1  A    between atoms: C_11  and  C_3 
REMARK    2  A    between atoms: C_13  and  N_5 
REMARK    3  A    between atoms: C_12  and  C_7 
REMARK    4  A    between atoms: O_21  and  C_11 
REMARK    5  A    between atoms: C_20  and  C_13 
ROOT
ATOM      1  C   UNL d   1     -41.564-122.576 -52.203  0.00  0.00     0.080 A 
ATOM      2  C   UNL d   1     -41.386-122.164 -52.900  0.00  0.00     0.267 A 
ATOM      3  C   UNL d   1     -41.798-122.583 -50.801  0.00  0.00     0.106 A 
ATOM      4  C   UNL d   1     -41.683-123.392 -52.230  0.00  0.00     0.108 A 
ATOM      5  N   UNL d   1     -41.328-122.580 -53.622  0.00  0.00    -0.271 N 
ATOM      6  C   UNL d   1     -41.919-123.404 -50.826  0.00  0.00     0.208 A 
ATOM      7  C   UNL d   1     -41.622-122.175 -51.491  0.00  0.00     0.015 A 
ATOM      8  O   UNL d   1     -41.861-123.808 -51.540  0.00  0.00    -0.288 OA
ATOM      9  C   UNL d   1     -41.628-123.810 -52.939  0.00  0.00     0.043 A 
ATOM     10  C   UNL d   1     -41.451-123.400 -53.632  0.00  0.00     0.069 A 
ATOM     11  O   UNL d   1     -41.264-121.346 -52.887  0.00  0.00    -0.267 OA
ATOM     12  N   UNL d   1     -42.096-123.814 -50.132  0.00  0.00    -0.121 N 
ATOM     13  C   UNL d   1     -41.392-123.816 -54.362  0.00  0.00     0.019 C 
ENDROOT
BRANCH   7  14
ATOM     14  C   UNL d   1     -41.502-121.361 -51.470  0.00  0.00     0.001 A 
ATOM     15  C   UNL d   1     -41.242-121.007 -50.769  0.00  0.00     0.001 A 
ATOM     16  C   UNL d   1     -41.123-120.193 -50.748  0.00  0.00     0.011 A 
ATOM     17  C   UNL d   1     -41.260-119.733 -51.419  0.00  0.00     0.058 A 
ATOM     18  C   UNL d   1     -41.521-120.091 -52.122  0.00  0.00     0.011 A 
ATOM     19 CL   UNL d   1     -41.141-118.920 -51.398  0.00  0.00    -0.082 Cl
ATOM     20  C   UNL d   1     -41.641-120.906 -52.144  0.00  0.00     0.001 A 
ENDBRANCH   7  14
BRANCH   3  21
ATOM     21  C   UNL d   1     -41.856-122.179 -50.086  0.00  0.00     0.299 C 
ATOM     22  O   UNL d   1     -41.174-121.958 -49.678  0.00  0.00    -0.259 OA
BRANCH  21  23
ATOM     23  O   UNL d   1     -42.597-121.993 -49.774  0.00  0.00    -0.296 OA
ATOM     24  C   UNL d   1     -42.971-122.512 -49.252  0.00  0.00     0.185 C 
ENDBRANCH  21  23
ENDBRANCH   3  21
BRANCH   5  25
ATOM     25  C   UNL d   1     -41.151-122.170 -54.316  0.00  0.00     0.108 C 
BRANCH  25  26
ATOM     26  C   UNL d   1     -41.734-122.048 -54.883  0.00  0.00     0.118 A 
ATOM     27  O   UNL d   1     -41.808-122.454 -55.603  0.00  0.00    -0.304 OA
ATOM     28  C   UNL d   1     -42.469-122.157 -56.001  0.00  0.00     0.123 A 
ATOM     29  C   UNL d   1     -42.808-121.568 -55.533  0.00  0.00     0.029 A 
ATOM     30  C   UNL d   1     -42.356-121.499 -54.844  0.00  0.00     0.028 A 
ENDBRANCH  25  26
ENDBRANCH   5  25
TORSDOF 5
ENDMDL
MODEL 2
REMARK VINA RESULT:       4.0      1.791      2.398
REMARK  5 active torsions:
REMARK  status: ('A' for Active; 'I' for Inactive)
REMARK    1  A    between atoms: C_11  and  C_3 
REMARK    2  A    between atoms: C_13  and  N_5 
REMARK    3  A    between atoms: C_12  and  C_7 
REMARK    4  A    between atoms: O_21  and  C_11 
REMARK    5  A    between atoms: C_20  and  C_13 
ROOT
ATOM      1  C   UNL d   1     -42.190-123.161 -50.821  0.00  0.00     0.080 A 
ATOM      2  C   UNL d   1     -42.545-122.943 -51.538  0.00  0.00     0.267 A 
ATOM      3  C   UNL d   1     -42.184-123.165 -49.399  0.00  0.00     0.106 A 
ATOM      4  C   UNL d   1     -41.487-123.593 -50.828  0.00  0.00     0.108 A 
ATOM      5  N   UNL d   1     -42.187-123.163 -52.259  0.00  0.00    -0.271 N 
ATOM      6  C   UNL d   1     -41.476-123.600 -49.404  0.00  0.00     0.208 A 
ATOM      7  C   UNL d   1     -42.535-122.949 -50.109  0.00  0.00     0.015 A 
ATOM      8  O   UNL d   1     -41.128-123.814 -50.119  0.00  0.00    -0.288 OA
ATOM      9  C   UNL d   1     -41.127-123.815 -51.536  0.00  0.00     0.043 A 
ATOM     10  C   UNL d   1     -41.480-123.597 -52.250  0.00  0.00     0.069 A 
ATOM     11  O   UNL d   1     -43.249-122.510 -51.544  0.00  0.00    -0.267 OA
ATOM     12  N   UNL d   1     -41.123-123.817 -48.691  0.00  0.00    -0.121 N 
ATOM     13  C   UNL d   1     -41.123-123.817 -52.979  0.00  0.00     0.019 C 
ENDROOT
BRANCH   7  14
ATOM     14  C   UNL d   1     -43.236-122.518 -50.108  0.00  0.00     0.001 A 
ATOM     15  C   UNL d   1     -43.960-122.919 -50.080  0.00  0.00     0.001 A 
ATOM     16  C   UNL d   1     -44.660-122.487 -50.078  0.00  0.00     0.011 A 
ATOM     17  C   UNL d   1     -44.643-121.663 -50.104  0.00  0.00     0.058 A 
ATOM     18  C   UNL d   1     -43.916-121.263 -50.132  0.00  0.00     0.011 A 
ATOM     19 CL   UNL d   1     -45.344-121.232 -50.103  0.00  0.00    -0.082 Cl
ATOM     20  C   UNL d   1     -43.214-121.694 -50.134  0.00  0.00     0.001 A 
ENDBRANCH   7  14
BRANCH   3  21
ATOM     21  C   UNL d   1     -42.532-122.951 -48.684  0.00  0.00     0.299 C 
ATOM     22  O   UNL d   1     -43.237-123.306 -48.443  0.00  0.00    -0.259 OA
BRANCH  21  23
ATOM     23  O   UNL d   1     -42.176-122.381 -48.205  0.00  0.00    -0.296 OA
ATOM     24  C   UNL d   1     -42.261-122.416 -47.385  0.00  0.00     0.185 C 
ENDBRANCH  21  23
ENDBRANCH   3  21
BRANCH   5  25
ATOM     25  C   UNL d   1     -42.540-122.945 -52.972  0.00  0.00     0.108 C 
BRANCH  25  26
ATOM     26  C   UNL d   1     -42.233-122.320 -53.410  0.00  0.00     0.118 A 
ATOM     27  O   UNL d   1     -41.436-122.092 -53.445  0.00  0.00    -0.304 OA
ATOM     28  C   UNL d   1     -41.375-121.440 -53.950  0.00  0.00     0.123 A 
ATOM     29  C   UNL d   1     -42.130-121.260 -54.230  0.00  0.00     0.029 A 
ATOM     30  C   UNL d   1     -42.660-121.801 -53.899  0.00  0.00     0.028 A 
ENDBRANCH  25  26
ENDBRANCH   5  25
TORSDOF 5
ENDMDL
