MODEL 1
REMARK VINA RESULT:      -3.3      0.000      0.000
REMARK  5 active torsions:
REMARK  status: ('A' for Active; 'I' for Inactive)
REMARK    1  A    between atoms: C_5  and  C_18 
REMARK       I    between atoms: N_9  and  C_5 
REMARK    2  A    between atoms: S_12  and  C_6 
REMARK    3  A    between atoms: C_15  and  C_7 
REMARK    4  A    between atoms: C_10  and  N_9 
REMARK    5  A    between atoms: C_18  and  S_12 
ROOT
ATOM      1  C   UNL d   1      57.347  -0.553  30.666  0.00  0.00     0.099 C 
ENDROOT
BRANCH   1   2
ATOM      2  C   UNL d   1      57.042  -0.210  31.362  0.00  0.00     0.286 C 
ATOM      3  N   UNL d   1      56.747  -0.687  31.955  0.00  0.00    -0.207 NA
ATOM      4  O   UNL d   1      57.039   0.602  31.445  0.00  0.00    -0.265 OA
BRANCH   3   5
ATOM      5  C   UNL d   1      56.450  -0.351  32.632  0.00  0.00     0.087 A 
ATOM      6  C   UNL d   1      55.645  -0.410  32.801  0.00  0.00     0.046 A 
ATOM      7  C   UNL d   1      55.340  -0.071  33.486  0.00  0.00     0.124 A 
ATOM      8  O   UNL d   1      54.542  -0.123  33.665  0.00  0.00    -0.301 OA
ATOM      9  C   UNL d   1      55.855   0.333  34.008  0.00  0.00     0.123 A 
ATOM     10  C   UNL d   1      54.248   0.224  34.359  0.00  0.00     0.149 A 
ATOM     11  C   UNL d   1      54.761   0.623  34.873  0.00  0.00     0.149 A 
ATOM     12  O   UNL d   1      55.565   0.675  34.694  0.00  0.00    -0.301 OA
ATOM     13  C   UNL d   1      56.658   0.381  33.822  0.00  0.00     0.028 A 
ATOM     14  C   UNL d   1      56.947   0.045  33.146  0.00  0.00     0.021 A 
ENDBRANCH   3   5
ENDBRANCH   1   2
BRANCH   1  15
ATOM     15  S   UNL d   1      58.144  -0.467  30.477  0.00  0.00    -0.061 SA
BRANCH  15  16
ATOM     16  C   UNL d   1      58.555  -1.089  30.144  0.00  0.00     0.133 A 
ATOM     17  N   UNL d   1      58.183  -1.814  30.026  0.00  0.00    -0.141 NA
ATOM     18  N   UNL d   1      58.595  -2.443  29.690  0.00  0.00    -0.148 NA
ATOM     19  C   UNL d   1      59.386  -2.345  29.470  0.00  0.00     0.103 A 
ATOM     20  C   UNL d   1      59.762  -1.626  29.583  0.00  0.00     0.023 A 
ATOM     21  C   UNL d   1      59.355  -0.996  29.918  0.00  0.00     0.029 A 
BRANCH  19  22
ATOM     22  C   UNL d   1      59.798  -2.975  29.133  0.00  0.00     0.019 A 
ATOM     23  C   UNL d   1      59.409  -3.695  28.984  0.00  0.00     0.002 A 
ATOM     24  C   UNL d   1      59.824  -4.328  28.645  0.00  0.00     0.000 A 
ATOM     25  C   UNL d   1      60.628  -4.245  28.455  0.00  0.00     0.000 A 
ATOM     26  C   UNL d   1      61.009  -3.539  28.602  0.00  0.00     0.000 A 
ATOM     27  C   UNL d   1      60.605  -2.899  28.940  0.00  0.00     0.002 A 
ENDBRANCH  19  22
ENDBRANCH  15  16
ENDBRANCH   1  15
TORSDOF 5
ENDMDL
MODEL 2
REMARK VINA RESULT:      -2.0      1.693      6.539
REMARK  5 active torsions:
REMARK  status: ('A' for Active; 'I' for Inactive)
REMARK    1  A    between atoms: C_5  and  C_18 
REMARK       I    between atoms: N_9  and  C_5 
REMARK    2  A    between atoms: S_12  and  C_6 
REMARK    3  A    between atoms: C_15  and  C_7 
REMARK    4  A    between atoms: C_10  and  N_9 
REMARK    5  A    between atoms: C_18  and  S_12 
ROOT
ATOM      1  C   UNL d   1      57.104  -0.513  31.123  0.00  0.00     0.099 C 
ENDROOT
BRANCH   1   2
ATOM      2  C   UNL d   1      57.735  -0.747  30.630  0.00  0.00     0.286 C 
ATOM      3  N   UNL d   1      57.835  -1.536  30.444  0.00  0.00    -0.207 NA
ATOM      4  O   UNL d   1      58.248  -0.185  30.336  0.00  0.00    -0.265 OA
BRANCH   3   5
ATOM      5  C   UNL d   1      58.450  -1.761  29.964  0.00  0.00     0.087 A 
ATOM      6  C   UNL d   1      58.674  -2.554  29.929  0.00  0.00     0.046 A 
ATOM      7  C   UNL d   1      59.297  -2.786  29.443  0.00  0.00     0.124 A 
ATOM      8  O   UNL d   1      59.530  -3.571  29.400  0.00  0.00    -0.301 OA
ATOM      9  C   UNL d   1      59.698  -2.210  28.986  0.00  0.00     0.123 A 
ATOM     10  C   UNL d   1      60.159  -3.792  28.906  0.00  0.00     0.149 A 
ATOM     11  C   UNL d   1      60.553  -3.218  28.455  0.00  0.00     0.149 A 
ATOM     12  O   UNL d   1      60.320  -2.428  28.498  0.00  0.00    -0.301 OA
ATOM     13  C   UNL d   1      59.458  -1.422  29.035  0.00  0.00     0.028 A 
ATOM     14  C   UNL d   1      58.846  -1.205  29.515  0.00  0.00     0.021 A 
ENDBRANCH   3   5
ENDBRANCH   1   2
BRANCH   1  15
ATOM     15  S   UNL d   1      57.255  -0.206  31.871  0.00  0.00    -0.061 SA
BRANCH  15  16
ATOM     16  C   UNL d   1      56.640  -0.061  32.387  0.00  0.00     0.133 A 
ATOM     17  N   UNL d   1      56.089   0.527  32.219  0.00  0.00    -0.141 NA
ATOM     18  N   UNL d   1      55.466   0.676  32.737  0.00  0.00    -0.148 NA
ATOM     19  C   UNL d   1      55.395   0.230  33.430  0.00  0.00     0.103 A 
ATOM     20  C   UNL d   1      55.939  -0.357  33.604  0.00  0.00     0.023 A 
ATOM     21  C   UNL d   1      56.561  -0.508  33.090  0.00  0.00     0.029 A 
BRANCH  19  22
ATOM     22  C   UNL d   1      54.771   0.379  33.949  0.00  0.00     0.019 A 
ATOM     23  C   UNL d   1      54.922   0.504  34.757  0.00  0.00     0.002 A 
ATOM     24  C   UNL d   1      54.294   0.654  35.277  0.00  0.00     0.000 A 
ATOM     25  C   UNL d   1      53.514   0.679  34.995  0.00  0.00     0.000 A 
ATOM     26  C   UNL d   1      53.367   0.556  34.201  0.00  0.00     0.000 A 
ATOM     27  C   UNL d   1      53.986   0.406  33.671  0.00  0.00     0.002 A 
ENDBRANCH  19  22
ENDBRANCH  15  16
ENDBRANCH   1  15
TORSDOF 5
ENDMDL
