MODEL 1
REMARK VINA RESULT:       1.3      0.000      0.000
REMARK  1 active torsions:
REMARK  status: ('A' for Active; 'I' for Inactive)
REMARK    1  A    between atoms: C_4  and  C_1 
ROOT
ATOM      1  C   UNL d   1      24.630  12.562  -2.730  0.00  0.00     0.164 A 
ATOM      2  O   UNL d   1      24.549  11.920  -2.218  0.00  0.00    -0.301 OA
ATOM      3  C   UNL d   1      24.645  13.250  -2.279  0.00  0.00     0.033 A 
ATOM      4  C   UNL d   1      24.513  12.214  -1.448  0.00  0.00     0.100 A 
ATOM      5  C   UNL d   1      24.572  13.040  -1.486  0.00  0.00     0.025 A 
ATOM      6  C   UNL d   1      24.434  11.843  -0.717  0.00  0.00     0.025 A 
ATOM      7  C   UNL d   1      24.552  13.490  -0.793  0.00  0.00     0.002 A 
ATOM      8  C   UNL d   1      24.472  13.114  -0.054  0.00  0.00     0.000 A 
ATOM      9  C   UNL d   1      24.413  12.292  -0.016  0.00  0.00     0.002 A 
ENDROOT
BRANCH   1  10
ATOM     10  C   UNL d   1      24.687  12.511  -3.547  0.00  0.00     0.235 C 
ATOM     11  O   UNL d   1      24.661  13.210  -4.000  0.00  0.00    -0.642 OA
ATOM     12  O   UNL d   1      24.768  11.779  -3.920  0.00  0.00    -0.642 OA
ENDBRANCH   1  10
TORSDOF 1
ENDMDL
