MODEL 1
REMARK VINA RESULT:      -6.4      0.000      0.000
REMARK  2 active torsions:
REMARK  status: ('A' for Active; 'I' for Inactive)
REMARK    1  A    between atoms: S_2  and  N_1 
REMARK    2  A    between atoms: C_10  and  S_2 
ROOT
ATOM      1  S   UNL d   1     -41.532-122.513 -52.824  0.00  0.00     0.273 S 
ATOM      2  O   UNL d   1     -41.864-123.265 -52.888  0.00  0.00    -0.200 OA
ATOM      3  O   UNL d   1     -41.201-121.760 -52.769  0.00  0.00    -0.200 OA
ENDROOT
BRANCH   1   4
ATOM      4  N   UNL d   1     -41.667-122.380 -53.627  0.00  0.00    -0.207 N 
ATOM      5  C   UNL d   1     -41.141-122.760 -54.137  0.00  0.00     0.148 A 
ATOM      6  N   UNL d   1     -41.123-122.742 -54.968  0.00  0.00    -0.198 NA
ATOM      7  C   UNL d   1     -41.618-122.348 -55.477  0.00  0.00     0.066 A 
ATOM      8  C   UNL d   1     -41.759-122.283 -54.353  0.00  0.00     0.169 A 
ATOM      9  C   UNL d   1     -42.263-121.865 -55.303  0.00  0.00     0.066 A 
ATOM     10  N   UNL d   1     -42.569-121.662 -54.562  0.00  0.00    -0.198 NA
ATOM     11  C   UNL d   1     -42.301-121.892 -53.820  0.00  0.00     0.148 A 
ENDBRANCH   1   4
BRANCH   1  12
ATOM     12  C   UNL d   1     -41.395-122.641 -52.022  0.00  0.00     0.104 A 
ATOM     13  C   UNL d   1     -41.365-122.002 -51.500  0.00  0.00     0.013 A 
ATOM     14  C   UNL d   1     -41.229-122.131 -50.698  0.00  0.00     0.001 A 
ATOM     15  C   UNL d   1     -41.123-122.898 -50.416  0.00  0.00     0.000 A 
ATOM     16  C   UNL d   1     -41.152-123.538 -50.936  0.00  0.00     0.001 A 
ATOM     17  C   UNL d   1     -41.289-123.409 -51.739  0.00  0.00     0.013 A 
ENDBRANCH   1  12
TORSDOF 2
ENDMDL
MODEL 2
REMARK VINA RESULT:      -5.9      1.036      3.413
REMARK  2 active torsions:
REMARK  status: ('A' for Active; 'I' for Inactive)
REMARK    1  A    between atoms: S_2  and  N_1 
REMARK    2  A    between atoms: C_10  and  S_2 
ROOT
ATOM      1  S   UNL d   1     -41.577-122.557 -53.140  0.00  0.00     0.273 S 
ATOM      2  O   UNL d   1     -42.032-123.242 -53.210  0.00  0.00    -0.200 OA
ATOM      3  O   UNL d   1     -41.123-121.874 -53.062  0.00  0.00    -0.200 OA
ENDROOT
BRANCH   1   4
ATOM      4  N   UNL d   1     -41.454-122.715 -52.340  0.00  0.00    -0.207 N 
ATOM      5  C   UNL d   1     -41.519-122.061 -51.841  0.00  0.00     0.148 A 
ATOM      6  N   UNL d   1     -41.428-122.031 -51.015  0.00  0.00    -0.198 NA
ATOM      7  C   UNL d   1     -41.254-122.637 -50.502  0.00  0.00     0.066 A 
ATOM      8  C   UNL d   1     -41.349-122.822 -51.618  0.00  0.00     0.169 A 
ATOM      9  C   UNL d   1     -41.123-123.433 -50.666  0.00  0.00     0.066 A 
ATOM     10  N   UNL d   1     -41.136-123.817 -51.398  0.00  0.00    -0.198 NA
ATOM     11  C   UNL d   1     -41.283-123.495 -52.140  0.00  0.00     0.148 A 
ENDBRANCH   1   4
BRANCH   1  12
ATOM     12  C   UNL d   1     -41.699-122.395 -53.939  0.00  0.00     0.104 A 
ATOM     13  C   UNL d   1     -41.155-122.660 -54.501  0.00  0.00     0.013 A 
ATOM     14  C   UNL d   1     -41.277-122.498 -55.300  0.00  0.00     0.001 A 
ATOM     15  C   UNL d   1     -41.941-122.072 -55.538  0.00  0.00     0.000 A 
ATOM     16  C   UNL d   1     -42.485-121.807 -54.977  0.00  0.00     0.001 A 
ATOM     17  C   UNL d   1     -42.364-121.969 -54.178  0.00  0.00     0.013 A 
ENDBRANCH   1  12
TORSDOF 2
ENDMDL
MODEL 3
REMARK VINA RESULT:      -5.3      1.850      2.689
REMARK  2 active torsions:
REMARK  status: ('A' for Active; 'I' for Inactive)
REMARK    1  A    between atoms: S_2  and  N_1 
REMARK    2  A    between atoms: C_10  and  S_2 
ROOT
ATOM      1  S   UNL d   1     -41.796-122.982 -50.471  0.00  0.00     0.273 S 
ATOM      2  O   UNL d   1     -42.467-122.513 -50.573  0.00  0.00    -0.200 OA
ATOM      3  O   UNL d   1     -41.124-123.450 -50.377  0.00  0.00    -0.200 OA
ENDROOT
BRANCH   1   4
ATOM      4  N   UNL d   1     -41.610-122.898 -51.270  0.00  0.00    -0.207 N 
ATOM      5  C   UNL d   1     -41.390-122.137 -51.499  0.00  0.00     0.148 A 
ATOM      6  N   UNL d   1     -41.172-121.868 -52.255  0.00  0.00    -0.198 NA
ATOM      7  C   UNL d   1     -41.123-122.289 -52.948  0.00  0.00     0.066 A 
ATOM      8  C   UNL d   1     -41.438-122.789 -51.979  0.00  0.00     0.169 A 
ATOM      9  C   UNL d   1     -41.275-123.088 -53.081  0.00  0.00     0.066 A 
ATOM     10  N   UNL d   1     -41.518-123.663 -52.539  0.00  0.00    -0.198 NA
ATOM     11  C   UNL d   1     -41.666-123.576 -51.736  0.00  0.00     0.148 A 
ENDBRANCH   1   4
BRANCH   1  12
ATOM     12  C   UNL d   1     -41.978-123.069 -49.672  0.00  0.00     0.104 A 
ATOM     13  C   UNL d   1     -41.382-123.240 -49.128  0.00  0.00     0.013 A 
ATOM     14  C   UNL d   1     -41.564-123.326 -48.329  0.00  0.00     0.001 A 
ATOM     15  C   UNL d   1     -42.343-123.241 -48.073  0.00  0.00     0.000 A 
ATOM     16  C   UNL d   1     -42.941-123.070 -48.616  0.00  0.00     0.001 A 
ATOM     17  C   UNL d   1     -42.758-122.984 -49.415  0.00  0.00     0.013 A 
ENDBRANCH   1  12
TORSDOF 2
ENDMDL
MODEL 4
REMARK VINA RESULT:      -5.0      2.427      4.303
REMARK  2 active torsions:
REMARK  status: ('A' for Active; 'I' for Inactive)
REMARK    1  A    between atoms: S_2  and  N_1 
REMARK    2  A    between atoms: C_10  and  S_2 
ROOT
ATOM      1  S   UNL d   1     -41.651-122.957 -50.737  0.00  0.00     0.273 S 
ATOM      2  O   UNL d   1     -41.231-122.264 -50.579  0.00  0.00    -0.200 OA
ATOM      3  O   UNL d   1     -42.073-123.649 -50.886  0.00  0.00    -0.200 OA
ENDROOT
BRANCH   1   4
ATOM      4  N   UNL d   1     -41.830-123.036 -49.935  0.00  0.00    -0.207 N 
ATOM      5  C   UNL d   1     -42.595-122.812 -49.724  0.00  0.00     0.148 A 
ATOM      6  N   UNL d   1     -42.948-122.824 -48.971  0.00  0.00    -0.198 NA
ATOM      7  C   UNL d   1     -42.623-123.057 -48.264  0.00  0.00     0.066 A 
ATOM      8  C   UNL d   1     -42.022-123.094 -49.225  0.00  0.00     0.169 A 
ATOM      9  C   UNL d   1     -41.866-123.342 -48.110  0.00  0.00     0.066 A 
ATOM     10  N   UNL d   1     -41.243-123.462 -48.640  0.00  0.00    -0.198 NA
ATOM     11  C   UNL d   1     -41.230-123.325 -49.450  0.00  0.00     0.148 A 
ENDBRANCH   1   4
BRANCH   1  12
ATOM     12  C   UNL d   1     -41.475-122.881 -51.538  0.00  0.00     0.104 A 
ATOM     13  C   UNL d   1     -41.299-123.550 -51.987  0.00  0.00     0.013 A 
ATOM     14  C   UNL d   1     -41.123-123.474 -52.789  0.00  0.00     0.001 A 
ATOM     15  C   UNL d   1     -41.123-122.729 -53.142  0.00  0.00     0.000 A 
ATOM     16  C   UNL d   1     -41.299-122.059 -52.694  0.00  0.00     0.001 A 
ATOM     17  C   UNL d   1     -41.475-122.135 -51.892  0.00  0.00     0.013 A 
ENDBRANCH   1  12
TORSDOF 2
ENDMDL
