MODEL 1
REMARK VINA RESULT:      -0.4      0.000      0.000
REMARK  5 active torsions:
REMARK  status: ('A' for Active; 'I' for Inactive)
REMARK    1  A    between atoms: O_4  and  C_1 
REMARK    2  A    between atoms: C_11  and  C_2 
REMARK    3  A    between atoms: C_5  and  O_4 
REMARK    4  A    between atoms: C_7  and  C_5 
REMARK    5  A    between atoms: N_10  and  C_11 
ROOT
ATOM      1  C   UNL d   1      32.115  17.549 -23.648  0.00  0.00     0.122 A 
ATOM      2  C   UNL d   1      31.731  17.514 -24.385  0.00  0.00     0.043 A 
ATOM      3  C   UNL d   1      32.494  16.874 -23.345  0.00  0.00     0.105 A 
ATOM      4  C   UNL d   1      32.484  16.164 -23.787  0.00  0.00     0.030 A 
ATOM      5  C   UNL d   1      32.095  16.142 -24.525  0.00  0.00     0.059 A 
ATOM      6  C   UNL d   1      31.722  16.838 -24.807  0.00  0.00     0.015 A 
ATOM      7  N   UNL d   1      32.867  16.905 -22.631  0.00  0.00    -0.242 NA
ATOM      8 CL   UNL d   1      32.086  15.452 -24.954  0.00  0.00    -0.082 Cl
ATOM      9  C   UNL d   1      32.847  15.498 -23.508  0.00  0.00     0.004 A 
ATOM     10  C   UNL d   1      33.241  16.220 -22.342  0.00  0.00     0.099 A 
ATOM     11  C   UNL d   1      33.231  15.543 -22.763  0.00  0.00     0.021 A 
ENDROOT
BRANCH   1  12
ATOM     12  O   UNL d   1      32.125  18.242 -23.216  0.00  0.00    -0.271 OA
BRANCH  12  13
ATOM     13  C   UNL d   1      32.710  18.800 -23.320  0.00  0.00     0.306 C 
ATOM     14  O   UNL d   1      33.183  18.745 -24.004  0.00  0.00    -0.258 OA
BRANCH  13  15
ATOM     15  C   UNL d   1      32.823  19.388 -22.772  0.00  0.00     0.093 A 
ATOM     16  S   UNL d   1      33.179  20.086 -22.913  0.00  0.00    -0.081 SA
ATOM     17  C   UNL d   1      33.179  20.524 -22.203  0.00  0.00     0.036 A 
ATOM     18  C   UNL d   1      32.818  20.075 -21.636  0.00  0.00     0.008 A 
ATOM     19  C   UNL d   1      32.589  19.340 -22.011  0.00  0.00     0.012 A 
ENDBRANCH  13  15
ENDBRANCH  12  13
ENDBRANCH   1  12
BRANCH   2  20
ATOM     20  C   UNL d   1      31.344  18.193 -24.702  0.00  0.00     0.082 C 
BRANCH  20  21
ATOM     21  N   UNL d   1      30.501  18.204 -24.747  0.00  0.00    -0.300 N 
ATOM     22  C   UNL d   1      30.087  17.546 -24.457  0.00  0.00     0.100 A 
ATOM     23  C   UNL d   1      29.267  17.548 -24.496  0.00  0.00     0.100 A 
ATOM     24  N   UNL d   1      28.866  18.202 -24.822  0.00  0.00    -0.299 N 
ATOM     25  C   UNL d   1      29.303  18.825 -25.095  0.00  0.00     0.100 A 
ATOM     26  C   UNL d   1      28.036  18.220 -24.870  0.00  0.00     0.100 C 
ATOM     27  C   UNL d   1      30.111  18.841 -25.064  0.00  0.00     0.100 A 
ENDBRANCH  20  21
ENDBRANCH   2  20
TORSDOF 5
ENDMDL
MODEL 2
REMARK VINA RESULT:       0.8      3.302      5.358
REMARK  5 active torsions:
REMARK  status: ('A' for Active; 'I' for Inactive)
REMARK    1  A    between atoms: O_4  and  C_1 
REMARK    2  A    between atoms: C_11  and  C_2 
REMARK    3  A    between atoms: C_5  and  O_4 
REMARK    4  A    between atoms: C_7  and  C_5 
REMARK    5  A    between atoms: N_10  and  C_11 
ROOT
ATOM      1  C   UNL d   1      33.203  21.058 -22.178  0.00  0.00     0.122 A 
ATOM      2  C   UNL d   1      33.168  21.373 -21.408  0.00  0.00     0.043 A 
ATOM      3  C   UNL d   1      33.204  20.235 -22.290  0.00  0.00     0.105 A 
ATOM      4  C   UNL d   1      33.169  19.729 -21.624  0.00  0.00     0.030 A 
ATOM      5  C   UNL d   1      33.133  20.057 -20.858  0.00  0.00     0.059 A 
ATOM      6  C   UNL d   1      33.134  20.891 -20.774  0.00  0.00     0.015 A 
ATOM      7  N   UNL d   1      33.239  19.927 -23.034  0.00  0.00    -0.242 NA
ATOM      8 CL   UNL d   1      33.099  19.566 -20.212  0.00  0.00    -0.082 Cl
ATOM      9  C   UNL d   1      33.169  18.926 -21.715  0.00  0.00     0.004 A 
ATOM     10  C   UNL d   1      33.239  19.101 -23.129  0.00  0.00     0.099 A 
ATOM     11  C   UNL d   1      33.205  18.619 -22.495  0.00  0.00     0.021 A 
ENDROOT
BRANCH   1  12
ATOM     12  O   UNL d   1      33.238  21.552 -22.828  0.00  0.00    -0.271 OA
BRANCH  12  13
ATOM     13  C   UNL d   1      32.565  21.881 -23.148  0.00  0.00     0.306 C 
ATOM     14  O   UNL d   1      31.830  21.641 -22.839  0.00  0.00    -0.258 OA
BRANCH  13  15
ATOM     15  C   UNL d   1      32.616  22.426 -23.748  0.00  0.00     0.093 A 
ATOM     16  S   UNL d   1      32.598  22.257 -24.526  0.00  0.00    -0.081 SA
ATOM     17  C   UNL d   1      32.666  22.972 -24.947  0.00  0.00     0.036 A 
ATOM     18  C   UNL d   1      32.725  23.572 -24.409  0.00  0.00     0.008 A 
ATOM     19  C   UNL d   1      32.692  23.211 -23.633  0.00  0.00     0.012 A 
ENDBRANCH  13  15
ENDBRANCH  12  13
ENDBRANCH   1  12
BRANCH   2  20
ATOM     20  C   UNL d   1      33.166  22.206 -21.283  0.00  0.00     0.082 C 
BRANCH  20  21
ATOM     21  N   UNL d   1      32.895  22.512 -20.544  0.00  0.00    -0.300 N 
ATOM     22  C   UNL d   1      32.279  23.068 -20.554  0.00  0.00     0.100 A 
ATOM     23  C   UNL d   1      32.010  23.371 -19.839  0.00  0.00     0.100 A 
ATOM     24  N   UNL d   1      32.353  23.119 -19.123  0.00  0.00    -0.299 N 
ATOM     25  C   UNL d   1      32.951  22.575 -19.152  0.00  0.00     0.100 A 
ATOM     26  C   UNL d   1      32.093  23.415 -18.392  0.00  0.00     0.100 C 
ATOM     27  C   UNL d   1      33.230  22.266 -19.846  0.00  0.00     0.100 A 
ENDBRANCH  20  21
ENDBRANCH   2  20
TORSDOF 5
ENDMDL
MODEL 3
REMARK VINA RESULT:       1.9      1.799      3.479
REMARK  5 active torsions:
REMARK  status: ('A' for Active; 'I' for Inactive)
REMARK    1  A    between atoms: O_4  and  C_1 
REMARK    2  A    between atoms: C_11  and  C_2 
REMARK    3  A    between atoms: C_5  and  O_4 
REMARK    4  A    between atoms: C_7  and  C_5 
REMARK    5  A    between atoms: N_10  and  C_11 
ROOT
ATOM      1  C   UNL d   1      31.329  17.431 -23.807  0.00  0.00     0.122 A 
ATOM      2  C   UNL d   1      32.110  17.664 -23.972  0.00  0.00     0.043 A 
ATOM      3  C   UNL d   1      31.186  16.763 -23.334  0.00  0.00     0.105 A 
ATOM      4  C   UNL d   1      31.834  16.331 -23.026  0.00  0.00     0.030 A 
ATOM      5  C   UNL d   1      32.612  16.576 -23.198  0.00  0.00     0.059 A 
ATOM      6  C   UNL d   1      32.727  17.253 -23.679  0.00  0.00     0.015 A 
ATOM      7  N   UNL d   1      30.431  16.534 -23.172  0.00  0.00    -0.242 NA
ATOM      8 CL   UNL d   1      33.241  16.157 -22.900  0.00  0.00    -0.082 Cl
ATOM      9  C   UNL d   1      31.714  15.680 -22.563  0.00  0.00     0.004 A 
ATOM     10  C   UNL d   1      30.305  15.864 -22.696  0.00  0.00     0.099 A 
ATOM     11  C   UNL d   1      30.922  15.453 -22.403  0.00  0.00     0.021 A 
ENDROOT
BRANCH   1  12
ATOM     12  O   UNL d   1      30.697  17.852 -24.108  0.00  0.00    -0.271 OA
BRANCH  12  13
ATOM     13  C   UNL d   1      30.198  17.530 -24.666  0.00  0.00     0.306 C 
ATOM     14  O   UNL d   1      30.470  16.872 -25.097  0.00  0.00    -0.258 OA
BRANCH  13  15
ATOM     15  C   UNL d   1      29.461  17.846 -24.793  0.00  0.00     0.093 A 
ATOM     16  S   UNL d   1      29.298  18.623 -24.859  0.00  0.00    -0.081 SA
ATOM     17  C   UNL d   1      28.479  18.705 -24.986  0.00  0.00     0.036 A 
ATOM     18  C   UNL d   1      28.154  17.965 -24.995  0.00  0.00     0.008 A 
ATOM     19  C   UNL d   1      28.796  17.413 -24.870  0.00  0.00     0.012 A 
ENDBRANCH  13  15
ENDBRANCH  12  13
ENDBRANCH   1  12
BRANCH   2  20
ATOM     20  C   UNL d   1      32.266  18.340 -24.452  0.00  0.00     0.082 C 
BRANCH  20  21
ATOM     21  N   UNL d   1      32.508  19.060 -24.083  0.00  0.00    -0.300 N 
ATOM     22  C   UNL d   1      33.001  19.572 -24.513  0.00  0.00     0.100 A 
ATOM     23  C   UNL d   1      33.241  20.274 -24.162  0.00  0.00     0.100 A 
ATOM     24  N   UNL d   1      32.990  20.463 -23.390  0.00  0.00    -0.299 N 
ATOM     25  C   UNL d   1      32.510  19.940 -23.002  0.00  0.00     0.100 A 
ATOM     26  C   UNL d   1      33.224  21.170 -23.021  0.00  0.00     0.100 C 
ATOM     27  C   UNL d   1      32.264  19.244 -23.331  0.00  0.00     0.100 A 
ENDBRANCH  20  21
ENDBRANCH   2  20
TORSDOF 5
ENDMDL
