MODEL 1
REMARK VINA RESULT:      25.0      0.000      0.000
REMARK  5 active torsions:
REMARK  status: ('A' for Active; 'I' for Inactive)
REMARK    1  A    between atoms: C_11  and  C_1 
REMARK    2  A    between atoms: C_5  and  S_13 
REMARK       I    between atoms: C_12  and  N_14 
REMARK    3  A    between atoms: C_18  and  C_12 
REMARK    4  A    between atoms: S_13  and  C_18 
REMARK    5  A    between atoms: N_14  and  C_19 
ROOT
ATOM      1  C   UNL d   1     -42.080-121.639 -54.193  0.00  0.00     0.024 A 
ATOM      2  C   UNL d   1     -42.289-122.310 -53.760  0.00  0.00     0.004 A 
ATOM      3  C   UNL d   1     -41.720-121.003 -53.834  0.00  0.00     0.004 A 
ATOM      4  C   UNL d   1     -41.761-121.684 -52.580  0.00  0.00     0.085 A 
ATOM      5  C   UNL d   1     -41.560-121.025 -53.024  0.00  0.00     0.019 A 
ATOM      6  C   UNL d   1     -42.128-122.332 -52.949  0.00  0.00     0.019 A 
ENDROOT
BRANCH   4   7
ATOM      7  N   UNL d   1     -41.596-121.695 -51.772  0.00  0.00    -0.208 NA
ATOM      8  C   UNL d   1     -41.292-122.380 -51.427  0.00  0.00     0.286 C 
ATOM      9  O   UNL d   1     -41.156-123.046 -51.887  0.00  0.00    -0.265 OA
BRANCH   8  10
ATOM     10  C   UNL d   1     -41.125-122.395 -50.619  0.00  0.00     0.100 C 
BRANCH  10  11
ATOM     11  S   UNL d   1     -41.700-122.149 -50.076  0.00  0.00    -0.054 SA
BRANCH  11  12
ATOM     12  C   UNL d   1     -42.276-122.680 -49.813  0.00  0.00     0.164 A 
ATOM     13  S   UNL d   1     -42.952-122.485 -49.392  0.00  0.00    -0.039 SA
ATOM     14  C   UNL d   1     -43.370-123.187 -49.244  0.00  0.00     0.134 A 
ATOM     15  C   UNL d   1     -44.089-123.250 -48.834  0.00  0.00     0.030 C 
ATOM     16  N   UNL d   1     -42.945-123.813 -49.577  0.00  0.00    -0.140 NA
ATOM     17  N   UNL d   1     -42.266-123.501 -49.930  0.00  0.00    -0.134 NA
ENDBRANCH  11  12
ENDBRANCH  10  11
ENDBRANCH   8  10
ENDBRANCH   4   7
BRANCH   1  18
ATOM     18  C   UNL d   1     -42.240-121.609 -55.016  0.00  0.00     0.111 A 
ATOM     19  N   UNL d   1     -42.984-121.740 -55.334  0.00  0.00    -0.239 NA
ATOM     20  C   UNL d   1     -42.927-121.665 -56.151  0.00  0.00     0.088 A 
ATOM     21  C   UNL d   1     -43.482-121.735 -56.752  0.00  0.00     0.020 A 
ATOM     22  C   UNL d   1     -42.142-121.487 -56.335  0.00  0.00     0.049 A 
ATOM     23  C   UNL d   1     -43.264-121.629 -57.535  0.00  0.00     0.002 A 
ATOM     24  C   UNL d   1     -42.482-121.451 -57.726  0.00  0.00     0.001 A 
ATOM     25  C   UNL d   1     -41.922-121.381 -57.117  0.00  0.00     0.008 A 
ATOM     26  S   UNL d   1     -41.720-121.453 -55.633  0.00  0.00    -0.066 SA
ENDBRANCH   1  18
TORSDOF 5
ENDMDL
