MODEL 1
REMARK VINA RESULT:      45.7      0.000      0.000
REMARK  4 active torsions:
REMARK  status: ('A' for Active; 'I' for Inactive)
REMARK    1  A    between atoms: C_7  and  N_1 
REMARK    2  A    between atoms: C_10  and  C_5 
REMARK    3  A    between atoms: N_6  and  C_9 
REMARK    4  A    between atoms: O_18  and  C_13 
ROOT
ATOM      1  N   UNL d   1     -54.765-100.884 -43.478  0.00  0.00    -0.279 N 
ATOM      2  C   UNL d   1     -54.737-101.702 -43.583  0.00  0.00     0.206 A 
ATOM      3  N   UNL d   1     -54.736-102.040 -42.852  0.00  0.00    -0.217 NA
ATOM      4  C   UNL d   1     -54.782-100.740 -42.671  0.00  0.00     0.101 A 
ATOM      5  C   UNL d   1     -54.764-101.458 -42.309  0.00  0.00     0.101 A 
ATOM      6  S   UNL d   1     -54.712-102.099 -44.329  0.00  0.00    -0.038 SA
ENDROOT
BRANCH   5   7
ATOM      7  C   UNL d   1     -54.775-101.501 -41.496  0.00  0.00     0.019 A 
ATOM      8  C   UNL d   1     -54.712-100.924 -40.919  0.00  0.00     0.003 A 
ATOM      9  C   UNL d   1     -54.742-101.128 -40.106  0.00  0.00     0.024 A 
ATOM     10  C   UNL d   1     -54.834-101.909 -39.887  0.00  0.00     0.127 A 
ATOM     11  C   UNL d   1     -54.897-102.498 -40.481  0.00  0.00     0.024 A 
ATOM     12  C   UNL d   1     -54.867-102.282 -41.277  0.00  0.00     0.003 A 
BRANCH  10  13
ATOM     13  N   UNL d   1     -54.863-102.112 -39.087  0.00  0.00    -0.114 N 
ATOM     14  O   UNL d   1     -55.040-102.877 -38.864  0.00  0.00    -0.532 OA
ATOM     15  O   UNL d   1     -54.712-101.537 -38.510  0.00  0.00    -0.532 OA
ENDBRANCH  10  13
ENDBRANCH   5   7
BRANCH   1  16
ATOM     16  C   UNL d   1     -54.773-100.363 -44.133  0.00  0.00     0.088 A 
ATOM     17  C   UNL d   1     -54.752 -99.545 -44.019  0.00  0.00     0.110 A 
ATOM     18  C   UNL d   1     -54.759 -99.049 -44.655  0.00  0.00     0.026 A 
ATOM     19  C   UNL d   1     -54.787 -99.345 -45.432  0.00  0.00     0.002 A 
ATOM     20  C   UNL d   1     -54.808-100.162 -45.562  0.00  0.00     0.002 A 
ATOM     21  C   UNL d   1     -54.800-100.672 -44.890  0.00  0.00     0.020 A 
BRANCH  17  22
ATOM     22  O   UNL d   1     -54.724 -99.250 -43.213  0.00  0.00    -0.327 OA
ATOM     23  C   UNL d   1     -55.350 -98.757 -42.953  0.00  0.00     0.181 C 
ENDBRANCH  17  22
ENDBRANCH   1  16
TORSDOF 4
ENDMDL
