MODEL 1
REMARK VINA RESULT:      -7.9      0.000      0.000
REMARK  5 active torsions:
REMARK  status: ('A' for Active; 'I' for Inactive)
REMARK       I    between atoms: C_3  and  N_1 
REMARK    1  A    between atoms: C_5  and  N_1 
REMARK    2  A    between atoms: C_2  and  C_3 
REMARK    3  A    between atoms: N_10  and  C_5 
REMARK    4  A    between atoms: C_13  and  N_10 
REMARK    5  A    between atoms: C_14  and  C_13 
ROOT
ATOM      1  C   UNL d   1      53.272  32.835  53.802  0.00  0.00     0.224 C 
ATOM      2  S   UNL d   1      53.878  33.172  54.251  0.00  0.00    -0.037 SA
ENDROOT
BRANCH   1   3
ATOM      3  N   UNL d   1      53.090  32.037  53.892  0.00  0.00    -0.177 NA
ATOM      4  C   UNL d   1      53.608  31.462  53.596  0.00  0.00     0.304 C 
ATOM      5  O   UNL d   1      54.295  31.684  53.218  0.00  0.00    -0.263 OA
BRANCH   4   6
ATOM      6  C   UNL d   1      53.427  30.665  53.687  0.00  0.00     0.158 A 
ATOM      7  O   UNL d   1      53.584  30.202  54.349  0.00  0.00    -0.296 OA
ATOM      8  C   UNL d   1      53.316  29.448  54.210  0.00  0.00     0.134 A 
ATOM      9 BR   UNL d   1      53.361  28.812  54.724  0.00  0.00    -0.022 Br
ATOM     10  C   UNL d   1      52.987  29.434  53.458  0.00  0.00     0.034 A 
ATOM     11  C   UNL d   1      53.056  30.193  53.130  0.00  0.00     0.032 A 
ENDBRANCH   4   6
ENDBRANCH   1   3
BRANCH   1  12
ATOM     12  N   UNL d   1      52.856  33.300  53.269  0.00  0.00    -0.216 NA
BRANCH  12  13
ATOM     13  C   UNL d   1      52.275  33.802  53.541  0.00  0.00     0.101 C 
BRANCH  13  14
ATOM     14  C   UNL d   1      51.644  33.993  53.053  0.00  0.00     0.019 A 
ATOM     15  C   UNL d   1      51.773  34.197  52.264  0.00  0.00     0.002 A 
ATOM     16  C   UNL d   1      51.134  34.389  51.779  0.00  0.00     0.000 A 
ATOM     17  C   UNL d   1      50.365  34.376  52.082  0.00  0.00     0.000 A 
ATOM     18  C   UNL d   1      50.236  34.172  52.871  0.00  0.00     0.000 A 
ATOM     19  C   UNL d   1      50.875  33.981  53.356  0.00  0.00     0.002 A 
ENDBRANCH  13  14
ENDBRANCH  12  13
ENDBRANCH   1  12
TORSDOF 5
ENDMDL
MODEL 2
REMARK VINA RESULT:      -7.5      2.750      4.535
REMARK  5 active torsions:
REMARK  status: ('A' for Active; 'I' for Inactive)
REMARK       I    between atoms: C_3  and  N_1 
REMARK    1  A    between atoms: C_5  and  N_1 
REMARK    2  A    between atoms: C_2  and  C_3 
REMARK    3  A    between atoms: N_10  and  C_5 
REMARK    4  A    between atoms: C_13  and  N_10 
REMARK    5  A    between atoms: C_14  and  C_13 
ROOT
ATOM      1  C   UNL d   1      52.345  32.803  53.142  0.00  0.00     0.224 C 
ATOM      2  S   UNL d   1      52.389  32.061  52.780  0.00  0.00    -0.037 SA
ENDROOT
BRANCH   1   3
ATOM      3  N   UNL d   1      51.629  33.209  53.155  0.00  0.00    -0.177 NA
ATOM      4  C   UNL d   1      51.421  33.695  52.517  0.00  0.00     0.304 C 
ATOM      5  O   UNL d   1      51.923  33.771  51.879  0.00  0.00    -0.263 OA
BRANCH   4   6
ATOM      6  C   UNL d   1      50.706  34.101  52.530  0.00  0.00     0.158 A 
ATOM      7  O   UNL d   1      50.165  34.154  51.913  0.00  0.00    -0.296 OA
ATOM      8  C   UNL d   1      49.534  34.605  52.155  0.00  0.00     0.134 A 
ATOM      9 BR   UNL d   1      48.873  34.796  51.713  0.00  0.00    -0.022 Br
ATOM     10  C   UNL d   1      49.678  34.839  52.929  0.00  0.00     0.034 A 
ATOM     11  C   UNL d   1      50.409  34.525  53.164  0.00  0.00     0.032 A 
ENDBRANCH   4   6
ENDBRANCH   1   3
BRANCH   1  12
ATOM     12  N   UNL d   1      53.016  33.127  53.485  0.00  0.00    -0.216 NA
BRANCH  12  13
ATOM     13  C   UNL d   1      53.484  32.667  53.967  0.00  0.00     0.101 C 
BRANCH  13  14
ATOM     14  C   UNL d   1      54.089  33.016  54.397  0.00  0.00     0.019 A 
ATOM     15  C   UNL d   1      54.766  33.293  54.016  0.00  0.00     0.002 A 
ATOM     16  C   UNL d   1      55.371  33.643  54.454  0.00  0.00     0.000 A 
ATOM     17  C   UNL d   1      55.299  33.716  55.274  0.00  0.00     0.000 A 
ATOM     18  C   UNL d   1      54.622  33.440  55.656  0.00  0.00     0.000 A 
ATOM     19  C   UNL d   1      54.017  33.090  55.217  0.00  0.00     0.002 A 
ENDBRANCH  13  14
ENDBRANCH  12  13
ENDBRANCH   1  12
TORSDOF 5
ENDMDL
MODEL 3
REMARK VINA RESULT:      -7.4      2.001      4.388
REMARK  5 active torsions:
REMARK  status: ('A' for Active; 'I' for Inactive)
REMARK       I    between atoms: C_3  and  N_1 
REMARK    1  A    between atoms: C_5  and  N_1 
REMARK    2  A    between atoms: C_2  and  C_3 
REMARK    3  A    between atoms: N_10  and  C_5 
REMARK    4  A    between atoms: C_13  and  N_10 
REMARK    5  A    between atoms: C_14  and  C_13 
ROOT
ATOM      1  C   UNL d   1      53.460  32.548  53.553  0.00  0.00     0.224 C 
ATOM      2  S   UNL d   1      54.170  32.957  53.671  0.00  0.00    -0.037 SA
ENDROOT
BRANCH   1   3
ATOM      3  N   UNL d   1      52.851  32.900  53.126  0.00  0.00    -0.177 NA
ATOM      4  C   UNL d   1      52.410  33.511  53.469  0.00  0.00     0.304 C 
ATOM      5  O   UNL d   1      52.577  33.763  54.226  0.00  0.00    -0.263 OA
BRANCH   4   6
ATOM      6  C   UNL d   1      51.801  33.864  53.043  0.00  0.00     0.158 A 
ATOM      7  O   UNL d   1      51.014  33.924  53.277  0.00  0.00    -0.296 OA
ATOM      8  C   UNL d   1      50.598  34.310  52.696  0.00  0.00     0.134 A 
ATOM      9 BR   UNL d   1      49.798  34.486  52.705  0.00  0.00    -0.022 Br
ATOM     10  C   UNL d   1      51.123  34.494  52.092  0.00  0.00     0.034 A 
ATOM     11  C   UNL d   1      51.874  34.216  52.308  0.00  0.00     0.032 A 
ENDBRANCH   4   6
ENDBRANCH   1   3
BRANCH   1  12
ATOM     12  N   UNL d   1      53.372  31.793  53.863  0.00  0.00    -0.216 NA
BRANCH  12  13
ATOM     13  C   UNL d   1      53.684  31.156  53.465  0.00  0.00     0.101 C 
BRANCH  13  14
ATOM     14  C   UNL d   1      53.429  30.398  53.650  0.00  0.00     0.019 A 
ATOM     15  C   UNL d   1      53.703  30.020  54.330  0.00  0.00     0.002 A 
ATOM     16  C   UNL d   1      53.443  29.258  54.510  0.00  0.00     0.000 A 
ATOM     17  C   UNL d   1      52.908  28.874  54.010  0.00  0.00     0.000 A 
ATOM     18  C   UNL d   1      52.634  29.252  53.330  0.00  0.00     0.000 A 
ATOM     19  C   UNL d   1      52.894  30.014  53.150  0.00  0.00     0.002 A 
ENDBRANCH  13  14
ENDBRANCH  12  13
ENDBRANCH   1  12
TORSDOF 5
ENDMDL
MODEL 4
REMARK VINA RESULT:      -7.1      2.631      4.728
REMARK  5 active torsions:
REMARK  status: ('A' for Active; 'I' for Inactive)
REMARK       I    between atoms: C_3  and  N_1 
REMARK    1  A    between atoms: C_5  and  N_1 
REMARK    2  A    between atoms: C_2  and  C_3 
REMARK    3  A    between atoms: N_10  and  C_5 
REMARK    4  A    between atoms: C_13  and  N_10 
REMARK    5  A    between atoms: C_14  and  C_13 
ROOT
ATOM      1  C   UNL d   1      52.102  33.578  52.946  0.00  0.00     0.224 C 
ATOM      2  S   UNL d   1      52.655  34.178  53.084  0.00  0.00    -0.037 SA
ENDROOT
BRANCH   1   3
ATOM      3  N   UNL d   1      51.403  33.750  52.549  0.00  0.00    -0.177 NA
ATOM      4  C   UNL d   1      50.870  34.296  52.873  0.00  0.00     0.304 C 
ATOM      5  O   UNL d   1      51.038  34.662  53.582  0.00  0.00    -0.263 OA
BRANCH   4   6
ATOM      6  C   UNL d   1      50.170  34.467  52.476  0.00  0.00     0.158 A 
ATOM      7  O   UNL d   1      50.006  34.303  51.687  0.00  0.00    -0.296 OA
ATOM      8  C   UNL d   1      49.255  34.562  51.517  0.00  0.00     0.134 A 
ATOM      9 BR   UNL d   1      48.872  34.508  50.795  0.00  0.00    -0.022 Br
ATOM     10  C   UNL d   1      48.943  34.892  52.201  0.00  0.00     0.034 A 
ATOM     11  C   UNL d   1      49.514  34.833  52.801  0.00  0.00     0.032 A 
ENDBRANCH   4   6
ENDBRANCH   1   3
BRANCH   1  12
ATOM     12  N   UNL d   1      52.259  32.816  53.208  0.00  0.00    -0.216 NA
BRANCH  12  13
ATOM     13  C   UNL d   1      52.927  32.431  52.948  0.00  0.00     0.101 C 
BRANCH  13  14
ATOM     14  C   UNL d   1      53.048  31.646  53.155  0.00  0.00     0.019 A 
ATOM     15  C   UNL d   1      52.616  31.046  52.789  0.00  0.00     0.002 A 
ATOM     16  C   UNL d   1      52.742  30.259  53.001  0.00  0.00     0.000 A 
ATOM     17  C   UNL d   1      53.303  30.072  53.580  0.00  0.00     0.000 A 
ATOM     18  C   UNL d   1      53.736  30.671  53.945  0.00  0.00     0.000 A 
ATOM     19  C   UNL d   1      53.609  31.458  53.733  0.00  0.00     0.002 A 
ENDBRANCH  13  14
ENDBRANCH  12  13
ENDBRANCH   1  12
TORSDOF 5
ENDMDL
MODEL 5
REMARK VINA RESULT:      -6.5      2.053      2.663
REMARK  5 active torsions:
REMARK  status: ('A' for Active; 'I' for Inactive)
REMARK       I    between atoms: C_3  and  N_1 
REMARK    1  A    between atoms: C_5  and  N_1 
REMARK    2  A    between atoms: C_2  and  C_3 
REMARK    3  A    between atoms: N_10  and  C_5 
REMARK    4  A    between atoms: C_13  and  N_10 
REMARK    5  A    between atoms: C_14  and  C_13 
ROOT
ATOM      1  C   UNL d   1      52.403  32.670  53.092  0.00  0.00     0.224 C 
ATOM      2  S   UNL d   1      52.572  31.950  52.720  0.00  0.00    -0.037 SA
ENDROOT
BRANCH   1   3
ATOM      3  N   UNL d   1      52.974  33.030  53.562  0.00  0.00    -0.177 NA
ATOM      4  C   UNL d   1      53.464  32.565  54.042  0.00  0.00     0.304 C 
ATOM      5  O   UNL d   1      53.381  31.754  54.050  0.00  0.00    -0.263 OA
BRANCH   4   6
ATOM      6  C   UNL d   1      54.035  32.926  54.512  0.00  0.00     0.158 A 
ATOM      7  O   UNL d   1      54.664  33.385  54.247  0.00  0.00    -0.296 OA
ATOM      8  C   UNL d   1      55.095  33.634  54.890  0.00  0.00     0.134 A 
ATOM      9 BR   UNL d   1      55.766  34.103  54.875  0.00  0.00    -0.022 Br
ATOM     10  C   UNL d   1      54.736  33.332  55.563  0.00  0.00     0.034 A 
ATOM     11  C   UNL d   1      54.074  32.889  55.329  0.00  0.00     0.032 A 
ENDBRANCH   4   6
ENDBRANCH   1   3
BRANCH   1  12
ATOM     12  N   UNL d   1      51.667  33.017  52.987  0.00  0.00    -0.216 NA
BRANCH  12  13
ATOM     13  C   UNL d   1      51.610  33.724  52.588  0.00  0.00     0.101 C 
BRANCH  13  14
ATOM     14  C   UNL d   1      50.872  34.068  52.477  0.00  0.00     0.019 A 
ATOM     15  C   UNL d   1      50.484  34.434  53.106  0.00  0.00     0.002 A 
ATOM     16  C   UNL d   1      49.743  34.778  52.988  0.00  0.00     0.000 A 
ATOM     17  C   UNL d   1      49.391  34.755  52.240  0.00  0.00     0.000 A 
ATOM     18  C   UNL d   1      49.779  34.389  51.612  0.00  0.00     0.000 A 
ATOM     19  C   UNL d   1      50.520  34.045  51.730  0.00  0.00     0.002 A 
ENDBRANCH  13  14
ENDBRANCH  12  13
ENDBRANCH   1  12
TORSDOF 5
ENDMDL
MODEL 6
REMARK VINA RESULT:      -6.4      2.647      3.670
REMARK  5 active torsions:
REMARK  status: ('A' for Active; 'I' for Inactive)
REMARK       I    between atoms: C_3  and  N_1 
REMARK    1  A    between atoms: C_5  and  N_1 
REMARK    2  A    between atoms: C_2  and  C_3 
REMARK    3  A    between atoms: N_10  and  C_5 
REMARK    4  A    between atoms: C_13  and  N_10 
REMARK    5  A    between atoms: C_14  and  C_13 
ROOT
ATOM      1  C   UNL d   1      50.817  34.367  52.768  0.00  0.00     0.224 C 
ATOM      2  S   UNL d   1      50.885  33.996  52.032  0.00  0.00    -0.037 SA
ENDROOT
BRANCH   1   3
ATOM      3  N   UNL d   1      51.367  34.206  53.358  0.00  0.00    -0.177 NA
ATOM      4  C   UNL d   1      52.161  34.418  53.248  0.00  0.00     0.304 C 
ATOM      5  O   UNL d   1      52.397  34.783  52.559  0.00  0.00    -0.263 OA
BRANCH   4   6
ATOM      6  C   UNL d   1      52.711  34.257  53.839  0.00  0.00     0.158 A 
ATOM      7  O   UNL d   1      53.080  33.535  53.977  0.00  0.00    -0.296 OA
ATOM      8  C   UNL d   1      53.582  33.615  54.611  0.00  0.00     0.134 A 
ATOM      9 BR   UNL d   1      54.057  33.031  54.933  0.00  0.00    -0.022 Br
ATOM     10  C   UNL d   1      53.530  34.390  54.875  0.00  0.00     0.034 A 
ATOM     11  C   UNL d   1      52.986  34.792  54.394  0.00  0.00     0.032 A 
ENDBRANCH   4   6
ENDBRANCH   1   3
BRANCH   1  12
ATOM     12  N   UNL d   1      50.201  34.892  52.902  0.00  0.00    -0.216 NA
BRANCH  12  13
ATOM     13  C   UNL d   1      49.449  34.701  52.656  0.00  0.00     0.101 C 
BRANCH  13  14
ATOM     14  C   UNL d   1      48.842  35.246  52.748  0.00  0.00     0.019 A 
ATOM     15  C   UNL d   1      48.746  35.646  53.462  0.00  0.00     0.002 A 
ATOM     16  C   UNL d   1      48.134  36.193  53.548  0.00  0.00     0.000 A 
ATOM     17  C   UNL d   1      47.617  36.338  52.919  0.00  0.00     0.000 A 
ATOM     18  C   UNL d   1      47.714  35.938  52.204  0.00  0.00     0.000 A 
ATOM     19  C   UNL d   1      48.326  35.391  52.118  0.00  0.00     0.002 A 
ENDBRANCH  13  14
ENDBRANCH  12  13
ENDBRANCH   1  12
TORSDOF 5
ENDMDL
