MODEL 1
REMARK VINA RESULT:      19.4      0.000      0.000
REMARK  8 active torsions:
REMARK  status: ('A' for Active; 'I' for Inactive)
REMARK    1  A    between atoms: C_2  and  S_1 
REMARK    2  A    between atoms: N_3  and  S_1 
REMARK    3  A    between atoms: C_17  and  N_3 
REMARK    4  A    between atoms: O_21  and  C_8 
REMARK    5  A    between atoms: O_22  and  C_16 
REMARK    6  A    between atoms: C_18  and  C_17 
REMARK    7  A    between atoms: C_23  and  O_21 
REMARK    8  A    between atoms: C_24  and  O_22 
ROOT
ATOM      1  S   UNL d   1      46.230 -17.797  44.169  0.00  0.00     0.287 S 
ATOM      2  O   UNL d   1      46.321 -18.496  44.591  0.00  0.00    -0.198 OA
ATOM      3  O   UNL d   1      46.160 -17.380  44.897  0.00  0.00    -0.198 OA
ENDROOT
BRANCH   1   4
ATOM      4  C   UNL d   1      46.299 -18.207  43.441  0.00  0.00     0.130 A 
ATOM      5  C   UNL d   1      46.163 -17.814  42.728  0.00  0.00     0.040 A 
ATOM      6  C   UNL d   1      46.233 -18.224  42.022  0.00  0.00     0.101 A 
ATOM      7  C   UNL d   1      46.436 -19.018  42.023  0.00  0.00     0.027 A 
ATOM      8  C   UNL d   1      46.575 -19.425  42.728  0.00  0.00     0.028 A 
ATOM      9  C   UNL d   1      46.502 -19.001  43.441  0.00  0.00     0.112 A 
BRANCH   6  10
ATOM     10  O   UNL d   1      46.091 -17.809  41.294  0.00  0.00    -0.305 OA
BRANCH  10  11
ATOM     11  C   UNL d   1      45.931 -18.226  40.585  0.00  0.00     0.123 C 
ATOM     12  C   UNL d   1      46.404 -18.092  39.927  0.00  0.00     0.029 C 
ENDBRANCH  10  11
ENDBRANCH   6  10
BRANCH   9  13
ATOM     13  O   UNL d   1      46.645 -19.418  44.184  0.00  0.00    -0.304 OA
BRANCH  13  14
ATOM     14  C   UNL d   1      46.318 -20.186  44.297  0.00  0.00     0.123 C 
ATOM     15  C   UNL d   1      45.834 -20.329  44.954  0.00  0.00     0.029 C 
ENDBRANCH  13  14
ENDBRANCH   9  13
ENDBRANCH   1   4
BRANCH   1  16
ATOM     16  N   UNL d   1      46.134 -17.075  43.749  0.00  0.00    -0.157 NA
BRANCH  16  17
ATOM     17  C   UNL d   1      46.481 -16.366  44.040  0.00  0.00     0.112 C 
BRANCH  17  18
ATOM     18  C   UNL d   1      45.982 -15.691  44.179  0.00  0.00     0.022 A 
ATOM     19  C   UNL d   1      46.189 -14.971  43.823  0.00  0.00     0.028 A 
ATOM     20  C   UNL d   1      45.709 -14.311  43.954  0.00  0.00     0.119 A 
ATOM     21  O   UNL d   1      45.769 -13.533  43.681  0.00  0.00    -0.300 OA
ATOM     22  C   UNL d   1      45.041 -14.366  44.426  0.00  0.00     0.119 A 
ATOM     23  C   UNL d   1      45.131 -13.118  43.993  0.00  0.00     0.304 A 
ATOM     24  O   UNL d   1      44.687 -13.622  44.446  0.00  0.00    -0.300 OA
ATOM     25  C   UNL d   1      44.840 -15.082  44.776  0.00  0.00     0.026 A 
ATOM     26  C   UNL d   1      45.314 -15.746  44.651  0.00  0.00     0.004 A 
ENDBRANCH  17  18
ENDBRANCH  16  17
ENDBRANCH   1  16
TORSDOF 8
ENDMDL
