MODEL 1
REMARK VINA RESULT:      -8.4      0.000      0.000
REMARK  1 active torsions:
REMARK  status: ('A' for Active; 'I' for Inactive)
REMARK    1  A    between atoms: C_2  and  C_1 
REMARK       I    between atoms: N_6  and  C_2 
ROOT
ATOM      1  C   UNL d   1     -48.240  13.423  23.017  0.00  0.00     0.057 A 
ATOM      2  C   UNL d   1     -47.506  13.758  22.853  0.00  0.00     0.005 A 
ATOM      3  C   UNL d   1     -46.812  13.314  22.973  0.00  0.00     0.001 A 
ATOM      4  C   UNL d   1     -48.288  12.649  23.298  0.00  0.00     0.011 A 
ATOM      5  C   UNL d   1     -46.864  12.543  23.254  0.00  0.00     0.006 A 
ATOM      6  C   UNL d   1     -47.597  12.207  23.417  0.00  0.00     0.035 A 
ATOM      7 BR   UNL d   1     -47.649  11.436  23.698  0.00  0.00    -0.049 Br
ATOM      8  C   UNL d   1     -47.245  14.489  22.575  0.00  0.00     0.000 C 
ATOM      9  C   UNL d   1     -46.199  13.819  22.755  0.00  0.00     0.000 C 
ATOM     10  C   UNL d   1     -46.175  12.100  23.373  0.00  0.00     0.001 C 
ENDROOT
BRANCH   1  11
ATOM     11  C   UNL d   1     -48.930  13.862  22.899  0.00  0.00     0.265 C 
ATOM     12  N   UNL d   1     -49.470  13.634  22.318  0.00  0.00    -0.272 N 
ATOM     13  C   UNL d   1     -49.398  12.987  21.817  0.00  0.00     0.083 A 
ATOM     14  C   UNL d   1     -50.179  14.018  22.139  0.00  0.00     0.083 A 
ATOM     15  C   UNL d   1     -50.059  12.966  21.326  0.00  0.00     0.021 A 
ATOM     16  C   UNL d   1     -50.543  13.604  21.525  0.00  0.00     0.021 A 
ATOM     17  O   UNL d   1     -49.079  14.528  23.361  0.00  0.00    -0.267 OA
ENDBRANCH   1  11
TORSDOF 1
ENDMDL
MODEL 2
REMARK VINA RESULT:      -8.4      1.150      1.909
REMARK  1 active torsions:
REMARK  status: ('A' for Active; 'I' for Inactive)
REMARK    1  A    between atoms: C_2  and  C_1 
REMARK       I    between atoms: N_6  and  C_2 
ROOT
ATOM      1  C   UNL d   1     -48.399  13.201  22.516  0.00  0.00     0.057 A 
ATOM      2  C   UNL d   1     -48.476  12.478  22.903  0.00  0.00     0.005 A 
ATOM      3  C   UNL d   1     -47.809  12.122  23.253  0.00  0.00     0.001 A 
ATOM      4  C   UNL d   1     -47.663  13.571  22.476  0.00  0.00     0.011 A 
ATOM      5  C   UNL d   1     -47.078  12.496  23.211  0.00  0.00     0.006 A 
ATOM      6  C   UNL d   1     -46.999  13.217  22.825  0.00  0.00     0.035 A 
ATOM      7 BR   UNL d   1     -46.268  13.591  22.782  0.00  0.00    -0.049 Br
ATOM      8  C   UNL d   1     -49.097  11.958  23.052  0.00  0.00     0.000 C 
ATOM      9  C   UNL d   1     -48.093  11.422  23.580  0.00  0.00     0.000 C 
ATOM     10  C   UNL d   1     -46.414  12.143  23.559  0.00  0.00     0.001 C 
ENDROOT
BRANCH   1  11
ATOM     11  C   UNL d   1     -49.059  13.555  22.168  0.00  0.00     0.265 C 
ATOM     12  N   UNL d   1     -49.378  14.242  22.494  0.00  0.00    -0.272 N 
ATOM     13  C   UNL d   1     -49.102  14.636  23.160  0.00  0.00     0.083 A 
ATOM     14  C   UNL d   1     -50.034  14.655  22.207  0.00  0.00     0.083 A 
ATOM     15  C   UNL d   1     -49.582  15.292  23.290  0.00  0.00     0.021 A 
ATOM     16  C   UNL d   1     -50.159  15.305  22.700  0.00  0.00     0.021 A 
ATOM     17  O   UNL d   1     -49.398  13.222  21.495  0.00  0.00    -0.267 OA
ENDBRANCH   1  11
TORSDOF 1
ENDMDL
MODEL 3
REMARK VINA RESULT:      -8.1      1.432      3.354
REMARK  1 active torsions:
REMARK  status: ('A' for Active; 'I' for Inactive)
REMARK    1  A    between atoms: C_2  and  C_1 
REMARK       I    between atoms: N_6  and  C_2 
ROOT
ATOM      1  C   UNL d   1     -48.865  13.253  22.926  0.00  0.00     0.057 A 
ATOM      2  C   UNL d   1     -49.330  12.902  22.345  0.00  0.00     0.005 A 
ATOM      3  C   UNL d   1     -49.980  13.316  22.028  0.00  0.00     0.001 A 
ATOM      4  C   UNL d   1     -49.042  14.014  23.194  0.00  0.00     0.011 A 
ATOM      5  C   UNL d   1     -50.153  14.073  22.298  0.00  0.00     0.006 A 
ATOM      6  C   UNL d   1     -49.689  14.425  22.878  0.00  0.00     0.035 A 
ATOM      7 BR   UNL d   1     -49.861  15.183  23.148  0.00  0.00    -0.049 Br
ATOM      8  C   UNL d   1     -49.328  12.178  21.952  0.00  0.00     0.000 C 
ATOM      9  C   UNL d   1     -50.306  12.801  21.474  0.00  0.00     0.000 C 
ATOM     10  C   UNL d   1     -50.798  14.486  21.983  0.00  0.00     0.001 C 
ENDROOT
BRANCH   1  11
ATOM     11  C   UNL d   1     -48.220  12.845  23.242  0.00  0.00     0.265 C 
ATOM     12  N   UNL d   1     -47.453  13.113  23.101  0.00  0.00    -0.272 N 
ATOM     13  C   UNL d   1     -47.244  13.774  22.660  0.00  0.00     0.083 A 
ATOM     14  C   UNL d   1     -46.758  12.763  23.380  0.00  0.00     0.083 A 
ATOM     15  C   UNL d   1     -46.423  13.838  22.663  0.00  0.00     0.021 A 
ATOM     16  C   UNL d   1     -46.122  13.211  23.109  0.00  0.00     0.021 A 
ATOM     17  O   UNL d   1     -48.343  12.170  23.698  0.00  0.00    -0.267 OA
ENDBRANCH   1  11
TORSDOF 1
ENDMDL
