MODEL 1
REMARK VINA RESULT:      44.3      0.000      0.000
REMARK  5 active torsions:
REMARK  status: ('A' for Active; 'I' for Inactive)
REMARK    1  A    between atoms: C_3  and  C_1 
REMARK    2  A    between atoms: C_2  and  C_3 
REMARK    3  A    between atoms: C_4  and  C_2 
REMARK    4  A    between atoms: C_7  and  C_4 
REMARK    5  A    between atoms: O_14  and  C_8 
ROOT
ATOM      1  C   UNL d   1      59.840  49.529  50.795  0.00  0.00     0.042 C 
ENDROOT
BRANCH   1   2
ATOM      2  C   UNL d   1      60.575  49.226  51.114  0.00  0.00     0.199 C 
ATOM      3  O   UNL d   1      61.024  49.706  51.623  0.00  0.00    -0.286 OA
BRANCH   2   4
ATOM      4  C   UNL d   1      60.817  48.457  50.904  0.00  0.00     0.078 A 
ATOM      5  C   UNL d   1      61.353  48.352  50.291  0.00  0.00     0.199 A 
ATOM      6  O   UNL d   1      61.651  49.019  49.883  0.00  0.00    -0.286 OA
ATOM      7  C   UNL d   1      61.595  47.609  50.079  0.00  0.00     0.042 A 
ATOM      8  C   UNL d   1      61.287  46.940  50.499  0.00  0.00     0.003 A 
ATOM      9  C   UNL d   1      60.770  47.046  51.090  0.00  0.00     0.000 A 
ATOM     10  C   UNL d   1      60.526  47.800  51.305  0.00  0.00     0.006 A 
ENDBRANCH   2   4
ENDBRANCH   1   2
BRANCH   1  11
ATOM     11  C   UNL d   1      59.133  49.460  51.252  0.00  0.00     0.003 C 
BRANCH  11  12
ATOM     12  C   UNL d   1      58.435  49.523  50.849  0.00  0.00     0.000 A 
ATOM     13  C   UNL d   1      58.410  49.628  50.048  0.00  0.00     0.002 A 
ATOM     14  C   UNL d   1      57.682  49.689  49.665  0.00  0.00     0.024 A 
ATOM     15  C   UNL d   1      56.970  49.646  50.079  0.00  0.00     0.094 A 
ATOM     16  C   UNL d   1      56.999  49.538  50.899  0.00  0.00     0.024 A 
ATOM     17  C   UNL d   1      57.726  49.476  51.292  0.00  0.00     0.002 A 
BRANCH  15  18
ATOM     18  O   UNL d   1      56.240  49.708  49.685  0.00  0.00    -0.328 OA
ATOM     19  C   UNL d   1      56.058  49.223  49.040  0.00  0.00     0.181 C 
ENDBRANCH  15  18
ENDBRANCH  11  12
ENDBRANCH   1  11
TORSDOF 5
ENDMDL
