MODEL 1
REMARK VINA RESULT:      -3.0      0.000      0.000
REMARK  3 active torsions:
REMARK  status: ('A' for Active; 'I' for Inactive)
REMARK    1  A    between atoms: N_2  and  S_1 
REMARK    2  A    between atoms: C_4  and  S_1 
REMARK    3  A    between atoms: C_3  and  N_2 
ROOT
ATOM      1  S   UNL d   1      32.947  17.957 -23.576  0.00  0.00     0.285 S 
ATOM      2  O   UNL d   1      32.751  17.674 -22.822  0.00  0.00    -0.198 OA
ATOM      3  O   UNL d   1      33.145  18.242 -24.333  0.00  0.00    -0.198 OA
ENDROOT
BRANCH   1   4
ATOM      4  N   UNL d   1      32.875  17.187 -23.885  0.00  0.00    -0.158 NA
BRANCH   4   5
ATOM      5  C   UNL d   1      32.123  16.867 -24.017  0.00  0.00     0.094 A 
ATOM      6  C   UNL d   1      31.499  17.334 -24.296  0.00  0.00     0.023 A 
ATOM      7  C   UNL d   1      30.761  17.015 -24.425  0.00  0.00     0.041 A 
ATOM      8  C   UNL d   1      30.167  17.509 -24.701  0.00  0.00     0.003 C 
ATOM      9  C   UNL d   1      30.626  16.192 -24.273  0.00  0.00     0.196 A 
ATOM     10  C   UNL d   1      31.251  15.726 -23.995  0.00  0.00     0.044 A 
ATOM     11  O   UNL d   1      29.874  15.872 -24.406  0.00  0.00    -0.287 OA
ATOM     12  C   UNL d   1      31.986  16.066 -23.872  0.00  0.00     0.022 A 
ATOM     13  C   UNL d   1      32.593  15.594 -23.597  0.00  0.00     0.002 C 
ENDBRANCH   4   5
ENDBRANCH   1   4
BRANCH   1  14
ATOM     14  C   UNL d   1      33.020  18.729 -23.270  0.00  0.00     0.105 A 
ATOM     15  C   UNL d   1      33.165  19.347 -23.784  0.00  0.00     0.013 A 
ATOM     16  C   UNL d   1      33.237  20.097 -23.497  0.00  0.00     0.001 A 
ATOM     17  C   UNL d   1      33.165  20.251 -22.668  0.00  0.00     0.000 A 
ATOM     18  C   UNL d   1      33.020  19.625 -22.154  0.00  0.00     0.001 A 
ATOM     19  C   UNL d   1      33.237  21.032 -22.342  0.00  0.00     0.000 C 
ATOM     20  C   UNL d   1      32.947  18.857 -22.459  0.00  0.00     0.013 A 
ENDBRANCH   1  14
TORSDOF 3
ENDMDL
MODEL 2
REMARK VINA RESULT:      -2.9      1.736      4.130
REMARK  3 active torsions:
REMARK  status: ('A' for Active; 'I' for Inactive)
REMARK    1  A    between atoms: N_2  and  S_1 
REMARK    2  A    between atoms: C_4  and  S_1 
REMARK    3  A    between atoms: C_3  and  N_2 
ROOT
ATOM      1  S   UNL d   1      30.833  15.588 -23.824  0.00  0.00     0.285 S 
ATOM      2  O   UNL d   1      30.794  15.622 -24.650  0.00  0.00    -0.198 OA
ATOM      3  O   UNL d   1      30.871  15.553 -22.992  0.00  0.00    -0.198 OA
ENDROOT
BRANCH   1   4
ATOM      4  N   UNL d   1      31.664  15.622 -23.860  0.00  0.00    -0.158 NA
BRANCH   4   5
ATOM      5  C   UNL d   1      32.051  16.347 -23.757  0.00  0.00     0.094 A 
ATOM      6  C   UNL d   1      31.720  17.054 -24.031  0.00  0.00     0.023 A 
ATOM      7  C   UNL d   1      32.103  17.765 -23.928  0.00  0.00     0.041 A 
ATOM      8  C   UNL d   1      31.744  18.445 -24.214  0.00  0.00     0.003 C 
ATOM      9  C   UNL d   1      32.853  17.785 -23.534  0.00  0.00     0.196 A 
ATOM     10  C   UNL d   1      33.183  17.077 -23.260  0.00  0.00     0.044 A 
ATOM     11  O   UNL d   1      33.239  18.511 -23.431  0.00  0.00    -0.287 OA
ATOM     12  C   UNL d   1      32.781  16.372 -23.374  0.00  0.00     0.022 A 
ATOM     13  C   UNL d   1      33.120  15.682 -23.098  0.00  0.00     0.002 C 
ENDBRANCH   4   5
ENDBRANCH   1   4
BRANCH   1  14
ATOM     14  C   UNL d   1      30.001  15.554 -23.783  0.00  0.00     0.105 A 
ATOM     15  C   UNL d   1      29.573  15.489 -24.476  0.00  0.00     0.013 A 
ATOM     16  C   UNL d   1      28.768  15.456 -24.446  0.00  0.00     0.001 A 
ATOM     17  C   UNL d   1      28.361  15.487 -23.706  0.00  0.00     0.000 A 
ATOM     18  C   UNL d   1      28.797  15.553 -23.010  0.00  0.00     0.001 A 
ATOM     19  C   UNL d   1      27.514  15.454 -23.649  0.00  0.00     0.000 C 
ATOM     20  C   UNL d   1      29.625  15.586 -23.051  0.00  0.00     0.013 A 
ENDBRANCH   1  14
TORSDOF 3
ENDMDL
MODEL 3
REMARK VINA RESULT:      -2.8      1.298      1.778
REMARK  3 active torsions:
REMARK  status: ('A' for Active; 'I' for Inactive)
REMARK    1  A    between atoms: N_2  and  S_1 
REMARK    2  A    between atoms: C_4  and  S_1 
REMARK    3  A    between atoms: C_3  and  N_2 
ROOT
ATOM      1  S   UNL d   1      31.717  17.326 -24.234  0.00  0.00     0.285 S 
ATOM      2  O   UNL d   1      31.757  17.260 -23.410  0.00  0.00    -0.198 OA
ATOM      3  O   UNL d   1      31.676  17.394 -25.063  0.00  0.00    -0.198 OA
ENDROOT
BRANCH   1   4
ATOM      4  N   UNL d   1      31.335  16.587 -24.276  0.00  0.00    -0.158 NA
BRANCH   4   5
ATOM      5  C   UNL d   1      30.526  16.533 -24.110  0.00  0.00     0.094 A 
ATOM      6  C   UNL d   1      29.977  17.042 -24.464  0.00  0.00     0.023 A 
ATOM      7  C   UNL d   1      29.183  16.986 -24.298  0.00  0.00     0.041 A 
ATOM      8  C   UNL d   1      28.670  17.508 -24.669  0.00  0.00     0.003 C 
ATOM      9  C   UNL d   1      28.908  16.398 -23.753  0.00  0.00     0.196 A 
ATOM     10  C   UNL d   1      29.456  15.889 -23.399  0.00  0.00     0.044 A 
ATOM     11  O   UNL d   1      28.098  16.344 -23.587  0.00  0.00    -0.287 OA
ATOM     12  C   UNL d   1      30.252  15.962 -23.580  0.00  0.00     0.022 A 
ATOM     13  C   UNL d   1      30.782  15.453 -23.223  0.00  0.00     0.002 C 
ENDBRANCH   4   5
ENDBRANCH   1   4
BRANCH   1  14
ATOM     14  C   UNL d   1      32.099  18.066 -24.196  0.00  0.00     0.105 A 
ATOM     15  C   UNL d   1      32.286  18.378 -23.465  0.00  0.00     0.013 A 
ATOM     16  C   UNL d   1      32.655  19.093 -23.419  0.00  0.00     0.001 A 
ATOM     17  C   UNL d   1      32.852  19.524 -24.119  0.00  0.00     0.000 A 
ATOM     18  C   UNL d   1      32.661  19.206 -24.854  0.00  0.00     0.001 A 
ATOM     19  C   UNL d   1      33.241  20.279 -24.095  0.00  0.00     0.000 C 
ATOM     20  C   UNL d   1      32.281  18.469 -24.891  0.00  0.00     0.013 A 
ENDBRANCH   1  14
TORSDOF 3
ENDMDL
MODEL 4
REMARK VINA RESULT:      -2.6      0.811      1.185
REMARK  3 active torsions:
REMARK  status: ('A' for Active; 'I' for Inactive)
REMARK    1  A    between atoms: N_2  and  S_1 
REMARK    2  A    between atoms: C_4  and  S_1 
REMARK    3  A    between atoms: C_3  and  N_2 
ROOT
ATOM      1  S   UNL d   1      33.217  18.720 -23.034  0.00  0.00     0.285 S 
ATOM      2  O   UNL d   1      33.241  18.224 -22.371  0.00  0.00    -0.198 OA
ATOM      3  O   UNL d   1      33.192  19.220 -23.699  0.00  0.00    -0.198 OA
ENDROOT
BRANCH   1   4
ATOM      4  N   UNL d   1      33.239  18.055 -23.534  0.00  0.00    -0.158 NA
BRANCH   4   5
ATOM      5  C   UNL d   1      32.536  17.665 -23.730  0.00  0.00     0.094 A 
ATOM      6  C   UNL d   1      31.885  18.076 -24.035  0.00  0.00     0.023 A 
ATOM      7  C   UNL d   1      31.196  17.688 -24.226  0.00  0.00     0.041 A 
ATOM      8  C   UNL d   1      30.572  18.129 -24.526  0.00  0.00     0.003 C 
ATOM      9  C   UNL d   1      31.139  16.850 -24.113  0.00  0.00     0.196 A 
ATOM     10  C   UNL d   1      31.789  16.440 -23.808  0.00  0.00     0.044 A 
ATOM     11  O   UNL d   1      30.434  16.460 -24.309  0.00  0.00    -0.287 OA
ATOM     12  C   UNL d   1      32.475  16.849 -23.622  0.00  0.00     0.022 A 
ATOM     13  C   UNL d   1      33.109  16.430 -23.322  0.00  0.00     0.002 C 
ENDBRANCH   4   5
ENDBRANCH   1   4
BRANCH   1  14
ATOM     14  C   UNL d   1      33.194  19.388 -22.535  0.00  0.00     0.105 A 
ATOM     15  C   UNL d   1      33.222  19.280 -21.726  0.00  0.00     0.013 A 
ATOM     16  C   UNL d   1      33.200  19.921 -21.237  0.00  0.00     0.001 A 
ATOM     17  C   UNL d   1      33.150  20.704 -21.553  0.00  0.00     0.000 A 
ATOM     18  C   UNL d   1      33.122  20.808 -22.369  0.00  0.00     0.001 A 
ATOM     19  C   UNL d   1      33.126  21.394 -21.057  0.00  0.00     0.000 C 
ATOM     20  C   UNL d   1      33.145  20.142 -22.864  0.00  0.00     0.013 A 
ENDBRANCH   1  14
TORSDOF 3
ENDMDL
MODEL 5
REMARK VINA RESULT:      -2.6      1.765      4.128
REMARK  3 active torsions:
REMARK  status: ('A' for Active; 'I' for Inactive)
REMARK    1  A    between atoms: N_2  and  S_1 
REMARK    2  A    between atoms: C_4  and  S_1 
REMARK    3  A    between atoms: C_3  and  N_2 
ROOT
ATOM      1  S   UNL d   1      30.962  15.603 -23.914  0.00  0.00     0.285 S 
ATOM      2  O   UNL d   1      30.880  15.517 -24.734  0.00  0.00    -0.198 OA
ATOM      3  O   UNL d   1      31.043  15.689 -23.090  0.00  0.00    -0.198 OA
ENDROOT
BRANCH   1   4
ATOM      4  N   UNL d   1      31.790  15.640 -23.999  0.00  0.00    -0.158 NA
BRANCH   4   5
ATOM      5  C   UNL d   1      32.146  16.347 -24.240  0.00  0.00     0.094 A 
ATOM      6  C   UNL d   1      31.901  17.078 -23.938  0.00  0.00     0.023 A 
ATOM      7  C   UNL d   1      32.254  17.771 -24.177  0.00  0.00     0.041 A 
ATOM      8  C   UNL d   1      31.984  18.476 -23.856  0.00  0.00     0.003 C 
ATOM      9  C   UNL d   1      32.884  17.749 -24.743  0.00  0.00     0.196 A 
ATOM     10  C   UNL d   1      33.129  17.018 -25.044  0.00  0.00     0.044 A 
ATOM     11  O   UNL d   1      33.241  18.457 -24.984  0.00  0.00    -0.287 OA
ATOM     12  C   UNL d   1      32.760  16.331 -24.791  0.00  0.00     0.022 A 
ATOM     13  C   UNL d   1      33.013  15.618 -25.097  0.00  0.00     0.002 C 
ENDBRANCH   4   5
ENDBRANCH   1   4
BRANCH   1  14
ATOM     14  C   UNL d   1      30.134  15.566 -23.825  0.00  0.00     0.105 A 
ATOM     15  C   UNL d   1      29.818  15.522 -23.073  0.00  0.00     0.013 A 
ATOM     16  C   UNL d   1      29.018  15.486 -22.978  0.00  0.00     0.001 A 
ATOM     17  C   UNL d   1      28.502  15.494 -23.648  0.00  0.00     0.000 A 
ATOM     18  C   UNL d   1      28.825  15.538 -24.404  0.00  0.00     0.001 A 
ATOM     19  C   UNL d   1      27.657  15.457 -23.572  0.00  0.00     0.000 C 
ATOM     20  C   UNL d   1      29.650  15.574 -24.492  0.00  0.00     0.013 A 
ENDBRANCH   1  14
TORSDOF 3
ENDMDL
MODEL 6
REMARK VINA RESULT:      -2.0      1.067      3.961
REMARK  3 active torsions:
REMARK  status: ('A' for Active; 'I' for Inactive)
REMARK    1  A    between atoms: N_2  and  S_1 
REMARK    2  A    between atoms: C_4  and  S_1 
REMARK    3  A    between atoms: C_3  and  N_2 
ROOT
ATOM      1  S   UNL d   1      32.098  17.691 -24.222  0.00  0.00     0.285 S 
ATOM      2  O   UNL d   1      31.915  17.956 -24.985  0.00  0.00    -0.198 OA
ATOM      3  O   UNL d   1      32.281  17.423 -23.455  0.00  0.00    -0.198 OA
ENDROOT
BRANCH   1   4
ATOM      4  N   UNL d   1      32.831  18.084 -24.260  0.00  0.00    -0.158 NA
BRANCH   4   5
ATOM      5  C   UNL d   1      32.932  18.804 -23.864  0.00  0.00     0.094 A 
ATOM      6  C   UNL d   1      32.831  18.863 -23.044  0.00  0.00     0.023 A 
ATOM      7  C   UNL d   1      32.931  19.573 -22.659  0.00  0.00     0.041 A 
ATOM      8  C   UNL d   1      32.822  19.592 -21.845  0.00  0.00     0.003 C 
ATOM      9  C   UNL d   1      33.141  20.265 -23.099  0.00  0.00     0.196 A 
ATOM     10  C   UNL d   1      33.241  20.206 -23.919  0.00  0.00     0.044 A 
ATOM     11  O   UNL d   1      33.241  20.986 -22.703  0.00  0.00    -0.287 OA
ATOM     12  C   UNL d   1      33.136  19.482 -24.288  0.00  0.00     0.022 A 
ATOM     13  C   UNL d   1      33.239  19.439 -25.097  0.00  0.00     0.002 C 
ENDBRANCH   4   5
ENDBRANCH   1   4
BRANCH   1  14
ATOM     14  C   UNL d   1      31.365  17.296 -24.181  0.00  0.00     0.105 A 
ATOM     15  C   UNL d   1      31.304  16.621 -23.726  0.00  0.00     0.013 A 
ATOM     16  C   UNL d   1      30.598  16.233 -23.680  0.00  0.00     0.001 A 
ATOM     17  C   UNL d   1      29.921  16.517 -24.099  0.00  0.00     0.000 A 
ATOM     18  C   UNL d   1      29.987  17.198 -24.557  0.00  0.00     0.001 A 
ATOM     19  C   UNL d   1      29.168  16.125 -24.067  0.00  0.00     0.000 C 
ATOM     20  C   UNL d   1      30.718  17.590 -24.597  0.00  0.00     0.013 A 
ENDBRANCH   1  14
TORSDOF 3
ENDMDL
MODEL 7
REMARK VINA RESULT:      -1.8      4.930      6.820
REMARK  3 active torsions:
REMARK  status: ('A' for Active; 'I' for Inactive)
REMARK    1  A    between atoms: N_2  and  S_1 
REMARK    2  A    between atoms: C_4  and  S_1 
REMARK    3  A    between atoms: C_3  and  N_2 
ROOT
ATOM      1  S   UNL d   1      32.391  23.548 -19.440  0.00  0.00     0.285 S 
ATOM      2  O   UNL d   1      33.206  23.681 -19.497  0.00  0.00    -0.198 OA
ATOM      3  O   UNL d   1      31.571  23.414 -19.382  0.00  0.00    -0.198 OA
ENDROOT
BRANCH   1   4
ATOM      4  N   UNL d   1      32.325  23.590 -20.269  0.00  0.00    -0.158 NA
BRANCH   4   5
ATOM      5  C   UNL d   1      32.500  22.924 -20.729  0.00  0.00     0.094 A 
ATOM      6  C   UNL d   1      32.669  22.192 -20.382  0.00  0.00     0.023 A 
ATOM      7  C   UNL d   1      32.841  21.540 -20.837  0.00  0.00     0.041 A 
ATOM      8  C   UNL d   1      33.003  20.832 -20.457  0.00  0.00     0.003 C 
ATOM      9  C   UNL d   1      32.847  21.607 -21.682  0.00  0.00     0.196 A 
ATOM     10  C   UNL d   1      32.678  22.339 -22.029  0.00  0.00     0.044 A 
ATOM     11  O   UNL d   1      33.022  20.941 -22.142  0.00  0.00    -0.287 OA
ATOM     12  C   UNL d   1      32.508  22.984 -21.552  0.00  0.00     0.022 A 
ATOM     13  C   UNL d   1      32.343  23.700 -21.909  0.00  0.00     0.002 C 
ENDBRANCH   4   5
ENDBRANCH   1   4
BRANCH   1  14
ATOM     14  C   UNL d   1      32.453  23.505 -18.610  0.00  0.00     0.105 A 
ATOM     15  C   UNL d   1      31.790  23.318 -18.172  0.00  0.00     0.013 A 
ATOM     16  C   UNL d   1      31.842  23.274 -17.368  0.00  0.00     0.001 A 
ATOM     17  C   UNL d   1      32.575  23.421 -16.974  0.00  0.00     0.000 A 
ATOM     18  C   UNL d   1      33.241  23.610 -17.419  0.00  0.00     0.001 A 
ATOM     19  C   UNL d   1      32.654  23.382 -16.129  0.00  0.00     0.000 C 
ATOM     20  C   UNL d   1      33.178  23.652 -18.246  0.00  0.00     0.013 A 
ENDBRANCH   1  14
TORSDOF 3
ENDMDL
MODEL 8
REMARK VINA RESULT:      -0.5      1.820      2.676
REMARK  3 active torsions:
REMARK  status: ('A' for Active; 'I' for Inactive)
REMARK    1  A    between atoms: N_2  and  S_1 
REMARK    2  A    between atoms: C_4  and  S_1 
REMARK    3  A    between atoms: C_3  and  N_2 
ROOT
ATOM      1  S   UNL d   1      32.965  20.103 -22.099  0.00  0.00     0.285 S 
ATOM      2  O   UNL d   1      33.238  20.483 -22.782  0.00  0.00    -0.198 OA
ATOM      3  O   UNL d   1      32.690  19.722 -21.411  0.00  0.00    -0.198 OA
ENDROOT
BRANCH   1   4
ATOM      4  N   UNL d   1      33.239  19.374 -22.393  0.00  0.00    -0.158 NA
BRANCH   4   5
ATOM      5  C   UNL d   1      32.870  19.031 -23.050  0.00  0.00     0.094 A 
ATOM      6  C   UNL d   1      32.638  19.487 -23.701  0.00  0.00     0.023 A 
ATOM      7  C   UNL d   1      32.275  19.146 -24.345  0.00  0.00     0.041 A 
ATOM      8  C   UNL d   1      32.059  19.631 -24.971  0.00  0.00     0.003 C 
ATOM      9  C   UNL d   1      32.131  18.311 -24.353  0.00  0.00     0.196 A 
ATOM     10  C   UNL d   1      32.364  17.856 -23.702  0.00  0.00     0.044 A 
ATOM     11  O   UNL d   1      31.762  17.969 -25.011  0.00  0.00    -0.287 OA
ATOM     12  C   UNL d   1      32.727  18.219 -23.064  0.00  0.00     0.022 A 
ATOM     13  C   UNL d   1      32.951  17.756 -22.429  0.00  0.00     0.002 C 
ENDBRANCH   4   5
ENDBRANCH   1   4
BRANCH   1  14
ATOM     14  C   UNL d   1      32.688  20.832 -21.801  0.00  0.00     0.105 A 
ATOM     15  C   UNL d   1      32.976  21.525 -22.122  0.00  0.00     0.013 A 
ATOM     16  C   UNL d   1      32.714  22.234 -21.840  0.00  0.00     0.001 A 
ATOM     17  C   UNL d   1      32.145  22.267 -21.215  0.00  0.00     0.000 A 
ATOM     18  C   UNL d   1      31.858  21.565 -20.895  0.00  0.00     0.001 A 
ATOM     19  C   UNL d   1      31.855  23.001 -20.902  0.00  0.00     0.000 C 
ATOM     20  C   UNL d   1      32.134  20.841 -21.192  0.00  0.00     0.013 A 
ENDBRANCH   1  14
TORSDOF 3
ENDMDL
MODEL 9
REMARK VINA RESULT:      -0.3      1.918      4.537
REMARK  3 active torsions:
REMARK  status: ('A' for Active; 'I' for Inactive)
REMARK    1  A    between atoms: N_2  and  S_1 
REMARK    2  A    between atoms: C_4  and  S_1 
REMARK    3  A    between atoms: C_3  and  N_2 
ROOT
ATOM      1  S   UNL d   1      32.974  19.746 -23.071  0.00  0.00     0.285 S 
ATOM      2  O   UNL d   1      32.708  19.957 -23.826  0.00  0.00    -0.198 OA
ATOM      3  O   UNL d   1      33.241  19.531 -22.311  0.00  0.00    -0.198 OA
ENDROOT
BRANCH   1   4
ATOM      4  N   UNL d   1      33.241  20.525 -22.945  0.00  0.00    -0.158 NA
BRANCH   4   5
ATOM      5  C   UNL d   1      32.879  20.994 -22.366  0.00  0.00     0.094 A 
ATOM      6  C   UNL d   1      32.513  20.657 -21.705  0.00  0.00     0.023 A 
ATOM      7  C   UNL d   1      32.159  21.122 -21.139  0.00  0.00     0.041 A 
ATOM      8  C   UNL d   1      31.806  20.752 -20.497  0.00  0.00     0.003 C 
ATOM      9  C   UNL d   1      32.163  21.965 -21.224  0.00  0.00     0.196 A 
ATOM     10  C   UNL d   1      32.529  22.301 -21.885  0.00  0.00     0.044 A 
ATOM     11  O   UNL d   1      31.801  22.434 -20.645  0.00  0.00    -0.287 OA
ATOM     12  C   UNL d   1      32.880  21.815 -22.444  0.00  0.00     0.022 A 
ATOM     13  C   UNL d   1      33.238  22.161 -23.092  0.00  0.00     0.002 C 
ENDBRANCH   4   5
ENDBRANCH   1   4
BRANCH   1  14
ATOM     14  C   UNL d   1      32.708  18.965 -23.193  0.00  0.00     0.105 A 
ATOM     15  C   UNL d   1      33.146  18.345 -22.892  0.00  0.00     0.013 A 
ATOM     16  C   UNL d   1      32.896  17.587 -23.006  0.00  0.00     0.001 A 
ATOM     17  C   UNL d   1      32.185  17.426 -23.434  0.00  0.00     0.000 A 
ATOM     18  C   UNL d   1      31.746  18.054 -23.736  0.00  0.00     0.001 A 
ATOM     19  C   UNL d   1      31.902  16.636 -23.567  0.00  0.00     0.000 C 
ATOM     20  C   UNL d   1      32.012  18.831 -23.614  0.00  0.00     0.013 A 
ENDBRANCH   1  14
TORSDOF 3
ENDMDL
