MODEL 1
REMARK VINA RESULT:      49.3      0.000      0.000
REMARK  5 active torsions:
REMARK  status: ('A' for Active; 'I' for Inactive)
REMARK    1  A    between atoms: C_6  and  S_1 
REMARK    2  A    between atoms: N_7  and  S_1 
REMARK    3  A    between atoms: C_15  and  N_7 
REMARK    4  A    between atoms: O_21  and  C_16 
REMARK    5  A    between atoms: C_22  and  O_21 
ROOT
ATOM      1  S   UNL d   1     -55.566-102.368 -40.998  0.00  0.00     0.327 S 
ATOM      2  O   UNL d   1     -54.817-102.148 -41.254  0.00  0.00    -0.186 OA
ATOM      3  O   UNL d   1     -56.176-102.461 -41.541  0.00  0.00    -0.186 OA
ENDROOT
BRANCH   1   4
ATOM      4  C   UNL d   1     -55.707-102.496 -40.200  0.00  0.00     0.118 A 
ATOM      5  C   UNL d   1     -55.080-102.496 -39.670  0.00  0.00     0.035 A 
ATOM      6  C   UNL d   1     -55.218-102.624 -38.863  0.00  0.00     0.105 A 
ATOM      7  N   UNL d   1     -54.713-102.655 -38.212  0.00  0.00    -0.189 NA
ATOM      8  C   UNL d   1     -55.993-102.754 -38.592  0.00  0.00     0.104 A 
ATOM      9  C   UNL d   1     -55.173-102.804 -37.534  0.00  0.00     0.369 A 
ATOM     10  O   UNL d   1     -54.892-102.878 -36.764  0.00  0.00    -0.242 OA
ATOM     11  N   UNL d   1     -55.961-102.864 -37.775  0.00  0.00    -0.189 NA
ATOM     12  C   UNL d   1     -56.622-102.753 -39.131  0.00  0.00     0.022 A 
ATOM     13  C   UNL d   1     -56.474-102.624 -39.932  0.00  0.00     0.016 A 
ENDBRANCH   1   4
BRANCH   1  14
ATOM     14  N   UNL d   1     -55.435-102.243 -41.798  0.00  0.00    -0.317 NA
BRANCH  14  15
ATOM     15  C   UNL d   1     -55.300-102.115 -42.616  0.00  0.00     0.146 A 
ATOM     16  C   UNL d   1     -55.335-102.759 -43.140  0.00  0.00     0.035 A 
ATOM     17  C   UNL d   1     -55.201-102.630 -43.947  0.00  0.00     0.027 A 
ATOM     18  C   UNL d   1     -55.036-101.867 -44.222  0.00  0.00     0.100 A 
ATOM     19  C   UNL d   1     -55.004-101.238 -43.695  0.00  0.00     0.027 A 
ATOM     20  C   UNL d   1     -55.137-101.364 -42.891  0.00  0.00     0.035 A 
BRANCH  18  21
ATOM     21  O   UNL d   1     -54.902-101.735 -45.026  0.00  0.00    -0.305 OA
BRANCH  21  22
ATOM     22  C   UNL d   1     -54.731-102.356 -45.521  0.00  0.00     0.123 C 
ATOM     23  C   UNL d   1     -55.334-102.720 -45.949  0.00  0.00     0.029 C 
ENDBRANCH  21  22
ENDBRANCH  18  21
ENDBRANCH  14  15
ENDBRANCH   1  14
TORSDOF 5
ENDMDL
MODEL 2
REMARK VINA RESULT:      50.4      1.324      1.865
REMARK  5 active torsions:
REMARK  status: ('A' for Active; 'I' for Inactive)
REMARK    1  A    between atoms: C_6  and  S_1 
REMARK    2  A    between atoms: N_7  and  S_1 
REMARK    3  A    between atoms: C_15  and  N_7 
REMARK    4  A    between atoms: O_21  and  C_16 
REMARK    5  A    between atoms: C_22  and  O_21 
ROOT
ATOM      1  S   UNL d   1     -55.164-101.725 -39.482  0.00  0.00     0.327 S 
ATOM      2  O   UNL d   1     -54.728-101.170 -39.903  0.00  0.00    -0.186 OA
ATOM      3  O   UNL d   1     -55.546-102.334 -39.878  0.00  0.00    -0.186 OA
ENDROOT
BRANCH   1   4
ATOM      4  C   UNL d   1     -55.217-101.672 -38.665  0.00  0.00     0.118 A 
ATOM      5  C   UNL d   1     -55.285-102.354 -38.214  0.00  0.00     0.035 A 
ATOM      6  C   UNL d   1     -55.339-102.305 -37.390  0.00  0.00     0.105 A 
ATOM      7  N   UNL d   1     -55.410-102.880 -36.802  0.00  0.00    -0.189 NA
ATOM      8  C   UNL d   1     -55.325-101.562 -37.019  0.00  0.00     0.104 A 
ATOM      9  C   UNL d   1     -55.441-102.495 -36.064  0.00  0.00     0.369 A 
ATOM     10  O   UNL d   1     -55.511-102.859 -35.330  0.00  0.00    -0.242 OA
ATOM     11  N   UNL d   1     -55.387-101.682 -36.205  0.00  0.00    -0.189 NA
ATOM     12  C   UNL d   1     -55.256-100.875 -37.477  0.00  0.00     0.022 A 
ATOM     13  C   UNL d   1     -55.203-100.936 -38.298  0.00  0.00     0.016 A 
ENDBRANCH   1   4
BRANCH   1  14
ATOM     14  N   UNL d   1     -55.116-101.786 -40.299  0.00  0.00    -0.317 NA
BRANCH  14  15
ATOM     15  C   UNL d   1     -55.066-101.848 -41.134  0.00  0.00     0.146 A 
ATOM     16  C   UNL d   1     -55.106-101.160 -41.597  0.00  0.00     0.035 A 
ATOM     17  C   UNL d   1     -55.056-101.224 -42.420  0.00  0.00     0.027 A 
ATOM     18  C   UNL d   1     -54.968-101.967 -42.772  0.00  0.00     0.100 A 
ATOM     19  C   UNL d   1     -54.929-102.642 -42.304  0.00  0.00     0.027 A 
ATOM     20  C   UNL d   1     -54.978-102.580 -41.484  0.00  0.00     0.035 A 
BRANCH  18  21
ATOM     21  O   UNL d   1     -54.918-102.035 -43.594  0.00  0.00    -0.305 OA
BRANCH  21  22
ATOM     22  C   UNL d   1     -55.070-101.394 -44.069  0.00  0.00     0.123 C 
ATOM     23  C   UNL d   1     -54.788-101.379 -44.843  0.00  0.00     0.029 C 
ENDBRANCH  21  22
ENDBRANCH  18  21
ENDBRANCH  14  15
ENDBRANCH   1  14
TORSDOF 5
ENDMDL
