MODEL 1
REMARK VINA RESULT:     101.3      0.000      0.000
REMARK  7 active torsions:
REMARK  status: ('A' for Active; 'I' for Inactive)
REMARK    1  A    between atoms: N_15  and  C_4 
REMARK    2  A    between atoms: C_17  and  N_5 
REMARK    3  A    between atoms: C_19  and  N_10 
REMARK    4  A    between atoms: C_11  and  S_16 
REMARK    5  A    between atoms: S_16  and  C_28 
REMARK    6  A    between atoms: C_27  and  C_17 
REMARK    7  A    between atoms: C_28  and  C_27 
ROOT
ATOM      1  C   UNL d   1     -48.504  28.851  36.383  0.00  0.00     0.191 A 
ATOM      2  C   UNL d   1     -48.626  28.397  35.704  0.00  0.00     0.174 A 
ATOM      3  N   UNL d   1     -49.005  28.580  36.989  0.00  0.00    -0.042 NA
ATOM      4  C   UNL d   1     -49.442  27.944  36.664  0.00  0.00     0.722 A 
ATOM      5  N   UNL d   1     -49.220  27.826  35.887  0.00  0.00    -0.136 N 
ATOM      6  N   UNL d   1     -47.934  29.480  36.379  0.00  0.00    -0.239 N 
ATOM      7  C   UNL d   1     -47.495  29.626  35.656  0.00  0.00     0.358 A 
ATOM      8  N   UNL d   1     -47.643  29.152  34.995  0.00  0.00    -0.152 NA
ATOM      9  C   UNL d   1     -48.218  28.530  35.025  0.00  0.00     0.303 A 
ATOM     10  O   UNL d   1     -46.923  30.240  35.616  0.00  0.00    -0.244 OA
ATOM     11  O   UNL d   1     -48.342  28.069  34.335  0.00  0.00    -0.263 OA
ATOM     12  C   UNL d   1     -47.803  29.941  37.052  0.00  0.00     0.105 C 
ENDROOT
BRANCH   5  13
ATOM     13  C   UNL d   1     -49.603  27.220  35.500  0.00  0.00     0.072 C 
BRANCH  13  14
ATOM     14  C   UNL d   1     -49.885  27.353  34.726  0.00  0.00     0.052 C 
ATOM     15  C   UNL d   1     -49.516  26.616  34.695  0.00  0.00     0.007 C 
BRANCH  14  16
ATOM     16  C   UNL d   1     -49.758  26.789  34.138  0.00  0.00     0.071 C 
BRANCH  16  17
ATOM     17  S   UNL d   1     -50.269  26.162  34.044  0.00  0.00    -0.073 SA
BRANCH  17  18
ATOM     18  C   UNL d   1     -51.042  26.281  33.781  0.00  0.00     0.215 A 
ATOM     19  N   UNL d   1     -51.560  25.698  33.515  0.00  0.00    -0.186 N 
ATOM     20  N   UNL d   1     -52.268  26.056  33.308  0.00  0.00    -0.038 NA
ATOM     21  N   UNL d   1     -52.191  26.866  33.446  0.00  0.00    -0.022 NA
ATOM     22  N   UNL d   1     -51.432  27.004  33.738  0.00  0.00    -0.101 NA
BRANCH  19  23
ATOM     23  C   UNL d   1     -51.395  24.892  33.465  0.00  0.00     0.087 A 
ATOM     24  C   UNL d   1     -52.010  24.348  33.522  0.00  0.00     0.019 A 
ATOM     25  C   UNL d   1     -51.844  23.541  33.472  0.00  0.00     0.002 A 
ATOM     26  C   UNL d   1     -51.067  23.282  33.366  0.00  0.00     0.000 A 
ATOM     27  C   UNL d   1     -50.454  23.837  33.309  0.00  0.00     0.002 A 
ATOM     28  C   UNL d   1     -50.620  24.644  33.359  0.00  0.00     0.019 A 
ENDBRANCH  19  23
ENDBRANCH  17  18
ENDBRANCH  16  17
ENDBRANCH  14  16
ENDBRANCH  13  14
ENDBRANCH   5  13
BRANCH   4  29
ATOM     29  N   UNL d   1     -50.013  27.500  37.064  0.00  0.00    -0.136 N 
ATOM     30  C   UNL d   1     -49.859  26.708  37.254  0.00  0.00     0.117 A 
ATOM     31  C   UNL d   1     -50.436  26.274  37.655  0.00  0.00     0.100 A 
ATOM     32  N   UNL d   1     -51.161  26.621  37.865  0.00  0.00    -0.299 N 
ATOM     33  C   UNL d   1     -51.299  27.411  37.668  0.00  0.00     0.100 A 
ATOM     34  C   UNL d   1     -51.732  26.177  38.265  0.00  0.00     0.100 C 
ATOM     35  C   UNL d   1     -50.732  27.853  37.270  0.00  0.00     0.117 A 
ENDBRANCH   4  29
TORSDOF 7
ENDMDL
MODEL 2
REMARK VINA RESULT:     101.6      2.671      4.437
REMARK  7 active torsions:
REMARK  status: ('A' for Active; 'I' for Inactive)
REMARK    1  A    between atoms: N_15  and  C_4 
REMARK    2  A    between atoms: C_17  and  N_5 
REMARK    3  A    between atoms: C_19  and  N_10 
REMARK    4  A    between atoms: C_11  and  S_16 
REMARK    5  A    between atoms: S_16  and  C_28 
REMARK    6  A    between atoms: C_27  and  C_17 
REMARK    7  A    between atoms: C_28  and  C_27 
ROOT
ATOM      1  C   UNL d   1     -52.457  25.051  39.008  0.00  0.00     0.191 A 
ATOM      2  C   UNL d   1     -52.649  25.168  38.213  0.00  0.00     0.174 A 
ATOM      3  N   UNL d   1     -51.942  25.655  39.258  0.00  0.00    -0.042 NA
ATOM      4  C   UNL d   1     -51.821  26.149  38.592  0.00  0.00     0.722 A 
ATOM      5  N   UNL d   1     -52.245  25.863  37.956  0.00  0.00    -0.136 N 
ATOM      6  N   UNL d   1     -52.779  24.391  39.432  0.00  0.00    -0.239 N 
ATOM      7  C   UNL d   1     -53.304  23.856  39.014  0.00  0.00     0.358 A 
ATOM      8  N   UNL d   1     -53.474  24.004  38.219  0.00  0.00    -0.152 NA
ATOM      9  C   UNL d   1     -53.140  24.670  37.817  0.00  0.00     0.303 A 
ATOM     10  O   UNL d   1     -53.641  23.191  39.403  0.00  0.00    -0.244 OA
ATOM     11  O   UNL d   1     -53.335  24.789  37.010  0.00  0.00    -0.263 OA
ATOM     12  C   UNL d   1     -52.594  24.264  40.228  0.00  0.00     0.105 C 
ENDROOT
BRANCH   5  13
ATOM     13  C   UNL d   1     -52.178  26.292  37.268  0.00  0.00     0.072 C 
BRANCH  13  14
ATOM     14  C   UNL d   1     -51.736  25.972  36.636  0.00  0.00     0.052 C 
ATOM     15  C   UNL d   1     -52.137  26.615  36.311  0.00  0.00     0.007 C 
BRANCH  14  16
ATOM     16  C   UNL d   1     -51.776  26.317  35.887  0.00  0.00     0.071 C 
BRANCH  16  17
ATOM     17  S   UNL d   1     -51.786  25.858  35.216  0.00  0.00    -0.073 SA
BRANCH  17  18
ATOM     18  C   UNL d   1     -51.358  26.078  34.545  0.00  0.00     0.215 A 
ATOM     19  N   UNL d   1     -51.336  25.673  33.828  0.00  0.00    -0.186 N 
ATOM     20  N   UNL d   1     -50.845  26.082  33.315  0.00  0.00    -0.038 NA
ATOM     21  N   UNL d   1     -50.560  26.746  33.714  0.00  0.00    -0.022 NA
ATOM     22  N   UNL d   1     -50.878  26.742  34.475  0.00  0.00    -0.101 NA
BRANCH  19  23
ATOM     23  C   UNL d   1     -51.739  24.974  33.656  0.00  0.00     0.087 A 
ATOM     24  C   UNL d   1     -51.332  24.259  33.666  0.00  0.00     0.019 A 
ATOM     25  C   UNL d   1     -51.735  23.560  33.494  0.00  0.00     0.002 A 
ATOM     26  C   UNL d   1     -52.540  23.578  33.313  0.00  0.00     0.000 A 
ATOM     27  C   UNL d   1     -52.942  24.304  33.306  0.00  0.00     0.002 A 
ATOM     28  C   UNL d   1     -52.539  25.003  33.478  0.00  0.00     0.019 A 
ENDBRANCH  19  23
ENDBRANCH  17  18
ENDBRANCH  16  17
ENDBRANCH  14  16
ENDBRANCH  13  14
ENDBRANCH   5  13
BRANCH   4  29
ATOM     29  N   UNL d   1     -51.346  26.825  38.577  0.00  0.00    -0.136 N 
ATOM     30  C   UNL d   1     -51.681  27.567  38.736  0.00  0.00     0.117 A 
ATOM     31  C   UNL d   1     -51.196  28.235  38.719  0.00  0.00     0.100 A 
ATOM     32  N   UNL d   1     -50.387  28.171  38.545  0.00  0.00    -0.299 N 
ATOM     33  C   UNL d   1     -50.068  27.426  38.389  0.00  0.00     0.100 A 
ATOM     34  C   UNL d   1     -49.911  28.847  38.530  0.00  0.00     0.100 C 
ATOM     35  C   UNL d   1     -50.540  26.753  38.404  0.00  0.00     0.117 A 
ENDBRANCH   4  29
TORSDOF 7
ENDMDL
MODEL 3
REMARK VINA RESULT:     103.1      2.173      5.343
REMARK  7 active torsions:
REMARK  status: ('A' for Active; 'I' for Inactive)
REMARK    1  A    between atoms: N_15  and  C_4 
REMARK    2  A    between atoms: C_17  and  N_5 
REMARK    3  A    between atoms: C_19  and  N_10 
REMARK    4  A    between atoms: C_11  and  S_16 
REMARK    5  A    between atoms: S_16  and  C_28 
REMARK    6  A    between atoms: C_27  and  C_17 
REMARK    7  A    between atoms: C_28  and  C_27 
ROOT
ATOM      1  C   UNL d   1     -51.852  26.503  33.422  0.00  0.00     0.191 A 
ATOM      2  C   UNL d   1     -51.241  27.057  33.462  0.00  0.00     0.174 A 
ATOM      3  N   UNL d   1     -51.531  25.736  33.442  0.00  0.00    -0.042 NA
ATOM      4  C   UNL d   1     -50.701  25.832  33.495  0.00  0.00     0.722 A 
ATOM      5  N   UNL d   1     -50.516  26.627  33.508  0.00  0.00    -0.136 N 
ATOM      6  N   UNL d   1     -52.659  26.761  33.371  0.00  0.00    -0.239 N 
ATOM      7  C   UNL d   1     -52.816  27.605  33.362  0.00  0.00     0.358 A 
ATOM      8  N   UNL d   1     -52.179  28.131  33.403  0.00  0.00    -0.152 NA
ATOM      9  C   UNL d   1     -51.382  27.847  33.454  0.00  0.00     0.303 A 
ATOM     10  O   UNL d   1     -53.603  27.897  33.312  0.00  0.00    -0.244 OA
ATOM     11  O   UNL d   1     -50.761  28.410  33.494  0.00  0.00    -0.263 OA
ATOM     12  C   UNL d   1     -53.280  26.217  33.331  0.00  0.00     0.105 C 
ENDROOT
BRANCH   5  13
ATOM     13  C   UNL d   1     -49.722  26.802  33.558  0.00  0.00     0.072 C 
BRANCH  13  14
ATOM     14  C   UNL d   1     -49.495  27.585  33.738  0.00  0.00     0.052 C 
ATOM     15  C   UNL d   1     -48.916  27.110  34.085  0.00  0.00     0.007 C 
BRANCH  14  16
ATOM     16  C   UNL d   1     -48.812  27.726  34.179  0.00  0.00     0.071 C 
BRANCH  16  17
ATOM     17  S   UNL d   1     -48.645  28.469  34.466  0.00  0.00    -0.073 SA
BRANCH  17  18
ATOM     18  C   UNL d   1     -48.285  28.569  35.201  0.00  0.00     0.215 A 
ATOM     19  N   UNL d   1     -47.995  29.275  35.509  0.00  0.00    -0.186 N 
ATOM     20  N   UNL d   1     -47.684  29.126  36.253  0.00  0.00    -0.038 NA
ATOM     21  N   UNL d   1     -47.782  28.322  36.410  0.00  0.00    -0.022 NA
ATOM     22  N   UNL d   1     -48.153  27.978  35.759  0.00  0.00    -0.101 NA
BRANCH  19  23
ATOM     23  C   UNL d   1     -48.013  30.009  35.133  0.00  0.00     0.087 A 
ATOM     24  C   UNL d   1     -48.227  30.052  34.339  0.00  0.00     0.019 A 
ATOM     25  C   UNL d   1     -48.245  30.785  33.962  0.00  0.00     0.002 A 
ATOM     26  C   UNL d   1     -48.051  31.472  34.379  0.00  0.00     0.000 A 
ATOM     27  C   UNL d   1     -47.838  31.419  35.178  0.00  0.00     0.002 A 
ATOM     28  C   UNL d   1     -47.819  30.685  35.555  0.00  0.00     0.019 A 
ENDBRANCH  19  23
ENDBRANCH  17  18
ENDBRANCH  16  17
ENDBRANCH  14  16
ENDBRANCH  13  14
ENDBRANCH   5  13
BRANCH   4  29
ATOM     29  N   UNL d   1     -50.149  25.219  33.530  0.00  0.00    -0.136 N 
ATOM     30  C   UNL d   1     -49.362  25.361  33.311  0.00  0.00     0.117 A 
ATOM     31  C   UNL d   1     -48.818  24.740  33.349  0.00  0.00     0.100 A 
ATOM     32  N   UNL d   1     -49.052  23.984  33.603  0.00  0.00    -0.299 N 
ATOM     33  C   UNL d   1     -49.838  23.858  33.817  0.00  0.00     0.100 A 
ATOM     34  C   UNL d   1     -48.499  23.370  33.637  0.00  0.00     0.100 C 
ATOM     35  C   UNL d   1     -50.388  24.468  33.783  0.00  0.00     0.117 A 
ENDBRANCH   4  29
TORSDOF 7
ENDMDL
