MODEL 1
REMARK VINA RESULT:     101.3      0.000      0.000
REMARK  4 active torsions:
REMARK  status: ('A' for Active; 'I' for Inactive)
REMARK    1  A    between atoms: C_2  and  C_1 
REMARK    2  A    between atoms: C_4  and  C_2 
REMARK       I    between atoms: C_3  and  N_6 
REMARK    3  A    between atoms: C_7  and  C_3 
REMARK    4  A    between atoms: N_6  and  C_5 
ROOT
ATOM      1  C   UNL d   1     -54.959-100.460 -41.563  0.00  0.00     0.058 A 
ATOM      2  C   UNL d   1     -55.033 -99.917 -42.207  0.00  0.00     0.088 A 
ATOM      3  C   UNL d   1     -54.857-100.185 -40.818  0.00  0.00     0.016 A 
ATOM      4  C   UNL d   1     -54.994 -99.112 -42.028  0.00  0.00     0.020 A 
ATOM      5  C   UNL d   1     -54.822 -99.375 -40.666  0.00  0.00     0.058 A 
ATOM      6  C   UNL d   1     -54.889 -98.841 -41.259  0.00  0.00     0.013 A 
ATOM      7 CL   UNL d   1     -54.713 -99.110 -39.870  0.00  0.00    -0.082 Cl
ENDROOT
BRANCH   1   8
ATOM      8  C   UNL d   1     -54.991-101.276 -41.688  0.00  0.00     0.198 C 
ATOM      9  O   UNL d   1     -54.763-101.564 -42.428  0.00  0.00    -0.286 OA
BRANCH   8  10
ATOM     10  C   UNL d   1     -55.240-101.797 -41.104  0.00  0.00     0.050 A 
ATOM     11  C   UNL d   1     -56.021-102.061 -41.090  0.00  0.00     0.061 A 
ATOM     12 CL   UNL d   1     -56.587-101.814 -41.660  0.00  0.00    -0.082 Cl
ATOM     13  C   UNL d   1     -56.268-102.588 -40.497  0.00  0.00     0.011 A 
ATOM     14  C   UNL d   1     -55.735-102.848 -39.922  0.00  0.00     0.001 A 
ATOM     15  C   UNL d   1     -54.959-102.569 -39.959  0.00  0.00     0.000 A 
ATOM     16  C   UNL d   1     -54.713-102.042 -40.552  0.00  0.00     0.004 A 
ENDBRANCH   8  10
ENDBRANCH   1   8
BRANCH   2  17
ATOM     17  N   UNL d   1     -55.142-100.181 -43.009  0.00  0.00    -0.206 NA
ATOM     18  C   UNL d   1     -55.005 -99.680 -43.619  0.00  0.00     0.302 C 
ATOM     19  O   UNL d   1     -54.757 -98.905 -43.485  0.00  0.00    -0.263 OA
BRANCH  18  20
ATOM     20  C   UNL d   1     -55.115 -99.949 -44.393  0.00  0.00     0.158 A 
ATOM     21  O   UNL d   1     -55.197 -99.561 -45.100  0.00  0.00    -0.300 OA
ATOM     22  C   UNL d   1     -55.289-100.119 -45.674  0.00  0.00     0.123 A 
ATOM     23  C   UNL d   1     -55.270-100.841 -45.376  0.00  0.00     0.029 A 
ATOM     24  C   UNL d   1     -55.158-100.759 -44.544  0.00  0.00     0.032 A 
ENDBRANCH  18  20
ENDBRANCH   2  17
TORSDOF 4
ENDMDL
