MODEL 1
REMARK VINA RESULT:      88.5      0.000      0.000
REMARK  6 active torsions:
REMARK  status: ('A' for Active; 'I' for Inactive)
REMARK    1  A    between atoms: N_3  and  S_1 
REMARK    2  A    between atoms: C_7  and  S_1 
REMARK    3  A    between atoms: C_2  and  N_3 
REMARK    4  A    between atoms: N_9  and  C_5 
REMARK    5  A    between atoms: C_22  and  N_9 
REMARK    6  A    between atoms: C_21  and  C_22 
ROOT
ATOM      1  C   UNL d   1      60.923  48.228  50.506  0.00  0.00     0.211 A 
ATOM      2  N   UNL d   1      61.350  48.080  51.189  0.00  0.00    -0.222 NA
ATOM      3  C   UNL d   1      60.403  48.869  50.469  0.00  0.00     0.200 A 
ATOM      4  N   UNL d   1      60.317  49.364  51.133  0.00  0.00    -0.223 NA
ATOM      5  C   UNL d   1      61.264  48.568  51.839  0.00  0.00     0.101 A 
ATOM      6  C   UNL d   1      60.750  49.211  51.820  0.00  0.00     0.101 A 
ATOM      7  C   UNL d   1      60.667  49.700  52.478  0.00  0.00     0.021 A 
ATOM      8  C   UNL d   1      61.700  48.412  52.527  0.00  0.00     0.021 A 
ATOM      9  C   UNL d   1      61.100  49.543  53.157  0.00  0.00     0.002 A 
ATOM     10  C   UNL d   1      61.614  48.903  53.184  0.00  0.00     0.002 A 
ENDROOT
BRANCH   1  11
ATOM     11  N   UNL d   1      61.009  47.738  49.852  0.00  0.00    -0.136 NA
BRANCH  11  12
ATOM     12  S   UNL d   1      61.561  47.039  49.923  0.00  0.00     0.287 S 
ATOM     13  O   UNL d   1      62.433  47.210  49.995  0.00  0.00    -0.198 OA
ATOM     14  O   UNL d   1      62.053  47.718  49.945  0.00  0.00    -0.198 OA
BRANCH  12  15
ATOM     15  C   UNL d   1      61.440  46.223  49.939  0.00  0.00     0.105 A 
ATOM     16  C   UNL d   1      61.123  45.859  50.613  0.00  0.00     0.013 A 
ATOM     17  C   UNL d   1      61.000  45.033  50.630  0.00  0.00     0.001 A 
ATOM     18  C   UNL d   1      60.687  44.679  51.299  0.00  0.00     0.000 C 
ATOM     19  C   UNL d   1      61.199  44.577  49.964  0.00  0.00     0.000 A 
ATOM     20  C   UNL d   1      61.515  44.945  49.292  0.00  0.00     0.001 A 
ATOM     21  C   UNL d   1      61.636  45.760  49.277  0.00  0.00     0.013 A 
ENDBRANCH  12  15
ENDBRANCH  11  12
ENDBRANCH   1  11
BRANCH   3  22
ATOM     22  N   UNL d   1      59.967  49.024  49.780  0.00  0.00    -0.223 NA
BRANCH  22  23
ATOM     23  C   UNL d   1      59.494  49.707  49.726  0.00  0.00     0.101 C 
BRANCH  23  24
ATOM     24  C   UNL d   1      58.676  49.650  49.816  0.00  0.00     0.021 A 
ATOM     25  C   UNL d   1      58.180  49.702  50.479  0.00  0.00     0.028 A 
ATOM     26  C   UNL d   1      57.359  49.617  50.385  0.00  0.00     0.119 A 
ATOM     27  O   UNL d   1      56.739  49.642  50.930  0.00  0.00    -0.300 OA
ATOM     28  C   UNL d   1      57.044  49.483  49.636  0.00  0.00     0.119 A 
ATOM     29  C   UNL d   1      56.036  49.522  50.517  0.00  0.00     0.304 A 
ATOM     30  O   UNL d   1      56.218  49.424  49.721  0.00  0.00    -0.300 OA
ATOM     31  C   UNL d   1      57.538  49.432  48.980  0.00  0.00     0.026 A 
ATOM     32  C   UNL d   1      58.352  49.515  49.066  0.00  0.00     0.004 A 
ENDBRANCH  23  24
ENDBRANCH  22  23
ENDBRANCH   3  22
TORSDOF 6
ENDMDL
