MODEL 1
REMARK VINA RESULT:      65.6      0.000      0.000
REMARK  3 active torsions:
REMARK  status: ('A' for Active; 'I' for Inactive)
REMARK    1  A    between atoms: S_10  and  C_2 
REMARK    2  A    between atoms: C_9  and  C_4 
REMARK    3  A    between atoms: C_17  and  C_12 
ROOT
ATOM      1  C   UNL d   1     -57.884 -99.127 -44.228  0.00  0.00     0.092 A 
ATOM      2  C   UNL d   1     -57.641 -99.019 -43.463  0.00  0.00     0.119 A 
ATOM      3  N   UNL d   1     -58.205 -98.898 -42.864  0.00  0.00    -0.201 NA
ATOM      4  C   UNL d   1     -58.695 -99.115 -44.409  0.00  0.00     0.016 A 
ATOM      5  C   UNL d   1     -59.007 -98.886 -43.048  0.00  0.00     0.280 A 
ATOM      6  C   UNL d   1     -57.324 -99.248 -44.825  0.00  0.00     0.103 C 
ATOM      7  N   UNL d   1     -56.758 -99.369 -45.419  0.00  0.00    -0.191 NA
ATOM      8  C   UNL d   1     -59.250 -98.994 -43.813  0.00  0.00     0.063 A 
ATOM      9  O   UNL d   1     -59.567 -98.765 -42.451  0.00  0.00    -0.265 OA
ENDROOT
BRANCH   2  10
ATOM     10  S   UNL d   1     -56.834 -99.031 -43.280  0.00  0.00    -0.093 SA
ATOM     11  C   UNL d   1     -56.571 -98.795 -42.527  0.00  0.00     0.076 C 
ENDBRANCH   2  10
BRANCH   4  12
ATOM     12  C   UNL d   1     -58.941 -99.223 -45.184  0.00  0.00     0.001 A 
ATOM     13  C   UNL d   1     -59.487 -99.804 -45.345  0.00  0.00     0.000 A 
ATOM     14  C   UNL d   1     -59.742 -99.921 -46.126  0.00  0.00     0.000 A 
ATOM     15  C   UNL d   1     -59.451 -99.464 -46.725  0.00  0.00     0.000 A 
ATOM     16  C   UNL d   1     -58.899 -98.878 -46.556  0.00  0.00     0.000 A 
ATOM     17  C   UNL d   1     -58.639 -98.756 -45.771  0.00  0.00     0.000 A 
BRANCH  15  18
ATOM     18  C   UNL d   1     -59.726 -99.585 -47.592  0.00  0.00     0.000 C 
ATOM     19  C   UNL d   1     -59.920 -98.830 -48.368  0.00  0.00     0.000 C 
ATOM     20  C   UNL d   1     -59.952-100.628 -48.122  0.00  0.00     0.000 C 
ENDBRANCH  15  18
ENDBRANCH   4  12
TORSDOF 3
ENDMDL
