MODEL 1
REMARK VINA RESULT:      -9.8      0.000      0.000
REMARK  7 active torsions:
REMARK  status: ('A' for Active; 'I' for Inactive)
REMARK    1  A    between atoms: S_10  and  C_9 
REMARK    2  A    between atoms: C_15  and  S_10 
REMARK    3  A    between atoms: C_11  and  C_15 
REMARK       I    between atoms: N_16  and  C_11 
REMARK    4  A    between atoms: C_24  and  N_16 
REMARK    5  A    between atoms: C_21  and  C_24 
REMARK    6  A    between atoms: C_25  and  C_21 
REMARK    7  A    between atoms: O_23  and  C_25 
ROOT
ATOM      1  C   UNL d   1      52.530  33.400  53.456  0.00  0.00     0.004 A 
ATOM      2  C   UNL d   1      52.305  32.652  53.219  0.00  0.00     0.000 A 
ATOM      3  C   UNL d   1      53.285  33.542  53.764  0.00  0.00     0.039 A 
ATOM      4  C   UNL d   1      53.831  32.939  53.839  0.00  0.00     0.196 A 
ATOM      5  C   UNL d   1      52.854  32.032  53.292  0.00  0.00     0.003 A 
ATOM      6  C   UNL d   1      53.630  32.178  53.607  0.00  0.00     0.039 A 
ATOM      7  C   UNL d   1      51.980  34.020  53.383  0.00  0.00     0.006 A 
ATOM      8  C   UNL d   1      51.550  32.510  52.912  0.00  0.00     0.001 A 
ATOM      9  C   UNL d   1      51.226  33.878  53.076  0.00  0.00     0.030 A 
ATOM     10  O   UNL d   1      54.590  33.081  54.148  0.00  0.00    -0.287 OA
ATOM     11  C   UNL d   1      51.026  33.117  52.845  0.00  0.00     0.006 A 
ATOM     12  C   UNL d   1      53.506  34.307  54.004  0.00  0.00     0.003 A 
ATOM     13  C   UNL d   1      52.633  31.268  53.052  0.00  0.00     0.000 A 
ATOM     14  C   UNL d   1      54.159  31.555  53.673  0.00  0.00     0.003 A 
ATOM     15  C   UNL d   1      52.201  34.784  53.623  0.00  0.00     0.001 A 
ATOM     16  C   UNL d   1      52.924  34.954  53.924  0.00  0.00     0.000 A 
ATOM     17  C   UNL d   1      53.959  30.788  53.440  0.00  0.00     0.000 A 
ATOM     18  C   UNL d   1      53.153  30.637  53.113  0.00  0.00     0.000 A 
ENDROOT
BRANCH   9  19
ATOM     19  S   UNL d   1      50.666  34.496  52.999  0.00  0.00    -0.081 SA
BRANCH  19  20
ATOM     20  C   UNL d   1      49.980  34.380  52.548  0.00  0.00     0.098 C 
BRANCH  20  21
ATOM     21  C   UNL d   1      49.376  34.897  52.580  0.00  0.00     0.286 C 
ATOM     22  O   UNL d   1      49.327  35.437  53.196  0.00  0.00    -0.265 OA
ATOM     23  N   UNL d   1      48.796  34.899  52.000  0.00  0.00    -0.206 NA
BRANCH  23  24
ATOM     24  C   UNL d   1      48.159  35.431  52.017  0.00  0.00     0.104 C 
BRANCH  24  25
ATOM     25  C   UNL d   1      47.570  35.359  51.460  0.00  0.00     0.047 C 
BRANCH  25  26
ATOM     26  C   UNL d   1      46.845  35.712  51.606  0.00  0.00     0.118 C 
BRANCH  26  27
ATOM     27  O   UNL d   1      46.170  35.433  51.267  0.00  0.00    -0.326 OA
ATOM     28  C   UNL d   1      45.462  35.842  51.331  0.00  0.00     0.181 C 
ENDBRANCH  26  27
ENDBRANCH  25  26
ENDBRANCH  24  25
ENDBRANCH  23  24
ENDBRANCH  20  21
ENDBRANCH  19  20
ENDBRANCH   9  19
TORSDOF 7
ENDMDL
MODEL 2
REMARK VINA RESULT:      -9.7      0.973      1.997
REMARK  7 active torsions:
REMARK  status: ('A' for Active; 'I' for Inactive)
REMARK    1  A    between atoms: S_10  and  C_9 
REMARK    2  A    between atoms: C_15  and  S_10 
REMARK    3  A    between atoms: C_11  and  C_15 
REMARK       I    between atoms: N_16  and  C_11 
REMARK    4  A    between atoms: C_24  and  N_16 
REMARK    5  A    between atoms: C_21  and  C_24 
REMARK    6  A    between atoms: C_25  and  C_21 
REMARK    7  A    between atoms: O_23  and  C_25 
ROOT
ATOM      1  C   UNL d   1      52.666  33.197  53.540  0.00  0.00     0.004 A 
ATOM      2  C   UNL d   1      52.952  33.843  53.950  0.00  0.00     0.000 A 
ATOM      3  C   UNL d   1      53.081  32.480  53.529  0.00  0.00     0.039 A 
ATOM      4  C   UNL d   1      53.788  32.395  53.928  0.00  0.00     0.196 A 
ATOM      5  C   UNL d   1      53.671  33.765  54.359  0.00  0.00     0.003 A 
ATOM      6  C   UNL d   1      54.097  33.029  54.347  0.00  0.00     0.039 A 
ATOM      7  C   UNL d   1      51.946  33.274  53.131  0.00  0.00     0.006 A 
ATOM      8  C   UNL d   1      52.538  34.559  53.962  0.00  0.00     0.001 A 
ATOM      9  C   UNL d   1      51.532  33.990  53.142  0.00  0.00     0.030 A 
ATOM     10  O   UNL d   1      54.205  31.675  53.916  0.00  0.00    -0.287 OA
ATOM     11  C   UNL d   1      51.842  34.623  53.563  0.00  0.00     0.006 A 
ATOM     12  C   UNL d   1      52.783  31.827  53.108  0.00  0.00     0.003 A 
ATOM     13  C   UNL d   1      53.968  34.417  54.779  0.00  0.00     0.000 A 
ATOM     14  C   UNL d   1      54.805  32.970  54.756  0.00  0.00     0.003 A 
ATOM     15  C   UNL d   1      51.649  32.622  52.711  0.00  0.00     0.001 A 
ATOM     16  C   UNL d   1      52.026  31.916  52.681  0.00  0.00     0.000 A 
ATOM     17  C   UNL d   1      55.118  33.606  55.179  0.00  0.00     0.000 A 
ATOM     18  C   UNL d   1      54.676  34.370  55.191  0.00  0.00     0.000 A 
ENDROOT
BRANCH   9  19
ATOM     19  S   UNL d   1      50.807  34.078  52.734  0.00  0.00    -0.081 SA
BRANCH  19  20
ATOM     20  C   UNL d   1      50.256  34.646  52.983  0.00  0.00     0.098 C 
BRANCH  20  21
ATOM     21  C   UNL d   1      49.599  34.793  52.560  0.00  0.00     0.286 C 
ATOM     22  O   UNL d   1      49.499  34.451  51.820  0.00  0.00    -0.265 OA
ATOM     23  N   UNL d   1      49.013  35.285  52.855  0.00  0.00    -0.206 NA
BRANCH  23  24
ATOM     24  C   UNL d   1      48.320  35.449  52.429  0.00  0.00     0.104 C 
BRANCH  24  25
ATOM     25  C   UNL d   1      47.792  35.992  52.726  0.00  0.00     0.047 C 
BRANCH  25  26
ATOM     26  C   UNL d   1      47.061  36.069  52.365  0.00  0.00     0.118 C 
BRANCH  26  27
ATOM     27  O   UNL d   1      46.592  36.708  52.506  0.00  0.00    -0.326 OA
ATOM     28  C   UNL d   1      45.777  36.665  52.416  0.00  0.00     0.181 C 
ENDBRANCH  26  27
ENDBRANCH  25  26
ENDBRANCH  24  25
ENDBRANCH  23  24
ENDBRANCH  20  21
ENDBRANCH  19  20
ENDBRANCH   9  19
TORSDOF 7
ENDMDL
