MODEL 1
REMARK VINA RESULT:      -4.9      0.000      0.000
REMARK  9 active torsions:
REMARK  status: ('A' for Active; 'I' for Inactive)
REMARK    1  A    between atoms: N_5  and  S_1 
REMARK    2  A    between atoms: C_8  and  S_1 
REMARK    3  A    between atoms: C_2  and  N_10 
REMARK    4  A    between atoms: C_9  and  N_5 
REMARK    5  A    between atoms: C_25  and  N_5 
REMARK    6  A    between atoms: C_13  and  C_9 
REMARK    7  A    between atoms: N_10  and  O_14 
REMARK    8  A    between atoms: C_17  and  C_13 
REMARK    9  A    between atoms: O_14  and  C_17 
ROOT
ATOM      1  C   UNL d   1     -44.484  13.005  21.606  0.00  0.00     0.240 C 
ATOM      2  O   UNL d   1     -44.906  12.789  20.925  0.00  0.00    -0.283 OA
ENDROOT
BRANCH   1   3
ATOM      3  C   UNL d   1     -43.816  12.972  21.115  0.00  0.00     0.136 C 
BRANCH   3   4
ATOM      4  N   UNL d   1     -43.064  12.934  21.458  0.00  0.00    -0.226 N 
BRANCH   4   5
ATOM      5  S   UNL d   1     -42.425  13.335  21.112  0.00  0.00     0.271 S 
ATOM      6  O   UNL d   1     -42.381  12.592  20.745  0.00  0.00    -0.200 OA
ATOM      7  O   UNL d   1     -42.296  14.113  21.351  0.00  0.00    -0.200 OA
BRANCH   5   8
ATOM      8  C   UNL d   1     -41.878  13.916  20.921  0.00  0.00     0.104 A 
ATOM      9  C   UNL d   1     -41.950  14.669  21.241  0.00  0.00     0.013 A 
ATOM     10  C   UNL d   1     -41.397  15.255  21.047  0.00  0.00     0.001 A 
ATOM     11  C   UNL d   1     -40.772  15.080  20.529  0.00  0.00     0.000 A 
ATOM     12  C   UNL d   1     -40.750  14.307  20.238  0.00  0.00     0.001 A 
ATOM     13  C   UNL d   1     -40.208  15.647  20.321  0.00  0.00     0.000 C 
ATOM     14  C   UNL d   1     -41.276  13.702  20.405  0.00  0.00     0.013 A 
ENDBRANCH   5   8
ENDBRANCH   4   5
BRANCH   4  15
ATOM     15  C   UNL d   1     -42.785  12.548  22.134  0.00  0.00     0.092 C 
ATOM     16  C   UNL d   1     -42.855  11.728  22.194  0.00  0.00     0.021 C 
ENDBRANCH   4  15
ENDBRANCH   3   4
ENDBRANCH   1   3
BRANCH   1  17
ATOM     17  C   UNL d   1     -44.874  13.127  22.321  0.00  0.00     0.193 C 
BRANCH  17  18
ATOM     18  O   UNL d   1     -45.697  13.207  22.327  0.00  0.00    -0.206 OA
BRANCH  18  19
ATOM     19  N   UNL d   1     -46.092  13.365  23.032  0.00  0.00    -0.126 NA
BRANCH  19  20
ATOM     20  C   UNL d   1     -46.917  13.315  23.068  0.00  0.00     0.108 A 
ATOM     21  C   UNL d   1     -47.449  13.925  22.893  0.00  0.00     0.020 A 
ATOM     22  C   UNL d   1     -48.214  13.633  23.002  0.00  0.00     0.002 A 
ATOM     23  C   UNL d   1     -47.337  14.705  22.650  0.00  0.00     0.002 A 
ATOM     24  C   UNL d   1     -48.865  14.123  22.867  0.00  0.00     0.000 A 
ATOM     25  C   UNL d   1     -48.164  12.849  23.242  0.00  0.00     0.002 A 
ATOM     26  C   UNL d   1     -48.752  14.903  22.624  0.00  0.00     0.000 A 
ATOM     27  C   UNL d   1     -47.988  15.195  22.516  0.00  0.00     0.000 A 
ATOM     28  C   UNL d   1     -47.363  12.654  23.282  0.00  0.00     0.020 A 
ATOM     29  C   UNL d   1     -48.733  12.283  23.430  0.00  0.00     0.000 A 
ATOM     30  C   UNL d   1     -47.131  11.898  23.509  0.00  0.00     0.002 A 
ATOM     31  C   UNL d   1     -47.699  11.332  23.697  0.00  0.00     0.000 A 
ATOM     32  C   UNL d   1     -48.504  11.526  23.657  0.00  0.00     0.000 A 
ENDBRANCH  19  20
ENDBRANCH  18  19
ENDBRANCH  17  18
ENDBRANCH   1  17
TORSDOF 9
ENDMDL
MODEL 2
REMARK VINA RESULT:      -4.8      1.462      6.645
REMARK  9 active torsions:
REMARK  status: ('A' for Active; 'I' for Inactive)
REMARK    1  A    between atoms: N_5  and  S_1 
REMARK    2  A    between atoms: C_8  and  S_1 
REMARK    3  A    between atoms: C_2  and  N_10 
REMARK    4  A    between atoms: C_9  and  N_5 
REMARK    5  A    between atoms: C_25  and  N_5 
REMARK    6  A    between atoms: C_13  and  C_9 
REMARK    7  A    between atoms: N_10  and  O_14 
REMARK    8  A    between atoms: C_17  and  C_13 
REMARK    9  A    between atoms: O_14  and  C_17 
ROOT
ATOM      1  C   UNL d   1     -43.226  13.052  21.259  0.00  0.00     0.240 C 
ATOM      2  O   UNL d   1     -43.238  12.601  20.563  0.00  0.00    -0.283 OA
ENDROOT
BRANCH   1   3
ATOM      3  C   UNL d   1     -44.011  12.797  21.352  0.00  0.00     0.136 C 
BRANCH   3   4
ATOM      4  N   UNL d   1     -44.274  12.565  22.101  0.00  0.00    -0.226 N 
BRANCH   4   5
ATOM      5  S   UNL d   1     -45.026  12.789  22.368  0.00  0.00     0.271 S 
ATOM      6  O   UNL d   1     -44.849  12.154  22.871  0.00  0.00    -0.200 OA
ATOM      7  O   UNL d   1     -45.387  13.424  21.985  0.00  0.00    -0.200 OA
BRANCH   5   8
ATOM      8  C   UNL d   1     -45.742  13.184  22.447  0.00  0.00     0.104 A 
ATOM      9  C   UNL d   1     -45.763  13.937  22.773  0.00  0.00     0.013 A 
ATOM     10  C   UNL d   1     -46.487  14.333  22.852  0.00  0.00     0.001 A 
ATOM     11  C   UNL d   1     -47.189  13.968  22.601  0.00  0.00     0.000 A 
ATOM     12  C   UNL d   1     -47.108  13.210  22.282  0.00  0.00     0.001 A 
ATOM     13  C   UNL d   1     -47.922  14.343  22.670  0.00  0.00     0.000 C 
ATOM     14  C   UNL d   1     -46.413  12.787  22.187  0.00  0.00     0.013 A 
ENDBRANCH   5   8
ENDBRANCH   4   5
BRANCH   4  15
ATOM     15  C   UNL d   1     -43.917  12.116  22.696  0.00  0.00     0.092 C 
ATOM     16  C   UNL d   1     -43.725  11.326  22.553  0.00  0.00     0.021 C 
ENDBRANCH   4  15
ENDBRANCH   3   4
ENDBRANCH   1   3
BRANCH   1  17
ATOM     17  C   UNL d   1     -42.549  13.465  21.480  0.00  0.00     0.193 C 
BRANCH  17  18
ATOM     18  O   UNL d   1     -41.962  13.616  20.918  0.00  0.00    -0.206 OA
BRANCH  18  19
ATOM     19  N   UNL d   1     -41.466  14.268  21.002  0.00  0.00    -0.126 NA
BRANCH  19  20
ATOM     20  C   UNL d   1     -40.708  14.260  20.673  0.00  0.00     0.108 A 
ATOM     21  C   UNL d   1     -40.005  14.087  21.074  0.00  0.00     0.020 A 
ATOM     22  C   UNL d   1     -39.383  14.144  20.534  0.00  0.00     0.002 A 
ATOM     23  C   UNL d   1     -39.851  13.886  21.860  0.00  0.00     0.002 A 
ATOM     24  C   UNL d   1     -38.608  13.999  20.780  0.00  0.00     0.000 A 
ATOM     25  C   UNL d   1     -39.691  14.350  19.801  0.00  0.00     0.002 A 
ATOM     26  C   UNL d   1     -38.455  13.799  21.565  0.00  0.00     0.000 A 
ATOM     27  C   UNL d   1     -39.076  13.742  22.106  0.00  0.00     0.000 A 
ATOM     28  C   UNL d   1     -40.508  14.421  19.888  0.00  0.00     0.020 A 
ATOM     29  C   UNL d   1     -39.345  14.483  19.065  0.00  0.00     0.000 A 
ATOM     30  C   UNL d   1     -40.978  14.624  19.244  0.00  0.00     0.002 A 
ATOM     31  C   UNL d   1     -40.633  14.757  18.508  0.00  0.00     0.000 A 
ATOM     32  C   UNL d   1     -39.811  14.686  18.419  0.00  0.00     0.000 A 
ENDBRANCH  19  20
ENDBRANCH  18  19
ENDBRANCH  17  18
ENDBRANCH   1  17
TORSDOF 9
ENDMDL
MODEL 3
REMARK VINA RESULT:      -4.7      0.315      1.683
REMARK  9 active torsions:
REMARK  status: ('A' for Active; 'I' for Inactive)
REMARK    1  A    between atoms: N_5  and  S_1 
REMARK    2  A    between atoms: C_8  and  S_1 
REMARK    3  A    between atoms: C_2  and  N_10 
REMARK    4  A    between atoms: C_9  and  N_5 
REMARK    5  A    between atoms: C_25  and  N_5 
REMARK    6  A    between atoms: C_13  and  C_9 
REMARK    7  A    between atoms: N_10  and  O_14 
REMARK    8  A    between atoms: C_17  and  C_13 
REMARK    9  A    between atoms: O_14  and  C_17 
ROOT
ATOM      1  C   UNL d   1     -44.398  13.042  21.612  0.00  0.00     0.240 C 
ATOM      2  O   UNL d   1     -44.788  12.627  21.010  0.00  0.00    -0.283 OA
ENDROOT
BRANCH   1   3
ATOM      3  C   UNL d   1     -43.739  13.010  21.108  0.00  0.00     0.136 C 
BRANCH   3   4
ATOM      4  N   UNL d   1     -42.984  12.923  21.437  0.00  0.00    -0.226 N 
BRANCH   4   5
ATOM      5  S   UNL d   1     -42.325  13.263  21.064  0.00  0.00     0.271 S 
ATOM      6  O   UNL d   1     -42.398  12.542  20.660  0.00  0.00    -0.200 OA
ATOM      7  O   UNL d   1     -42.085  14.006  21.330  0.00  0.00    -0.200 OA
BRANCH   5   8
ATOM      8  C   UNL d   1     -41.724  13.785  20.862  0.00  0.00     0.104 A 
ATOM      9  C   UNL d   1     -41.227  14.085  21.442  0.00  0.00     0.013 A 
ATOM     10  C   UNL d   1     -40.621  14.611  21.236  0.00  0.00     0.001 A 
ATOM     11  C   UNL d   1     -40.518  14.834  20.443  0.00  0.00     0.000 A 
ATOM     12  C   UNL d   1     -41.047  14.502  19.903  0.00  0.00     0.001 A 
ATOM     13  C   UNL d   1     -39.921  15.357  20.214  0.00  0.00     0.000 C 
ATOM     14  C   UNL d   1     -41.657  13.980  20.067  0.00  0.00     0.013 A 
ENDBRANCH   5   8
ENDBRANCH   4   5
BRANCH   4  15
ATOM     15  C   UNL d   1     -42.720  12.537  22.117  0.00  0.00     0.092 C 
ATOM     16  C   UNL d   1     -42.868  11.730  22.212  0.00  0.00     0.021 C 
ENDBRANCH   4  15
ENDBRANCH   3   4
ENDBRANCH   1   3
BRANCH   1  17
ATOM     17  C   UNL d   1     -44.794  13.250  22.304  0.00  0.00     0.193 C 
BRANCH  17  18
ATOM     18  O   UNL d   1     -45.618  13.193  22.334  0.00  0.00    -0.206 OA
BRANCH  18  19
ATOM     19  N   UNL d   1     -46.021  13.388  23.025  0.00  0.00    -0.126 NA
BRANCH  19  20
ATOM     20  C   UNL d   1     -46.847  13.348  23.051  0.00  0.00     0.108 A 
ATOM     21  C   UNL d   1     -47.295  12.684  23.263  0.00  0.00     0.020 A 
ATOM     22  C   UNL d   1     -48.093  12.891  23.213  0.00  0.00     0.002 A 
ATOM     23  C   UNL d   1     -47.081  11.922  23.494  0.00  0.00     0.002 A 
ATOM     24  C   UNL d   1     -48.675  12.334  23.394  0.00  0.00     0.000 A 
ATOM     25  C   UNL d   1     -48.147  13.675  22.973  0.00  0.00     0.002 A 
ATOM     26  C   UNL d   1     -48.460  11.572  23.624  0.00  0.00     0.000 A 
ATOM     27  C   UNL d   1     -47.663  11.365  23.674  0.00  0.00     0.000 A 
ATOM     28  C   UNL d   1     -47.376  13.955  22.874  0.00  0.00     0.020 A 
ATOM     29  C   UNL d   1     -48.785  14.174  22.830  0.00  0.00     0.000 A 
ATOM     30  C   UNL d   1     -47.245  14.731  22.633  0.00  0.00     0.002 A 
ATOM     31  C   UNL d   1     -47.884  15.231  22.490  0.00  0.00     0.000 A 
ATOM     32  C   UNL d   1     -48.658  14.951  22.589  0.00  0.00     0.000 A 
ENDBRANCH  19  20
ENDBRANCH  18  19
ENDBRANCH  17  18
ENDBRANCH   1  17
TORSDOF 9
ENDMDL
MODEL 4
REMARK VINA RESULT:      -4.5      1.799      3.573
REMARK  9 active torsions:
REMARK  status: ('A' for Active; 'I' for Inactive)
REMARK    1  A    between atoms: N_5  and  S_1 
REMARK    2  A    between atoms: C_8  and  S_1 
REMARK    3  A    between atoms: C_2  and  N_10 
REMARK    4  A    between atoms: C_9  and  N_5 
REMARK    5  A    between atoms: C_25  and  N_5 
REMARK    6  A    between atoms: C_13  and  C_9 
REMARK    7  A    between atoms: N_10  and  O_14 
REMARK    8  A    between atoms: C_17  and  C_13 
REMARK    9  A    between atoms: O_14  and  C_17 
ROOT
ATOM      1  C   UNL d   1     -41.823  13.589  21.298  0.00  0.00     0.240 C 
ATOM      2  O   UNL d   1     -41.437  13.415  22.012  0.00  0.00    -0.283 OA
ENDROOT
BRANCH   1   3
ATOM      3  C   UNL d   1     -41.078  13.850  21.043  0.00  0.00     0.136 C 
BRANCH   3   4
ATOM      4  N   UNL d   1     -41.032  14.491  20.521  0.00  0.00    -0.226 N 
BRANCH   4   5
ATOM      5  S   UNL d   1     -40.504  14.471  19.881  0.00  0.00     0.271 S 
ATOM      6  O   UNL d   1     -40.055  14.857  20.462  0.00  0.00    -0.200 OA
ATOM      7  O   UNL d   1     -40.769  14.116  19.185  0.00  0.00    -0.200 OA
BRANCH   5   8
ATOM      8  C   UNL d   1     -40.178  14.334  19.140  0.00  0.00     0.104 A 
ATOM      9  C   UNL d   1     -40.619  14.484  18.463  0.00  0.00     0.013 A 
ATOM     10  C   UNL d   1     -40.289  14.345  17.716  0.00  0.00     0.001 A 
ATOM     11  C   UNL d   1     -39.514  14.055  17.653  0.00  0.00     0.000 A 
ATOM     12  C   UNL d   1     -39.118  13.923  18.366  0.00  0.00     0.001 A 
ATOM     13  C   UNL d   1     -39.163  13.909  16.919  0.00  0.00     0.000 C 
ATOM     14  C   UNL d   1     -39.409  14.047  19.121  0.00  0.00     0.013 A 
ENDBRANCH   5   8
ENDBRANCH   4   5
BRANCH   4  15
ATOM     15  C   UNL d   1     -41.435  15.211  20.495  0.00  0.00     0.092 C 
ATOM     16  C   UNL d   1     -41.242  15.807  21.032  0.00  0.00     0.021 C 
ENDBRANCH   4  15
ENDBRANCH   3   4
ENDBRANCH   1   3
BRANCH   1  17
ATOM     17  C   UNL d   1     -42.628  13.440  21.209  0.00  0.00     0.193 C 
BRANCH  17  18
ATOM     18  O   UNL d   1     -43.021  12.974  21.769  0.00  0.00    -0.206 OA
BRANCH  18  19
ATOM     19  N   UNL d   1     -43.671  12.520  21.546  0.00  0.00    -0.126 NA
BRANCH  19  20
ATOM     20  C   UNL d   1     -44.224  12.280  22.112  0.00  0.00     0.108 A 
ATOM     21  C   UNL d   1     -44.163  11.615  22.601  0.00  0.00     0.020 A 
ATOM     22  C   UNL d   1     -44.836  11.587  23.078  0.00  0.00     0.002 A 
ATOM     23  C   UNL d   1     -43.583  11.032  22.673  0.00  0.00     0.002 A 
ATOM     24  C   UNL d   1     -44.928  10.977  23.626  0.00  0.00     0.000 A 
ATOM     25  C   UNL d   1     -45.316  12.228  22.892  0.00  0.00     0.002 A 
ATOM     26  C   UNL d   1     -44.349  10.395  23.698  0.00  0.00     0.000 A 
ATOM     27  C   UNL d   1     -43.676  10.422  23.221  0.00  0.00     0.000 A 
ATOM     28  C   UNL d   1     -44.936  12.655  22.296  0.00  0.00     0.020 A 
ATOM     29  C   UNL d   1     -46.043  12.485  23.179  0.00  0.00     0.000 A 
ATOM     30  C   UNL d   1     -45.282  13.335  21.988  0.00  0.00     0.002 A 
ATOM     31  C   UNL d   1     -46.010  13.593  22.275  0.00  0.00     0.000 A 
ATOM     32  C   UNL d   1     -46.392  13.165  22.874  0.00  0.00     0.000 A 
ENDBRANCH  19  20
ENDBRANCH  18  19
ENDBRANCH  17  18
ENDBRANCH   1  17
TORSDOF 9
ENDMDL
MODEL 5
REMARK VINA RESULT:      -4.0      1.536      2.580
REMARK  9 active torsions:
REMARK  status: ('A' for Active; 'I' for Inactive)
REMARK    1  A    between atoms: N_5  and  S_1 
REMARK    2  A    between atoms: C_8  and  S_1 
REMARK    3  A    between atoms: C_2  and  N_10 
REMARK    4  A    between atoms: C_9  and  N_5 
REMARK    5  A    between atoms: C_25  and  N_5 
REMARK    6  A    between atoms: C_13  and  C_9 
REMARK    7  A    between atoms: N_10  and  O_14 
REMARK    8  A    between atoms: C_17  and  C_13 
REMARK    9  A    between atoms: O_14  and  C_17 
ROOT
ATOM      1  C   UNL d   1     -46.522  13.485  22.651  0.00  0.00     0.240 C 
ATOM      2  O   UNL d   1     -46.400  14.002  23.288  0.00  0.00    -0.283 OA
ENDROOT
BRANCH   1   3
ATOM      3  C   UNL d   1     -45.694  13.420  22.640  0.00  0.00     0.136 C 
BRANCH   3   4
ATOM      4  N   UNL d   1     -45.349  12.677  22.518  0.00  0.00    -0.226 N 
BRANCH   4   5
ATOM      5  S   UNL d   1     -44.621  12.614  22.126  0.00  0.00     0.271 S 
ATOM      6  O   UNL d   1     -44.905  11.835  22.088  0.00  0.00    -0.200 OA
ATOM      7  O   UNL d   1     -44.171  13.302  22.056  0.00  0.00    -0.200 OA
BRANCH   5   8
ATOM      8  C   UNL d   1     -43.894  12.799  21.793  0.00  0.00     0.104 A 
ATOM      9  C   UNL d   1     -43.278  12.257  21.822  0.00  0.00     0.013 A 
ATOM     10  C   UNL d   1     -42.545  12.446  21.485  0.00  0.00     0.001 A 
ATOM     11  C   UNL d   1     -42.435  13.183  21.119  0.00  0.00     0.000 A 
ATOM     12  C   UNL d   1     -43.088  13.688  21.120  0.00  0.00     0.001 A 
ATOM     13  C   UNL d   1     -41.712  13.394  20.777  0.00  0.00     0.000 C 
ATOM     14  C   UNL d   1     -43.827  13.539  21.441  0.00  0.00     0.013 A 
ENDBRANCH   5   8
ENDBRANCH   4   5
BRANCH   4  15
ATOM     15  C   UNL d   1     -45.595  11.916  22.722  0.00  0.00     0.092 C 
ATOM     16  C   UNL d   1     -45.593  11.684  23.515  0.00  0.00     0.021 C 
ENDBRANCH   4  15
ENDBRANCH   3   4
ENDBRANCH   1   3
BRANCH   1  17
ATOM     17  C   UNL d   1     -47.283  13.318  22.385  0.00  0.00     0.193 C 
BRANCH  17  18
ATOM     18  O   UNL d   1     -47.924  13.740  22.692  0.00  0.00    -0.206 OA
BRANCH  18  19
ATOM     19  N   UNL d   1     -48.648  13.738  22.300  0.00  0.00    -0.126 NA
BRANCH  19  20
ATOM     20  C   UNL d   1     -49.353  13.813  22.725  0.00  0.00     0.108 A 
ATOM     21  C   UNL d   1     -49.697  14.524  22.975  0.00  0.00     0.020 A 
ATOM     22  C   UNL d   1     -50.393  14.341  23.379  0.00  0.00     0.002 A 
ATOM     23  C   UNL d   1     -49.467  15.312  22.886  0.00  0.00     0.002 A 
ATOM     24  C   UNL d   1     -50.858  14.946  23.694  0.00  0.00     0.000 A 
ATOM     25  C   UNL d   1     -50.486  13.525  23.384  0.00  0.00     0.002 A 
ATOM     26  C   UNL d   1     -50.628  15.733  23.605  0.00  0.00     0.000 A 
ATOM     27  C   UNL d   1     -49.932  15.917  23.202  0.00  0.00     0.000 A 
ATOM     28  C   UNL d   1     -49.843  13.201  22.980  0.00  0.00     0.020 A 
ATOM     29  C   UNL d   1     -51.064  13.029  23.698  0.00  0.00     0.000 A 
ATOM     30  C   UNL d   1     -49.778  12.386  22.890  0.00  0.00     0.002 A 
ATOM     31  C   UNL d   1     -50.356  11.889  23.204  0.00  0.00     0.000 A 
ATOM     32  C   UNL d   1     -51.002  12.213  23.610  0.00  0.00     0.000 A 
ENDBRANCH  19  20
ENDBRANCH  18  19
ENDBRANCH  17  18
ENDBRANCH   1  17
TORSDOF 9
ENDMDL
MODEL 6
REMARK VINA RESULT:      -3.3      1.365      2.527
REMARK  9 active torsions:
REMARK  status: ('A' for Active; 'I' for Inactive)
REMARK    1  A    between atoms: N_5  and  S_1 
REMARK    2  A    between atoms: C_8  and  S_1 
REMARK    3  A    between atoms: C_2  and  N_10 
REMARK    4  A    between atoms: C_9  and  N_5 
REMARK    5  A    between atoms: C_25  and  N_5 
REMARK    6  A    between atoms: C_13  and  C_9 
REMARK    7  A    between atoms: N_10  and  O_14 
REMARK    8  A    between atoms: C_17  and  C_13 
REMARK    9  A    between atoms: O_14  and  C_17 
ROOT
ATOM      1  C   UNL d   1     -43.021  13.006  21.444  0.00  0.00     0.240 C 
ATOM      2  O   UNL d   1     -42.878  12.191  21.494  0.00  0.00    -0.283 OA
ENDROOT
BRANCH   1   3
ATOM      3  C   UNL d   1     -42.195  13.074  21.388  0.00  0.00     0.136 C 
BRANCH   3   4
ATOM      4  N   UNL d   1     -41.870  13.692  20.945  0.00  0.00    -0.226 N 
BRANCH   4   5
ATOM      5  S   UNL d   1     -41.209  14.106  21.227  0.00  0.00     0.271 S 
ATOM      6  O   UNL d   1     -41.737  14.722  21.058  0.00  0.00    -0.200 OA
ATOM      7  O   UNL d   1     -40.554  13.658  21.456  0.00  0.00    -0.200 OA
BRANCH   5   8
ATOM      8  C   UNL d   1     -40.464  14.279  21.528  0.00  0.00     0.104 A 
ATOM      9  C   UNL d   1     -39.944  13.671  21.712  0.00  0.00     0.013 A 
ATOM     10  C   UNL d   1     -39.193  13.848  22.016  0.00  0.00     0.001 A 
ATOM     11  C   UNL d   1     -38.969  14.639  22.133  0.00  0.00     0.000 A 
ATOM     12  C   UNL d   1     -39.533  15.208  21.931  0.00  0.00     0.001 A 
ATOM     13  C   UNL d   1     -38.226  14.839  22.435  0.00  0.00     0.000 C 
ATOM     14  C   UNL d   1     -40.282  15.074  21.629  0.00  0.00     0.013 A 
ENDBRANCH   5   8
ENDBRANCH   4   5
BRANCH   4  15
ATOM     15  C   UNL d   1     -42.079  14.016  20.214  0.00  0.00     0.092 C 
ATOM     16  C   UNL d   1     -41.811  13.662  19.518  0.00  0.00     0.021 C 
ENDBRANCH   4  15
ENDBRANCH   3   4
ENDBRANCH   1   3
BRANCH   1  17
ATOM     17  C   UNL d   1     -43.789  13.301  21.469  0.00  0.00     0.193 C 
BRANCH  17  18
ATOM     18  O   UNL d   1     -44.366  12.899  21.905  0.00  0.00    -0.206 OA
BRANCH  18  19
ATOM     19  N   UNL d   1     -44.715  13.257  22.559  0.00  0.00    -0.126 NA
BRANCH  19  20
ATOM     20  C   UNL d   1     -45.495  13.075  22.767  0.00  0.00     0.108 A 
ATOM     21  C   UNL d   1     -45.760  12.355  23.078  0.00  0.00     0.020 A 
ATOM     22  C   UNL d   1     -46.573  12.416  23.203  0.00  0.00     0.002 A 
ATOM     23  C   UNL d   1     -45.367  11.653  23.264  0.00  0.00     0.002 A 
ATOM     24  C   UNL d   1     -46.993  11.777  23.513  0.00  0.00     0.000 A 
ATOM     25  C   UNL d   1     -46.818  13.167  22.973  0.00  0.00     0.002 A 
ATOM     26  C   UNL d   1     -46.599  11.076  23.698  0.00  0.00     0.000 A 
ATOM     27  C   UNL d   1     -45.787  11.013  23.574  0.00  0.00     0.000 A 
ATOM     28  C   UNL d   1     -46.151  13.571  22.704  0.00  0.00     0.020 A 
ATOM     29  C   UNL d   1     -47.552  13.540  22.969  0.00  0.00     0.000 A 
ATOM     30  C   UNL d   1     -46.216  14.345  22.432  0.00  0.00     0.002 A 
ATOM     31  C   UNL d   1     -46.950  14.719  22.429  0.00  0.00     0.000 A 
ATOM     32  C   UNL d   1     -47.622  14.314  22.698  0.00  0.00     0.000 A 
ENDBRANCH  19  20
ENDBRANCH  18  19
ENDBRANCH  17  18
ENDBRANCH   1  17
TORSDOF 9
ENDMDL
MODEL 7
REMARK VINA RESULT:      -3.2      3.112      6.457
REMARK  9 active torsions:
REMARK  status: ('A' for Active; 'I' for Inactive)
REMARK    1  A    between atoms: N_5  and  S_1 
REMARK    2  A    between atoms: C_8  and  S_1 
REMARK    3  A    between atoms: C_2  and  N_10 
REMARK    4  A    between atoms: C_9  and  N_5 
REMARK    5  A    between atoms: C_25  and  N_5 
REMARK    6  A    between atoms: C_13  and  C_9 
REMARK    7  A    between atoms: N_10  and  O_14 
REMARK    8  A    between atoms: C_17  and  C_13 
REMARK    9  A    between atoms: O_14  and  C_17 
ROOT
ATOM      1  C   UNL d   1     -48.668  11.440  22.934  0.00  0.00     0.240 C 
ATOM      2  O   UNL d   1     -48.698  11.035  22.210  0.00  0.00    -0.283 OA
ENDROOT
BRANCH   1   3
ATOM      3  C   UNL d   1     -49.425  11.712  22.730  0.00  0.00     0.136 C 
BRANCH   3   4
ATOM      4  N   UNL d   1     -49.498  12.330  22.184  0.00  0.00    -0.226 N 
BRANCH   4   5
ATOM      5  S   UNL d   1     -49.972  12.988  22.359  0.00  0.00     0.271 S 
ATOM      6  O   UNL d   1     -50.469  12.546  21.864  0.00  0.00    -0.200 OA
ATOM      7  O   UNL d   1     -49.649  13.563  22.854  0.00  0.00    -0.200 OA
BRANCH   5   8
ATOM      8  C   UNL d   1     -50.235  13.703  22.666  0.00  0.00     0.104 A 
ATOM      9  C   UNL d   1     -50.012  14.410  22.312  0.00  0.00     0.013 A 
ATOM     10  C   UNL d   1     -50.278  15.130  22.623  0.00  0.00     0.001 A 
ATOM     11  C   UNL d   1     -50.769  15.136  23.293  0.00  0.00     0.000 A 
ATOM     12  C   UNL d   1     -50.960  14.396  23.607  0.00  0.00     0.001 A 
ATOM     13  C   UNL d   1     -51.046  15.842  23.621  0.00  0.00     0.000 C 
ATOM     14  C   UNL d   1     -50.718  13.665  23.329  0.00  0.00     0.013 A 
ENDBRANCH   5   8
ENDBRANCH   4   5
BRANCH   4  15
ATOM     15  C   UNL d   1     -49.172  12.444  21.434  0.00  0.00     0.092 C 
ATOM     16  C   UNL d   1     -49.584  12.186  20.766  0.00  0.00     0.021 C 
ENDBRANCH   4  15
ENDBRANCH   3   4
ENDBRANCH   1   3
BRANCH   1  17
ATOM     17  C   UNL d   1     -48.006  11.382  23.420  0.00  0.00     0.193 C 
BRANCH  17  18
ATOM     18  O   UNL d   1     -47.251  11.458  23.092  0.00  0.00    -0.206 OA
BRANCH  18  19
ATOM     19  N   UNL d   1     -46.627  11.741  23.550  0.00  0.00    -0.126 NA
BRANCH  19  20
ATOM     20  C   UNL d   1     -45.864  11.784  23.234  0.00  0.00     0.108 A 
ATOM     21  C   UNL d   1     -45.272  11.211  23.313  0.00  0.00     0.020 A 
ATOM     22  C   UNL d   1     -44.603  11.480  22.912  0.00  0.00     0.002 A 
ATOM     23  C   UNL d   1     -45.255  10.481  23.697  0.00  0.00     0.002 A 
ATOM     24  C   UNL d   1     -43.918  11.019  22.895  0.00  0.00     0.000 A 
ATOM     25  C   UNL d   1     -44.772  12.214  22.583  0.00  0.00     0.002 A 
ATOM     26  C   UNL d   1     -43.902  10.290  23.280  0.00  0.00     0.000 A 
ATOM     27  C   UNL d   1     -44.570  10.020  23.681  0.00  0.00     0.000 A 
ATOM     28  C   UNL d   1     -45.551  12.400  22.783  0.00  0.00     0.020 A 
ATOM     29  C   UNL d   1     -44.329  12.741  22.131  0.00  0.00     0.000 A 
ATOM     30  C   UNL d   1     -45.886  13.108  22.533  0.00  0.00     0.002 A 
ATOM     31  C   UNL d   1     -45.443  13.636  22.080  0.00  0.00     0.000 A 
ATOM     32  C   UNL d   1     -44.660  13.450  21.879  0.00  0.00     0.000 A 
ENDBRANCH  19  20
ENDBRANCH  18  19
ENDBRANCH  17  18
ENDBRANCH   1  17
TORSDOF 9
ENDMDL
MODEL 8
REMARK VINA RESULT:      -3.1      1.368      2.100
REMARK  9 active torsions:
REMARK  status: ('A' for Active; 'I' for Inactive)
REMARK    1  A    between atoms: N_5  and  S_1 
REMARK    2  A    between atoms: C_8  and  S_1 
REMARK    3  A    between atoms: C_2  and  N_10 
REMARK    4  A    between atoms: C_9  and  N_5 
REMARK    5  A    between atoms: C_25  and  N_5 
REMARK    6  A    between atoms: C_13  and  C_9 
REMARK    7  A    between atoms: N_10  and  O_14 
REMARK    8  A    between atoms: C_17  and  C_13 
REMARK    9  A    between atoms: O_14  and  C_17 
ROOT
ATOM      1  C   UNL d   1     -42.953  13.266  21.175  0.00  0.00     0.240 C 
ATOM      2  O   UNL d   1     -42.854  12.453  21.045  0.00  0.00    -0.283 OA
ENDROOT
BRANCH   1   3
ATOM      3  C   UNL d   1     -42.141  13.318  21.009  0.00  0.00     0.136 C 
BRANCH   3   4
ATOM      4  N   UNL d   1     -41.832  14.033  20.728  0.00  0.00    -0.226 N 
BRANCH   4   5
ATOM      5  S   UNL d   1     -41.159  14.034  20.243  0.00  0.00     0.271 S 
ATOM      6  O   UNL d   1     -40.823  14.012  21.001  0.00  0.00    -0.200 OA
ATOM      7  O   UNL d   1     -41.284  14.055  19.428  0.00  0.00    -0.200 OA
BRANCH   5   8
ATOM      8  C   UNL d   1     -40.672  14.042  19.582  0.00  0.00     0.104 A 
ATOM      9  C   UNL d   1     -40.988  14.193  18.839  0.00  0.00     0.013 A 
ATOM     10  C   UNL d   1     -40.495  14.201  18.173  0.00  0.00     0.001 A 
ATOM     11  C   UNL d   1     -39.682  14.057  18.259  0.00  0.00     0.000 A 
ATOM     12  C   UNL d   1     -39.419  13.911  19.028  0.00  0.00     0.001 A 
ATOM     13  C   UNL d   1     -39.170  14.059  17.610  0.00  0.00     0.000 C 
ATOM     14  C   UNL d   1     -39.874  13.895  19.710  0.00  0.00     0.013 A 
ENDBRANCH   5   8
ENDBRANCH   4   5
BRANCH   4  15
ATOM     15  C   UNL d   1     -42.069  14.816  20.836  0.00  0.00     0.092 C 
ATOM     16  C   UNL d   1     -41.730  15.267  21.440  0.00  0.00     0.021 C 
ENDBRANCH   4  15
ENDBRANCH   3   4
ENDBRANCH   1   3
BRANCH   1  17
ATOM     17  C   UNL d   1     -43.691  13.573  21.374  0.00  0.00     0.193 C 
BRANCH  17  18
ATOM     18  O   UNL d   1     -44.234  13.098  21.779  0.00  0.00    -0.206 OA
BRANCH  18  19
ATOM     19  N   UNL d   1     -44.584  13.370  22.473  0.00  0.00    -0.126 NA
BRANCH  19  20
ATOM     20  C   UNL d   1     -45.338  13.108  22.689  0.00  0.00     0.108 A 
ATOM     21  C   UNL d   1     -46.035  13.554  22.657  0.00  0.00     0.020 A 
ATOM     22  C   UNL d   1     -46.654  13.077  22.923  0.00  0.00     0.002 A 
ATOM     23  C   UNL d   1     -46.186  14.330  22.420  0.00  0.00     0.002 A 
ATOM     24  C   UNL d   1     -47.423  13.376  22.952  0.00  0.00     0.000 A 
ATOM     25  C   UNL d   1     -46.350  12.339  23.120  0.00  0.00     0.002 A 
ATOM     26  C   UNL d   1     -47.573  14.151  22.716  0.00  0.00     0.000 A 
ATOM     27  C   UNL d   1     -46.955  14.629  22.450  0.00  0.00     0.000 A 
ATOM     28  C   UNL d   1     -45.538  12.361  22.975  0.00  0.00     0.020 A 
ATOM     29  C   UNL d   1     -46.695  11.650  23.412  0.00  0.00     0.000 A 
ATOM     30  C   UNL d   1     -45.073  11.698  23.120  0.00  0.00     0.002 A 
ATOM     31  C   UNL d   1     -45.418  11.008  23.411  0.00  0.00     0.000 A 
ATOM     32  C   UNL d   1     -46.234  10.985  23.558  0.00  0.00     0.000 A 
ENDBRANCH  19  20
ENDBRANCH  18  19
ENDBRANCH  17  18
ENDBRANCH   1  17
TORSDOF 9
ENDMDL
