MODEL 1
REMARK VINA RESULT:      12.2      0.000      0.000
REMARK  5 active torsions:
REMARK  status: ('A' for Active; 'I' for Inactive)
REMARK    1  A    between atoms: N_2  and  S_1 
REMARK    2  A    between atoms: C_4  and  S_1 
REMARK    3  A    between atoms: C_3  and  N_2 
REMARK    4  A    between atoms: O_19  and  C_13 
REMARK    5  A    between atoms: C_20  and  O_19 
ROOT
ATOM      1  S   UNL d   1      45.953 -16.649  44.037  0.00  0.00     0.327 S 
ATOM      2  O   UNL d   1      46.237 -16.379  43.309  0.00  0.00    -0.186 OA
ATOM      3  O   UNL d   1      45.669 -16.915  44.766  0.00  0.00    -0.186 OA
ENDROOT
BRANCH   1   4
ATOM      4  N   UNL d   1      46.107 -17.430  43.813  0.00  0.00    -0.314 NA
BRANCH   4   5
ATOM      5  C   UNL d   1      46.266 -18.206  43.578  0.00  0.00     0.185 A 
ATOM      6  C   UNL d   1      46.335 -18.386  42.777  0.00  0.00     0.048 A 
ATOM      7  C   UNL d   1      46.492 -19.154  42.545  0.00  0.00     0.060 A 
ATOM      8 CL   UNL d   1      46.562 -19.337  41.744  0.00  0.00    -0.082 Cl
ATOM      9  C   UNL d   1      46.582 -19.747  43.111  0.00  0.00     0.015 A 
ATOM     10  C   UNL d   1      46.512 -19.564  43.913  0.00  0.00     0.046 A 
ATOM     11  C   UNL d   1      46.353 -18.788  44.148  0.00  0.00     0.226 A 
ATOM     12  O   UNL d   1      46.284 -18.605  44.949  0.00  0.00    -0.284 OA
ENDBRANCH   4   5
ENDBRANCH   1   4
BRANCH   1  13
ATOM     13  C   UNL d   1      45.798 -15.869  44.265  0.00  0.00     0.117 A 
ATOM     14  C   UNL d   1      45.060 -15.674  44.572  0.00  0.00     0.016 A 
ATOM     15  C   UNL d   1      44.900 -14.897  44.802  0.00  0.00     0.025 A 
ATOM     16  C   UNL d   1      45.485 -14.312  44.721  0.00  0.00     0.100 A 
ATOM     17  C   UNL d   1      46.226 -14.518  44.410  0.00  0.00     0.025 A 
ATOM     18  C   UNL d   1      46.381 -15.294  44.183  0.00  0.00     0.016 A 
BRANCH  16  19
ATOM     19  O   UNL d   1      45.329 -13.532  44.950  0.00  0.00    -0.305 OA
BRANCH  19  20
ATOM     20  C   UNL d   1      45.918 -12.960  44.885  0.00  0.00     0.123 C 
ATOM     21  C   UNL d   1      45.727 -12.156  44.915  0.00  0.00     0.029 C 
ENDBRANCH  19  20
ENDBRANCH  16  19
ENDBRANCH   1  13
TORSDOF 5
ENDMDL
MODEL 2
REMARK VINA RESULT:      14.4      1.815      4.800
REMARK  5 active torsions:
REMARK  status: ('A' for Active; 'I' for Inactive)
REMARK    1  A    between atoms: N_2  and  S_1 
REMARK    2  A    between atoms: C_4  and  S_1 
REMARK    3  A    between atoms: C_3  and  N_2 
REMARK    4  A    between atoms: O_19  and  C_13 
REMARK    5  A    between atoms: C_20  and  O_19 
ROOT
ATOM      1  S   UNL d   1      45.922 -16.486  44.237  0.00  0.00     0.327 S 
ATOM      2  O   UNL d   1      45.577 -16.725  44.948  0.00  0.00    -0.186 OA
ATOM      3  O   UNL d   1      46.269 -16.250  43.524  0.00  0.00    -0.186 OA
ENDROOT
BRANCH   1   4
ATOM      4  N   UNL d   1      45.758 -15.695  44.417  0.00  0.00    -0.314 NA
BRANCH   4   5
ATOM      5  C   UNL d   1      45.582 -14.908  44.595  0.00  0.00     0.185 A 
ATOM      6  C   UNL d   1      46.191 -14.361  44.681  0.00  0.00     0.048 A 
ATOM      7  C   UNL d   1      46.016 -13.581  44.857  0.00  0.00     0.060 A 
ATOM      8 CL   UNL d   1      46.625 -13.031  44.943  0.00  0.00    -0.082 Cl
ATOM      9  C   UNL d   1      45.231 -13.345  44.949  0.00  0.00     0.015 A 
ATOM     10  C   UNL d   1      44.623 -13.895  44.862  0.00  0.00     0.046 A 
ATOM     11  C   UNL d   1      44.800 -14.683  44.684  0.00  0.00     0.226 A 
ATOM     12  O   UNL d   1      44.191 -15.233  44.598  0.00  0.00    -0.284 OA
ENDBRANCH   4   5
ENDBRANCH   1   4
BRANCH   1  13
ATOM     13  C   UNL d   1      46.089 -17.275  44.053  0.00  0.00     0.117 A 
ATOM     14  C   UNL d   1      46.139 -17.832  44.655  0.00  0.00     0.016 A 
ATOM     15  C   UNL d   1      46.305 -18.622  44.475  0.00  0.00     0.025 A 
ATOM     16  C   UNL d   1      46.421 -18.852  43.685  0.00  0.00     0.100 A 
ATOM     17  C   UNL d   1      46.367 -18.282  43.084  0.00  0.00     0.025 A 
ATOM     18  C   UNL d   1      46.202 -17.497  43.268  0.00  0.00     0.016 A 
BRANCH  16  19
ATOM     19  O   UNL d   1      46.587 -19.641  43.500  0.00  0.00    -0.305 OA
BRANCH  19  20
ATOM     20  C   UNL d   1      46.162 -20.021  42.906  0.00  0.00     0.123 C 
ATOM     21  C   UNL d   1      46.552 -20.330  42.245  0.00  0.00     0.029 C 
ENDBRANCH  19  20
ENDBRANCH  16  19
ENDBRANCH   1  13
TORSDOF 5
ENDMDL
