MODEL 1
REMARK VINA RESULT:     109.3      0.000      0.000
REMARK  6 active torsions:
REMARK  status: ('A' for Active; 'I' for Inactive)
REMARK    1  A    between atoms: O_8  and  C_2 
REMARK    2  A    between atoms: C_10  and  C_5 
REMARK    3  A    between atoms: C_21  and  O_8 
REMARK    4  A    between atoms: N_9  and  C_10 
REMARK    5  A    between atoms: C_12  and  C_15 
REMARK    6  A    between atoms: O_26  and  C_12 
ROOT
ATOM      1  C   UNL d   1      60.464  48.708  50.860  0.00  0.00     0.108 A 
ATOM      2  C   UNL d   1      61.646  47.791  50.139  0.00  0.00     0.161 A 
ATOM      3  C   UNL d   1      60.897  48.152  51.311  0.00  0.00     0.064 A 
ATOM      4  C   UNL d   1      61.482  47.699  50.956  0.00  0.00     0.222 A 
ATOM      5  C   UNL d   1      59.873  49.167  51.220  0.00  0.00     0.079 A 
ATOM      6  O   UNL d   1      60.619  48.806  50.051  0.00  0.00    -0.305 OA
ATOM      7  C   UNL d   1      61.217  48.342  49.691  0.00  0.00     0.126 A 
ATOM      8  C   UNL d   1      60.727  48.068  52.121  0.00  0.00     0.009 A 
ATOM      9  C   UNL d   1      59.711  49.076  52.023  0.00  0.00     0.199 A 
ATOM     10  O   UNL d   1      61.911  47.149  51.398  0.00  0.00    -0.284 OA
ATOM     11  C   UNL d   1      60.140  48.525  52.476  0.00  0.00     0.042 A 
ATOM     12  O   UNL d   1      59.128  49.528  52.380  0.00  0.00    -0.286 OA
ATOM     13  C   UNL d   1      61.379  48.431  48.889  0.00  0.00     0.029 C 
ENDROOT
BRANCH   2  14
ATOM     14  O   UNL d   1      62.233  47.334  49.785  0.00  0.00    -0.302 OA
BRANCH  14  15
ATOM     15  C   UNL d   1      62.089  46.544  49.611  0.00  0.00     0.100 A 
ATOM     16  C   UNL d   1      61.381  46.325  49.252  0.00  0.00     0.025 A 
ATOM     17  C   UNL d   1      61.236  45.534  49.077  0.00  0.00     0.007 A 
ATOM     18  C   UNL d   1      61.800  44.960  49.262  0.00  0.00     0.063 A 
ATOM     19  C   UNL d   1      62.516  45.187  49.625  0.00  0.00     0.007 A 
ATOM     20  C   UNL d   1      62.655  45.973  49.796  0.00  0.00     0.025 A 
BRANCH  18  21
ATOM     21  C   UNL d   1      61.658  44.165  49.088  0.00  0.00     0.296 C 
ATOM     22  O   UNL d   1      60.911  43.920  48.841  0.00  0.00    -0.259 OA
BRANCH  21  23
ATOM     23  O   UNL d   1      62.264  43.607  49.159  0.00  0.00    -0.296 OA
ATOM     24  C   UNL d   1      62.224  43.038  49.756  0.00  0.00     0.185 C 
ENDBRANCH  21  23
ENDBRANCH  18  21
ENDBRANCH  14  15
ENDBRANCH   2  14
BRANCH   5  25
ATOM     25  C   UNL d   1      59.452  49.707  50.776  0.00  0.00     0.086 C 
BRANCH  25  26
ATOM     26  N   UNL d   1      58.647  49.585  50.630  0.00  0.00    -0.300 N 
ATOM     27  C   UNL d   1      58.368  49.564  49.854  0.00  0.00     0.100 A 
ATOM     28  C   UNL d   1      57.569  49.442  49.711  0.00  0.00     0.100 A 
ATOM     29  N   UNL d   1      57.046  49.341  50.335  0.00  0.00    -0.299 N 
ATOM     30  C   UNL d   1      57.326  49.362  51.115  0.00  0.00     0.100 A 
ATOM     31  C   UNL d   1      56.237  49.218  50.191  0.00  0.00     0.100 C 
ATOM     32  C   UNL d   1      58.131  49.485  51.262  0.00  0.00     0.100 A 
ENDBRANCH  25  26
ENDBRANCH   5  25
TORSDOF 6
ENDMDL
