MODEL 1
REMARK VINA RESULT:      64.2      0.000      0.000
REMARK  7 active torsions:
REMARK  status: ('A' for Active; 'I' for Inactive)
REMARK    1  A    between atoms: C_3  and  C_1 
REMARK    2  A    between atoms: N_5  and  C_2 
REMARK    3  A    between atoms: N_4  and  C_3 
REMARK    4  A    between atoms: C_10  and  C_3 
REMARK    5  A    between atoms: C_13  and  N_4 
REMARK       I    between atoms: C_6  and  N_5 
REMARK    6  A    between atoms: C_8  and  C_13 
REMARK    7  A    between atoms: O_16  and  C_8 
ROOT
ATOM      1  C   UNL d   1     -57.047 -99.331 -44.066  0.00  0.00     0.083 C 
ENDROOT
BRANCH   1   2
ATOM      2  C   UNL d   1     -56.288 -99.542 -44.312  0.00  0.00     0.036 A 
ATOM      3  C   UNL d   1     -55.934-100.222 -44.042  0.00  0.00     0.086 A 
ATOM      4  C   UNL d   1     -55.175-100.433 -44.288  0.00  0.00     0.020 A 
ATOM      5  C   UNL d   1     -54.771 -99.965 -44.804  0.00  0.00     0.008 A 
ATOM      6  C   UNL d   1     -55.128 -99.254 -45.094  0.00  0.00     0.035 A 
ATOM      7  C   UNL d   1     -55.888 -99.058 -44.837  0.00  0.00     0.010 A 
ATOM      8 BR   UNL d   1     -54.719 -98.756 -45.632  0.00  0.00    -0.049 Br
BRANCH   3   9
ATOM      9  N   UNL d   1     -56.353-100.716 -43.501  0.00  0.00    -0.208 NA
ATOM     10  C   UNL d   1     -55.939-101.276 -43.052  0.00  0.00     0.279 C 
ATOM     11  O   UNL d   1     -56.340-101.748 -42.535  0.00  0.00    -0.265 OA
ATOM     12  C   UNL d   1     -55.130-101.361 -43.121  0.00  0.00     0.068 C 
ENDBRANCH   3   9
ENDBRANCH   1   2
BRANCH   1  13
ATOM     13  N   UNL d   1     -57.237 -99.275 -43.276  0.00  0.00    -0.238 NA
BRANCH  13  14
ATOM     14  C   UNL d   1     -57.853 -98.764 -43.058  0.00  0.00     0.167 C 
BRANCH  14  15
ATOM     15  C   UNL d   1     -58.410 -99.038 -42.489  0.00  0.00     0.315 C 
ATOM     16  O   UNL d   1     -58.156 -99.612 -41.921  0.00  0.00    -0.257 OA
BRANCH  15  17
ATOM     17  O   UNL d   1     -59.186 -98.760 -42.478  0.00  0.00    -0.295 OA
ATOM     18  C   UNL d   1     -59.786 -99.252 -42.287  0.00  0.00     0.185 C 
ENDBRANCH  15  17
ENDBRANCH  14  15
ENDBRANCH  13  14
ENDBRANCH   1  13
BRANCH   1  19
ATOM     19  C   UNL d   1     -57.625 -99.172 -44.627  0.00  0.00     0.018 A 
ATOM     20  C   UNL d   1     -57.421 -98.918 -45.386  0.00  0.00     0.002 A 
ATOM     21  C   UNL d   1     -57.980 -98.755 -45.956  0.00  0.00     0.000 A 
ATOM     22  C   UNL d   1     -58.805 -98.856 -45.748  0.00  0.00     0.000 A 
ATOM     23  C   UNL d   1     -59.016 -99.109 -44.992  0.00  0.00     0.000 A 
ATOM     24  C   UNL d   1     -58.430 -99.267 -44.433  0.00  0.00     0.002 A 
ENDBRANCH   1  19
TORSDOF 7
ENDMDL
