MODEL 1
REMARK VINA RESULT:      70.4      0.000      0.000
REMARK  4 active torsions:
REMARK  status: ('A' for Active; 'I' for Inactive)
REMARK    1  A    between atoms: C_13  and  N_3 
REMARK    2  A    between atoms: C_11  and  C_6 
REMARK    3  A    between atoms: O_22  and  C_11 
REMARK    4  A    between atoms: C_21  and  C_13 
ROOT
ATOM      1  C   UNL d   1     -57.792 -98.760 -44.357  0.00  0.00     0.155 A 
ATOM      2  C   UNL d   1     -58.520 -98.759 -44.740  0.00  0.00     0.091 A 
ATOM      3  N   UNL d   1     -57.097 -98.760 -44.796  0.00  0.00    -0.274 N 
ATOM      4  N   UNL d   1     -57.759 -98.761 -43.533  0.00  0.00    -0.210 NA
ATOM      5  N   UNL d   1     -59.186 -98.759 -43.479  0.00  0.00    -0.258 N 
ATOM      6  C   UNL d   1     -57.849 -98.759 -46.002  0.00  0.00     0.100 A 
ATOM      7  C   UNL d   1     -58.458 -98.760 -43.087  0.00  0.00     0.152 A 
ATOM      8  C   UNL d   1     -57.124 -98.760 -45.613  0.00  0.00     0.175 A 
ATOM      9  C   UNL d   1     -59.226 -98.759 -44.307  0.00  0.00     0.269 A 
ATOM     10  C   UNL d   1     -58.555 -98.758 -45.570  0.00  0.00     0.016 A 
ATOM     11  C   UNL d   1     -58.427 -98.761 -42.268  0.00  0.00     0.035 A 
ATOM     12  C   UNL d   1     -59.892 -98.759 -43.037  0.00  0.00     0.084 A 
ATOM     13  N   UNL d   1     -56.422 -98.760 -46.057  0.00  0.00    -0.128 N 
ATOM     14  O   UNL d   1     -59.955 -98.758 -44.689  0.00  0.00    -0.266 OA
ATOM     15  C   UNL d   1     -59.850 -98.759 -42.212  0.00  0.00     0.019 A 
ATOM     16  C   UNL d   1     -59.118 -98.760 -41.828  0.00  0.00     0.005 A 
ATOM     17  C   UNL d   1     -57.690 -98.762 -41.891  0.00  0.00     0.003 C 
ENDROOT
BRANCH   3  18
ATOM     18  C   UNL d   1     -56.370 -98.761 -44.410  0.00  0.00     0.084 C 
BRANCH  18  19
ATOM     19  C   UNL d   1     -55.954 -99.471 -44.311  0.00  0.00     0.037 A 
ATOM     20  C   UNL d   1     -56.362-100.160 -44.152  0.00  0.00     0.100 A 
ATOM     21  N   UNL d   1     -55.954-100.869 -44.053  0.00  0.00    -0.242 NA
ATOM     22  C   UNL d   1     -55.134-100.874 -44.115  0.00  0.00     0.099 A 
ATOM     23  C   UNL d   1     -54.721-100.177 -44.275  0.00  0.00     0.021 A 
ATOM     24  C   UNL d   1     -55.137 -99.475 -44.373  0.00  0.00     0.005 A 
ENDBRANCH  18  19
ENDBRANCH   3  18
BRANCH   6  25
ATOM     25  C   UNL d   1     -57.881 -98.758 -46.826  0.00  0.00     0.299 C 
ATOM     26  O   UNL d   1     -57.181 -98.760 -47.275  0.00  0.00    -0.259 OA
BRANCH  25  27
ATOM     27  O   UNL d   1     -58.607 -98.755 -47.210  0.00  0.00    -0.296 OA
ATOM     28  C   UNL d   1     -58.645 -98.763 -48.036  0.00  0.00     0.185 C 
ENDBRANCH  25  27
ENDBRANCH   6  25
TORSDOF 4
ENDMDL
MODEL 2
REMARK VINA RESULT:      73.2      1.092      3.235
REMARK  4 active torsions:
REMARK  status: ('A' for Active; 'I' for Inactive)
REMARK    1  A    between atoms: C_13  and  N_3 
REMARK    2  A    between atoms: C_11  and  C_6 
REMARK    3  A    between atoms: O_22  and  C_11 
REMARK    4  A    between atoms: C_21  and  C_13 
ROOT
ATOM      1  C   UNL d   1     -57.783 -98.760 -44.789  0.00  0.00     0.155 A 
ATOM      2  C   UNL d   1     -58.585 -98.763 -44.607  0.00  0.00     0.091 A 
ATOM      3  N   UNL d   1     -57.223 -98.758 -44.188  0.00  0.00    -0.274 N 
ATOM      4  N   UNL d   1     -57.540 -98.760 -45.578  0.00  0.00    -0.210 NA
ATOM      5  N   UNL d   1     -58.905 -98.764 -45.996  0.00  0.00    -0.258 N 
ATOM      6  C   UNL d   1     -58.260 -98.761 -43.214  0.00  0.00     0.100 A 
ATOM      7  C   UNL d   1     -58.101 -98.762 -46.188  0.00  0.00     0.152 A 
ATOM      8  C   UNL d   1     -57.459 -98.759 -43.405  0.00  0.00     0.175 A 
ATOM      9  C   UNL d   1     -59.156 -98.765 -45.206  0.00  0.00     0.269 A 
ATOM     10  C   UNL d   1     -58.831 -98.763 -43.813  0.00  0.00     0.016 A 
ATOM     11  C   UNL d   1     -57.861 -98.761 -46.971  0.00  0.00     0.035 A 
ATOM     12  C   UNL d   1     -59.475 -98.766 -46.604  0.00  0.00     0.084 A 
ATOM     13  N   UNL d   1     -56.894 -98.756 -42.796  0.00  0.00    -0.128 N 
ATOM     14  O   UNL d   1     -59.959 -98.767 -45.023  0.00  0.00    -0.266 OA
ATOM     15  C   UNL d   1     -59.223 -98.766 -47.391  0.00  0.00     0.019 A 
ATOM     16  C   UNL d   1     -58.416 -98.763 -47.574  0.00  0.00     0.005 A 
ATOM     17  C   UNL d   1     -57.053 -98.759 -47.147  0.00  0.00     0.003 C 
ENDROOT
BRANCH   3  18
ATOM     18  C   UNL d   1     -56.422 -98.756 -44.374  0.00  0.00     0.084 C 
BRANCH  18  19
ATOM     19  C   UNL d   1     -56.007 -99.470 -44.430  0.00  0.00     0.037 A 
ATOM     20  C   UNL d   1     -56.381-100.171 -44.243  0.00  0.00     0.100 A 
ATOM     21  N   UNL d   1     -55.974-100.886 -44.296  0.00  0.00    -0.242 NA
ATOM     22  C   UNL d   1     -55.188-100.884 -44.539  0.00  0.00     0.099 A 
ATOM     23  C   UNL d   1     -54.809-100.175 -44.728  0.00  0.00     0.021 A 
ATOM     24  C   UNL d   1     -55.224 -99.468 -44.671  0.00  0.00     0.005 A 
ENDBRANCH  18  19
ENDBRANCH   3  18
BRANCH   6  25
ATOM     25  C   UNL d   1     -58.502 -98.761 -42.426  0.00  0.00     0.299 C 
ATOM     26  O   UNL d   1     -57.940 -98.756 -41.812  0.00  0.00    -0.259 OA
BRANCH  25  27
ATOM     27  O   UNL d   1     -59.302 -98.767 -42.241  0.00  0.00    -0.296 OA
ATOM     28  C   UNL d   1     -59.550 -98.832 -41.455  0.00  0.00     0.185 C 
ENDBRANCH  25  27
ENDBRANCH   6  25
TORSDOF 4
ENDMDL
