MODEL 1
REMARK VINA RESULT:      -9.9      0.000      0.000
REMARK  3 active torsions:
REMARK  status: ('A' for Active; 'I' for Inactive)
REMARK    1  A    between atoms: S_2  and  N_1 
REMARK    2  A    between atoms: C_7  and  S_2 
REMARK    3  A    between atoms: C_14  and  C_6 
ROOT
ATOM      1  S   UNL d   1      53.357  33.354  53.904  0.00  0.00     0.273 S 
ATOM      2  O   UNL d   1      53.815  33.664  53.355  0.00  0.00    -0.200 OA
ATOM      3  O   UNL d   1      52.908  33.246  54.480  0.00  0.00    -0.200 OA
ENDROOT
BRANCH   1   4
ATOM      4  N   UNL d   1      53.241  34.032  54.193  0.00  0.00    -0.202 N 
ATOM      5  C   UNL d   1      53.542  34.294  54.835  0.00  0.00     0.218 A 
ATOM      6  N   UNL d   1      53.290  35.002  54.936  0.00  0.00    -0.178 NA
ATOM      7  S   UNL d   1      53.998  33.823  55.210  0.00  0.00    -0.037 SA
ATOM      8  C   UNL d   1      52.840  35.165  54.359  0.00  0.00     0.298 A 
ATOM      9  C   UNL d   1      52.808  34.571  53.901  0.00  0.00     0.135 A 
ATOM     10  O   UNL d   1      52.494  35.828  54.287  0.00  0.00    -0.264 OA
BRANCH   9  11
ATOM     11  C   UNL d   1      52.417  34.516  53.264  0.00  0.00     0.022 C 
ATOM     12  C   UNL d   1      51.707  34.275  53.285  0.00  0.00     0.002 C 
ATOM     13  C   UNL d   1      52.732  34.702  52.609  0.00  0.00     0.002 C 
ENDBRANCH   9  11
ENDBRANCH   1   4
BRANCH   1  14
ATOM     14  C   UNL d   1      53.441  32.577  53.637  0.00  0.00     0.104 A 
ATOM     15  C   UNL d   1      54.189  32.274  53.453  0.00  0.00     0.012 A 
ATOM     16  C   UNL d   1      54.274  31.497  53.186  0.00  0.00     0.001 A 
ATOM     17  C   UNL d   1      54.858  32.776  53.545  0.00  0.00     0.001 C 
ATOM     18  C   UNL d   1      53.610  31.015  53.101  0.00  0.00     0.000 A 
ATOM     19  C   UNL d   1      52.858  31.310  53.283  0.00  0.00     0.001 A 
ATOM     20  C   UNL d   1      52.773  32.095  53.552  0.00  0.00     0.013 A 
ATOM     21  C   UNL d   1      52.187  30.824  53.197  0.00  0.00     0.000 C 
ENDBRANCH   1  14
TORSDOF 3
ENDMDL
MODEL 2
REMARK VINA RESULT:      -9.6      1.182      2.413
REMARK  3 active torsions:
REMARK  status: ('A' for Active; 'I' for Inactive)
REMARK    1  A    between atoms: S_2  and  N_1 
REMARK    2  A    between atoms: C_7  and  S_2 
REMARK    3  A    between atoms: C_14  and  C_6 
ROOT
ATOM      1  S   UNL d   1      53.020  33.924  53.960  0.00  0.00     0.273 S 
ATOM      2  O   UNL d   1      53.526  34.050  53.382  0.00  0.00    -0.200 OA
ATOM      3  O   UNL d   1      52.702  33.815  54.616  0.00  0.00    -0.200 OA
ENDROOT
BRANCH   1   4
ATOM      4  N   UNL d   1      53.578  33.945  54.456  0.00  0.00    -0.202 N 
ATOM      5  C   UNL d   1      53.709  34.505  54.946  0.00  0.00     0.218 A 
ATOM      6  N   UNL d   1      54.323  34.318  55.350  0.00  0.00    -0.178 NA
ATOM      7  S   UNL d   1      53.231  35.090  54.927  0.00  0.00    -0.037 SA
ATOM      8  C   UNL d   1      54.559  33.650  55.105  0.00  0.00     0.298 A 
ATOM      9  C   UNL d   1      54.103  33.419  54.555  0.00  0.00     0.135 A 
ATOM     10  O   UNL d   1      55.161  33.301  55.389  0.00  0.00    -0.264 OA
BRANCH   9  11
ATOM     11  C   UNL d   1      54.155  32.778  54.169  0.00  0.00     0.022 C 
ATOM     12  C   UNL d   1      53.805  32.165  54.421  0.00  0.00     0.002 C 
ATOM     13  C   UNL d   1      54.554  32.750  53.535  0.00  0.00     0.002 C 
ENDBRANCH   9  11
ENDBRANCH   1   4
BRANCH   1  14
ATOM     14  C   UNL d   1      52.357  33.889  53.469  0.00  0.00     0.104 A 
ATOM     15  C   UNL d   1      52.268  34.424  52.843  0.00  0.00     0.012 A 
ATOM     16  C   UNL d   1      51.605  34.388  52.352  0.00  0.00     0.001 A 
ATOM     17  C   UNL d   1      52.868  35.001  52.722  0.00  0.00     0.001 C 
ATOM     18  C   UNL d   1      51.025  33.818  52.481  0.00  0.00     0.000 A 
ATOM     19  C   UNL d   1      51.106  33.279  53.105  0.00  0.00     0.001 A 
ATOM     20  C   UNL d   1      51.776  33.314  53.601  0.00  0.00     0.013 A 
ATOM     21  C   UNL d   1      50.520  32.702  53.236  0.00  0.00     0.000 C 
ENDBRANCH   1  14
TORSDOF 3
ENDMDL
MODEL 3
REMARK VINA RESULT:      -9.2      1.074      1.812
REMARK  3 active torsions:
REMARK  status: ('A' for Active; 'I' for Inactive)
REMARK    1  A    between atoms: S_2  and  N_1 
REMARK    2  A    between atoms: C_7  and  S_2 
REMARK    3  A    between atoms: C_14  and  C_6 
ROOT
ATOM      1  S   UNL d   1      53.225  32.666  53.855  0.00  0.00     0.273 S 
ATOM      2  O   UNL d   1      53.664  32.890  53.252  0.00  0.00    -0.200 OA
ATOM      3  O   UNL d   1      52.831  32.640  54.478  0.00  0.00    -0.200 OA
ENDROOT
BRANCH   1   4
ATOM      4  N   UNL d   1      53.252  33.357  54.135  0.00  0.00    -0.202 N 
ATOM      5  C   UNL d   1      52.698  33.869  54.100  0.00  0.00     0.218 A 
ATOM      6  N   UNL d   1      52.941  34.497  54.446  0.00  0.00    -0.178 NA
ATOM      7  S   UNL d   1      52.063  33.655  53.748  0.00  0.00    -0.037 SA
ATOM      8  C   UNL d   1      53.637  34.365  54.689  0.00  0.00     0.298 A 
ATOM      9  C   UNL d   1      53.831  33.665  54.500  0.00  0.00     0.135 A 
ATOM     10  O   UNL d   1      54.044  34.877  55.060  0.00  0.00    -0.264 OA
BRANCH   9  11
ATOM     11  C   UNL d   1      54.484  33.326  54.644  0.00  0.00     0.022 C 
ATOM     12  C   UNL d   1      54.585  32.983  55.304  0.00  0.00     0.002 C 
ATOM     13  C   UNL d   1      55.033  33.328  54.133  0.00  0.00     0.002 C 
ENDBRANCH   9  11
ENDBRANCH   1   4
BRANCH   1  14
ATOM     14  C   UNL d   1      53.152  31.883  53.604  0.00  0.00     0.104 A 
ATOM     15  C   UNL d   1      52.837  31.707  52.859  0.00  0.00     0.012 A 
ATOM     16  C   UNL d   1      52.765  30.923  52.608  0.00  0.00     0.001 A 
ATOM     17  C   UNL d   1      52.593  32.345  52.367  0.00  0.00     0.001 C 
ATOM     18  C   UNL d   1      53.007  30.308  53.099  0.00  0.00     0.000 A 
ATOM     19  C   UNL d   1      53.324  30.475  53.846  0.00  0.00     0.001 A 
ATOM     20  C   UNL d   1      53.397  31.266  54.100  0.00  0.00     0.013 A 
ATOM     21  C   UNL d   1      53.569  29.853  54.343  0.00  0.00     0.000 C 
ENDBRANCH   1  14
TORSDOF 3
ENDMDL
MODEL 4
REMARK VINA RESULT:      -8.8      1.428      2.202
REMARK  3 active torsions:
REMARK  status: ('A' for Active; 'I' for Inactive)
REMARK    1  A    between atoms: S_2  and  N_1 
REMARK    2  A    between atoms: C_7  and  S_2 
REMARK    3  A    between atoms: C_14  and  C_6 
ROOT
ATOM      1  S   UNL d   1      52.368  33.113  53.415  0.00  0.00     0.273 S 
ATOM      2  O   UNL d   1      52.516  32.958  52.666  0.00  0.00    -0.200 OA
ATOM      3  O   UNL d   1      52.063  33.328  54.051  0.00  0.00    -0.200 OA
ENDROOT
BRANCH   1   4
ATOM      4  N   UNL d   1      51.704  33.398  53.228  0.00  0.00    -0.202 N 
ATOM      5  C   UNL d   1      51.042  33.040  53.277  0.00  0.00     0.218 A 
ATOM      6  N   UNL d   1      50.503  33.515  53.036  0.00  0.00    -0.178 NA
ATOM      7  S   UNL d   1      51.060  32.331  53.540  0.00  0.00    -0.037 SA
ATOM      8  C   UNL d   1      50.840  34.156  52.843  0.00  0.00     0.298 A 
ATOM      9  C   UNL d   1      51.578  34.087  52.959  0.00  0.00     0.135 A 
ATOM     10  O   UNL d   1      50.463  34.750  52.578  0.00  0.00    -0.264 OA
BRANCH   9  11
ATOM     11  C   UNL d   1      52.102  34.608  52.833  0.00  0.00     0.022 C 
ATOM     12  C   UNL d   1      52.431  34.647  52.160  0.00  0.00     0.002 C 
ATOM     13  C   UNL d   1      52.298  35.088  53.376  0.00  0.00     0.002 C 
ENDBRANCH   9  11
ENDBRANCH   1   4
BRANCH   1  14
ATOM     14  C   UNL d   1      53.086  32.813  53.692  0.00  0.00     0.104 A 
ATOM     15  C   UNL d   1      53.400  32.115  53.377  0.00  0.00     0.012 A 
ATOM     16  C   UNL d   1      54.118  31.815  53.655  0.00  0.00     0.001 A 
ATOM     17  C   UNL d   1      52.971  31.721  52.770  0.00  0.00     0.001 C 
ATOM     18  C   UNL d   1      54.529  32.211  54.250  0.00  0.00     0.000 A 
ATOM     19  C   UNL d   1      54.222  32.910  54.570  0.00  0.00     0.001 A 
ATOM     20  C   UNL d   1      53.497  33.213  54.290  0.00  0.00     0.013 A 
ATOM     21  C   UNL d   1      54.636  33.310  55.171  0.00  0.00     0.000 C 
ENDBRANCH   1  14
TORSDOF 3
ENDMDL
MODEL 5
REMARK VINA RESULT:      -8.5      1.275      3.341
REMARK  3 active torsions:
REMARK  status: ('A' for Active; 'I' for Inactive)
REMARK    1  A    between atoms: S_2  and  N_1 
REMARK    2  A    between atoms: C_7  and  S_2 
REMARK    3  A    between atoms: C_14  and  C_6 
ROOT
ATOM      1  S   UNL d   1      52.837  33.223  53.481  0.00  0.00     0.273 S 
ATOM      2  O   UNL d   1      53.302  33.350  52.868  0.00  0.00    -0.200 OA
ATOM      3  O   UNL d   1      52.390  32.926  53.985  0.00  0.00    -0.200 OA
ENDROOT
BRANCH   1   4
ATOM      4  N   UNL d   1      52.745  32.514  53.268  0.00  0.00    -0.202 N 
ATOM      5  C   UNL d   1      52.127  32.231  52.939  0.00  0.00     0.218 A 
ATOM      6  N   UNL d   1      52.251  31.495  52.811  0.00  0.00    -0.178 NA
ATOM      7  S   UNL d   1      51.557  32.713  52.819  0.00  0.00    -0.037 SA
ATOM      8  C   UNL d   1      52.939  31.335  53.060  0.00  0.00     0.298 A 
ATOM      9  C   UNL d   1      53.245  31.960  53.342  0.00  0.00     0.135 A 
ATOM     10  O   UNL d   1      53.239  30.648  53.017  0.00  0.00    -0.264 OA
BRANCH   9  11
ATOM     11  C   UNL d   1      53.928  32.028  53.644  0.00  0.00     0.022 C 
ATOM     12  C   UNL d   1      54.023  31.892  54.376  0.00  0.00     0.002 C 
ATOM     13  C   UNL d   1      54.512  32.232  53.220  0.00  0.00     0.002 C 
ENDBRANCH   9  11
ENDBRANCH   1   4
BRANCH   1  14
ATOM     14  C   UNL d   1      52.895  33.993  53.774  0.00  0.00     0.104 A 
ATOM     15  C   UNL d   1      52.743  34.643  53.284  0.00  0.00     0.012 A 
ATOM     16  C   UNL d   1      52.801  35.413  53.577  0.00  0.00     0.001 A 
ATOM     17  C   UNL d   1      52.528  34.499  52.483  0.00  0.00     0.001 C 
ATOM     18  C   UNL d   1      53.012  35.541  54.363  0.00  0.00     0.000 A 
ATOM     19  C   UNL d   1      53.166  34.897  54.860  0.00  0.00     0.001 A 
ATOM     20  C   UNL d   1      53.108  34.119  54.564  0.00  0.00     0.013 A 
ATOM     21  C   UNL d   1      53.380  35.026  55.655  0.00  0.00     0.000 C 
ENDBRANCH   1  14
TORSDOF 3
ENDMDL
MODEL 6
REMARK VINA RESULT:      -7.8      1.372      2.990
REMARK  3 active torsions:
REMARK  status: ('A' for Active; 'I' for Inactive)
REMARK    1  A    between atoms: S_2  and  N_1 
REMARK    2  A    between atoms: C_7  and  S_2 
REMARK    3  A    between atoms: C_14  and  C_6 
ROOT
ATOM      1  S   UNL d   1      52.909  32.792  53.558  0.00  0.00     0.273 S 
ATOM      2  O   UNL d   1      53.360  32.794  52.923  0.00  0.00    -0.200 OA
ATOM      3  O   UNL d   1      52.593  32.638  54.206  0.00  0.00    -0.200 OA
ENDROOT
BRANCH   1   4
ATOM      4  N   UNL d   1      53.285  32.206  53.826  0.00  0.00    -0.202 N 
ATOM      5  C   UNL d   1      53.786  32.226  54.391  0.00  0.00     0.218 A 
ATOM      6  N   UNL d   1      54.044  31.522  54.497  0.00  0.00    -0.178 NA
ATOM      7  S   UNL d   1      53.912  32.902  54.706  0.00  0.00    -0.037 SA
ATOM      8  C   UNL d   1      53.700  31.079  53.999  0.00  0.00     0.298 A 
ATOM      9  C   UNL d   1      53.233  31.497  53.585  0.00  0.00     0.135 A 
ATOM     10  O   UNL d   1      53.829  30.341  53.952  0.00  0.00    -0.264 OA
BRANCH   9  11
ATOM     11  C   UNL d   1      52.790  31.258  53.030  0.00  0.00     0.022 C 
ATOM     12  C   UNL d   1      52.100  31.010  53.187  0.00  0.00     0.002 C 
ATOM     13  C   UNL d   1      53.035  31.267  52.320  0.00  0.00     0.002 C 
ENDBRANCH   9  11
ENDBRANCH   1   4
BRANCH   1  14
ATOM     14  C   UNL d   1      52.451  33.437  53.322  0.00  0.00     0.104 A 
ATOM     15  C   UNL d   1      52.808  34.159  53.130  0.00  0.00     0.012 A 
ATOM     16  C   UNL d   1      52.350  34.805  52.894  0.00  0.00     0.001 A 
ATOM     17  C   UNL d   1      53.646  34.217  53.181  0.00  0.00     0.001 C 
ATOM     18  C   UNL d   1      51.531  34.735  52.848  0.00  0.00     0.000 A 
ATOM     19  C   UNL d   1      51.165  34.017  53.038  0.00  0.00     0.001 A 
ATOM     20  C   UNL d   1      51.627  33.365  53.276  0.00  0.00     0.013 A 
ATOM     21  C   UNL d   1      50.336  33.946  52.991  0.00  0.00     0.000 C 
ENDBRANCH   1  14
TORSDOF 3
ENDMDL
