MODEL 1
REMARK VINA RESULT:      23.3      0.000      0.000
REMARK  4 active torsions:
REMARK  status: ('A' for Active; 'I' for Inactive)
REMARK    1  A    between atoms: C_2  and  S_1 
REMARK    2  A    between atoms: N_5  and  S_1 
REMARK    3  A    between atoms: C_13  and  N_5 
REMARK    4  A    between atoms: C_11  and  C_13 
ROOT
ATOM      1  C   UNL d   1     -58.068 -98.779 -44.203  0.00  0.00     0.105 A 
ATOM      2  C   UNL d   1     -58.607 -98.774 -44.819  0.00  0.00     0.012 A 
ATOM      3  C   UNL d   1     -58.339 -98.774 -43.424  0.00  0.00     0.012 A 
ATOM      4  C   UNL d   1     -59.151 -98.763 -43.264  0.00  0.00     0.001 A 
ATOM      5  C   UNL d   1     -59.416 -98.763 -44.669  0.00  0.00     0.001 A 
ATOM      6  C   UNL d   1     -59.692 -98.758 -43.889  0.00  0.00     0.000 A 
ATOM      7  C   UNL d   1     -58.336 -98.779 -45.598  0.00  0.00     0.001 C 
ATOM      8  C   UNL d   1     -57.795 -98.779 -42.801  0.00  0.00     0.001 C 
ATOM      9  C   UNL d   1     -59.960 -98.758 -45.289  0.00  0.00     0.000 C 
ATOM     10  C   UNL d   1     -59.422 -98.758 -42.486  0.00  0.00     0.000 C 
ENDROOT
BRANCH   1  11
ATOM     11  S   UNL d   1     -57.262 -98.790 -44.365  0.00  0.00     0.285 S 
ATOM     12  O   UNL d   1     -57.107 -98.821 -43.550  0.00  0.00    -0.198 OA
ATOM     13  O   UNL d   1     -57.422 -98.758 -45.163  0.00  0.00    -0.198 OA
BRANCH  11  14
ATOM     14  N   UNL d   1     -56.453 -98.801 -44.515  0.00  0.00    -0.155 NA
BRANCH  14  15
ATOM     15  C   UNL d   1     -55.939 -99.170 -43.987  0.00  0.00     0.137 C 
BRANCH  15  16
ATOM     16  C   UNL d   1     -55.488 -99.809 -44.241  0.00  0.00     0.120 A 
ATOM     17  O   UNL d   1     -55.234-100.198 -44.919  0.00  0.00    -0.304 OA
ATOM     18  C   UNL d   1     -54.763-100.837 -44.689  0.00  0.00     0.123 A 
ATOM     19  C   UNL d   1     -54.726-100.842 -43.866  0.00  0.00     0.029 A 
ATOM     20  C   UNL d   1     -55.174-100.207 -43.587  0.00  0.00     0.028 A 
ENDBRANCH  15  16
ENDBRANCH  14  15
ENDBRANCH  11  14
ENDBRANCH   1  11
TORSDOF 4
ENDMDL
