MODEL 1
REMARK VINA RESULT:       0.1      0.000      0.000
REMARK  7 active torsions:
REMARK  status: ('A' for Active; 'I' for Inactive)
REMARK    1  A    between atoms: C_4  and  S_1 
REMARK    2  A    between atoms: N_6  and  S_1 
REMARK    3  A    between atoms: S_2  and  N_3 
REMARK    4  A    between atoms: C_8  and  S_2 
REMARK    5  A    between atoms: N_3  and  C_7 
REMARK    6  A    between atoms: C_20  and  N_13 
REMARK    7  A    between atoms: C_18  and  C_20 
ROOT
ATOM      1  C   UNL d   1     -41.568-122.322 -51.385  0.00  0.00     0.105 A 
ATOM      2  C   UNL d   1     -41.590-122.823 -52.038  0.00  0.00     0.029 A 
ATOM      3  C   UNL d   1     -41.442-122.527 -52.794  0.00  0.00     0.076 A 
ATOM      4  C   UNL d   1     -41.395-121.512 -51.492  0.00  0.00     0.013 A 
ATOM      5  C   UNL d   1     -41.272-121.732 -52.897  0.00  0.00     0.017 A 
ATOM      6  C   UNL d   1     -41.248-121.223 -52.250  0.00  0.00     0.002 A 
ATOM      7  C   UNL d   1     -41.761-123.623 -51.931  0.00  0.00     0.002 C 
ATOM      8  C   UNL d   1     -41.124-121.439 -53.654  0.00  0.00     0.002 C 
ENDROOT
BRANCH   1   9
ATOM      9  S   UNL d   1     -41.716-122.619 -50.629  0.00  0.00     0.272 S 
ATOM     10  O   UNL d   1     -42.452-122.506 -50.281  0.00  0.00    -0.200 OA
ATOM     11  O   UNL d   1     -41.123-123.028 -50.226  0.00  0.00    -0.200 OA
BRANCH   9  12
ATOM     12  N   UNL d   1     -41.857-122.918 -49.874  0.00  0.00    -0.226 N 
ATOM     13  C   UNL d   1     -42.629-123.008 -49.612  0.00  0.00     0.111 A 
ATOM     14  C   UNL d   1     -42.770-123.308 -48.856  0.00  0.00     0.100 A 
ATOM     15  N   UNL d   1     -42.138-123.514 -48.370  0.00  0.00    -0.300 N 
ATOM     16  C   UNL d   1     -41.366-123.420 -48.639  0.00  0.00     0.100 A 
ATOM     17  C   UNL d   1     -41.225-123.121 -49.395  0.00  0.00     0.111 A 
BRANCH  15  18
ATOM     18  C   UNL d   1     -42.286-123.813 -47.615  0.00  0.00     0.080 C 
BRANCH  18  19
ATOM     19  C   UNL d   1     -42.630-123.334 -47.035  0.00  0.00     0.018 C 
ATOM     20  C   UNL d   1     -42.240-122.652 -46.781  0.00  0.00     0.002 C 
ATOM     21  C   UNL d   1     -43.359-123.536 -46.711  0.00  0.00     0.002 C 
ENDBRANCH  18  19
ENDBRANCH  15  18
ENDBRANCH   9  12
ENDBRANCH   1   9
BRANCH   3  22
ATOM     22  N   UNL d   1     -41.466-123.035 -53.440  0.00  0.00    -0.229 N 
ATOM     23  C   UNL d   1     -41.125-123.791 -53.390  0.00  0.00     0.111 C 
BRANCH  22  24
ATOM     24  S   UNL d   1     -41.828-122.795 -54.141  0.00  0.00     0.271 S 
ATOM     25  O   UNL d   1     -41.225-123.360 -54.162  0.00  0.00    -0.200 OA
ATOM     26  O   UNL d   1     -42.063-122.475 -53.414  0.00  0.00    -0.200 OA
BRANCH  24  27
ATOM     27  C   UNL d   1     -42.191-122.555 -54.842  0.00  0.00     0.104 A 
ATOM     28  C   UNL d   1     -42.990-122.711 -54.968  0.00  0.00     0.013 A 
ATOM     29  C   UNL d   1     -43.348-122.475 -55.658  0.00  0.00     0.001 A 
ATOM     30  C   UNL d   1     -42.919-122.081 -56.231  0.00  0.00     0.000 A 
ATOM     31  C   UNL d   1     -42.119-121.918 -56.118  0.00  0.00     0.001 A 
ATOM     32  C   UNL d   1     -43.282-121.841 -56.932  0.00  0.00     0.000 C 
ATOM     33  C   UNL d   1     -41.752-122.156 -55.419  0.00  0.00     0.013 A 
ENDBRANCH  24  27
ENDBRANCH  22  24
ENDBRANCH   3  22
TORSDOF 7
ENDMDL
