MODEL 1
REMARK VINA RESULT:      -5.8      0.000      0.000
REMARK  6 active torsions:
REMARK  status: ('A' for Active; 'I' for Inactive)
REMARK    1  A    between atoms: N_2  and  S_1 
REMARK    2  A    between atoms: C_7  and  S_1 
REMARK    3  A    between atoms: C_3  and  N_2 
REMARK    4  A    between atoms: C_4  and  C_3 
REMARK    5  A    between atoms: N_5  and  C_4 
REMARK    6  A    between atoms: C_6  and  C_4 
ROOT
ATOM      1  C   UNL d   1     -48.730  14.606  22.454  0.00  0.00     0.110 C 
ATOM      2  C   UNL d   1     -48.677  15.148  21.833  0.00  0.00     0.023 C 
ENDROOT
BRANCH   1   3
ATOM      3  N   UNL d   1     -48.050  14.285  22.775  0.00  0.00    -0.157 NA
BRANCH   3   4
ATOM      4  S   UNL d   1     -47.312  14.611  22.615  0.00  0.00     0.285 S 
ATOM      5  O   UNL d   1     -46.896  15.296  22.412  0.00  0.00    -0.198 OA
ATOM      6  O   UNL d   1     -47.717  15.327  22.502  0.00  0.00    -0.198 OA
BRANCH   4   7
ATOM      7  C   UNL d   1     -46.852  13.939  22.712  0.00  0.00     0.105 A 
ATOM      8  C   UNL d   1     -46.594  13.516  22.042  0.00  0.00     0.013 A 
ATOM      9  C   UNL d   1     -46.130  12.838  22.145  0.00  0.00     0.007 A 
ATOM     10  C   UNL d   1     -45.925  12.583  22.900  0.00  0.00     0.035 A 
ATOM     11  C   UNL d   1     -46.180  13.002  23.563  0.00  0.00     0.007 A 
ATOM     12 BR   UNL d   1     -45.458  11.901  22.996  0.00  0.00    -0.049 Br
ATOM     13  C   UNL d   1     -46.647  13.684  23.467  0.00  0.00     0.013 A 
ENDBRANCH   4   7
ENDBRANCH   3   4
ENDBRANCH   1   3
BRANCH   1  14
ATOM     14  C   UNL d   1     -49.467  14.390  22.748  0.00  0.00     0.089 C 
BRANCH  14  15
ATOM     15  N   UNL d   1     -49.669  13.597  22.811  0.00  0.00    -0.300 N 
ATOM     16  C   UNL d   1     -49.847  13.159  22.136  0.00  0.00     0.100 A 
ATOM     17  C   UNL d   1     -50.051  12.359  22.202  0.00  0.00     0.100 A 
ATOM     18  N   UNL d   1     -50.077  11.997  22.938  0.00  0.00    -0.299 N 
ATOM     19  C   UNL d   1     -49.898  12.436  23.618  0.00  0.00     0.100 A 
ATOM     20  C   UNL d   1     -50.281  11.195  23.001  0.00  0.00     0.100 C 
ATOM     21  C   UNL d   1     -49.696  13.229  23.555  0.00  0.00     0.100 A 
ENDBRANCH  14  15
BRANCH  14  22
ATOM     22  C   UNL d   1     -50.002  14.971  22.980  0.00  0.00     0.047 A 
ATOM     23  S   UNL d   1     -50.644  15.249  22.537  0.00  0.00    -0.085 SA
ATOM     24  C   UNL d   1     -51.026  15.828  22.986  0.00  0.00     0.035 A 
ATOM     25  C   UNL d   1     -50.634  15.915  23.698  0.00  0.00     0.007 A 
ATOM     26  C   UNL d   1     -49.995  15.382  23.698  0.00  0.00     0.009 A 
ENDBRANCH  14  22
ENDBRANCH   1  14
TORSDOF 6
ENDMDL
MODEL 2
REMARK VINA RESULT:      -5.7      7.612      9.675
REMARK  6 active torsions:
REMARK  status: ('A' for Active; 'I' for Inactive)
REMARK    1  A    between atoms: N_2  and  S_1 
REMARK    2  A    between atoms: C_7  and  S_1 
REMARK    3  A    between atoms: C_3  and  N_2 
REMARK    4  A    between atoms: C_4  and  C_3 
REMARK    5  A    between atoms: N_5  and  C_4 
REMARK    6  A    between atoms: C_6  and  C_4 
ROOT
ATOM      1  C   UNL d   1     -40.360  15.147  19.802  0.00  0.00     0.110 C 
ATOM      2  C   UNL d   1     -40.629  15.913  19.653  0.00  0.00     0.023 C 
ENDROOT
BRANCH   1   3
ATOM      3  N   UNL d   1     -40.056  14.694  19.192  0.00  0.00    -0.157 NA
BRANCH   3   4
ATOM      4  S   UNL d   1     -39.957  15.010  18.440  0.00  0.00     0.285 S 
ATOM      5  O   UNL d   1     -40.152  15.627  17.926  0.00  0.00    -0.198 OA
ATOM      6  O   UNL d   1     -40.461  15.620  18.692  0.00  0.00    -0.198 OA
BRANCH   4   7
ATOM      7  C   UNL d   1     -39.454  14.441  18.129  0.00  0.00     0.105 A 
ATOM      8  C   UNL d   1     -39.757  13.693  17.920  0.00  0.00     0.013 A 
ATOM      9  C   UNL d   1     -39.246  13.123  17.607  0.00  0.00     0.007 A 
ATOM     10  C   UNL d   1     -38.448  13.290  17.501  0.00  0.00     0.035 A 
ATOM     11  C   UNL d   1     -38.148  14.030  17.707  0.00  0.00     0.007 A 
ATOM     12 BR   UNL d   1     -37.940  12.711  17.185  0.00  0.00    -0.049 Br
ATOM     13  C   UNL d   1     -38.656  14.608  18.023  0.00  0.00     0.013 A 
ENDBRANCH   4   7
ENDBRANCH   3   4
ENDBRANCH   1   3
BRANCH   1  14
ATOM     14  C   UNL d   1     -40.397  14.840  20.564  0.00  0.00     0.089 C 
BRANCH  14  15
ATOM     15  N   UNL d   1     -39.790  14.983  21.096  0.00  0.00    -0.300 N 
ATOM     16  C   UNL d   1     -39.300  14.367  21.344  0.00  0.00     0.100 A 
ATOM     17  C   UNL d   1     -38.688  14.514  21.881  0.00  0.00     0.100 A 
ATOM     18  N   UNL d   1     -38.562  15.272  22.170  0.00  0.00    -0.299 N 
ATOM     19  C   UNL d   1     -39.053  15.893  21.922  0.00  0.00     0.100 A 
ATOM     20  C   UNL d   1     -37.947  15.415  22.708  0.00  0.00     0.100 C 
ATOM     21  C   UNL d   1     -39.660  15.749  21.390  0.00  0.00     0.100 A 
ENDBRANCH  14  15
BRANCH  14  22
ATOM     22  C   UNL d   1     -41.047  14.389  20.793  0.00  0.00     0.047 A 
ATOM     23  S   UNL d   1     -41.811  14.672  20.943  0.00  0.00    -0.085 SA
ATOM     24  C   UNL d   1     -42.281  14.026  21.155  0.00  0.00     0.035 A 
ATOM     25  C   UNL d   1     -41.824  13.349  21.139  0.00  0.00     0.007 A 
ATOM     26  C   UNL d   1     -41.054  13.571  20.914  0.00  0.00     0.009 A 
ENDBRANCH  14  22
ENDBRANCH   1  14
TORSDOF 6
ENDMDL
MODEL 3
REMARK VINA RESULT:      -5.3      7.402      9.341
REMARK  6 active torsions:
REMARK  status: ('A' for Active; 'I' for Inactive)
REMARK    1  A    between atoms: N_2  and  S_1 
REMARK    2  A    between atoms: C_7  and  S_1 
REMARK    3  A    between atoms: C_3  and  N_2 
REMARK    4  A    between atoms: C_4  and  C_3 
REMARK    5  A    between atoms: N_5  and  C_4 
REMARK    6  A    between atoms: C_6  and  C_4 
ROOT
ATOM      1  C   UNL d   1     -40.112  15.254  19.930  0.00  0.00     0.110 C 
ATOM      2  C   UNL d   1     -40.503  15.921  19.642  0.00  0.00     0.023 C 
ENDROOT
BRANCH   1   3
ATOM      3  N   UNL d   1     -39.575  14.858  19.456  0.00  0.00    -0.157 NA
BRANCH   3   4
ATOM      4  S   UNL d   1     -39.446  15.092  18.678  0.00  0.00     0.285 S 
ATOM      5  O   UNL d   1     -39.528  15.700  18.123  0.00  0.00    -0.198 OA
ATOM      6  O   UNL d   1     -39.794  15.813  18.898  0.00  0.00    -0.198 OA
BRANCH   4   7
ATOM      7  C   UNL d   1     -39.094  14.407  18.396  0.00  0.00     0.105 A 
ATOM      8  C   UNL d   1     -39.545  13.862  17.957  0.00  0.00     0.013 A 
ATOM      9  C   UNL d   1     -39.185  13.172  17.675  0.00  0.00     0.007 A 
ATOM     10  C   UNL d   1     -38.390  13.024  17.826  0.00  0.00     0.035 A 
ATOM     11  C   UNL d   1     -37.943  13.564  18.261  0.00  0.00     0.007 A 
ATOM     12 BR   UNL d   1     -38.034  12.329  17.539  0.00  0.00    -0.049 Br
ATOM     13  C   UNL d   1     -38.298  14.259  18.547  0.00  0.00     0.013 A 
ENDBRANCH   4   7
ENDBRANCH   3   4
ENDBRANCH   1   3
BRANCH   1  14
ATOM     14  C   UNL d   1     -40.261  14.987  20.694  0.00  0.00     0.089 C 
BRANCH  14  15
ATOM     15  N   UNL d   1     -40.914  14.514  20.844  0.00  0.00    -0.300 N 
ATOM     16  C   UNL d   1     -40.823  13.702  20.955  0.00  0.00     0.100 A 
ATOM     17  C   UNL d   1     -41.484  13.227  21.106  0.00  0.00     0.100 A 
ATOM     18  N   UNL d   1     -42.234  13.559  21.148  0.00  0.00    -0.299 N 
ATOM     19  C   UNL d   1     -42.327  14.376  21.036  0.00  0.00     0.100 A 
ATOM     20  C   UNL d   1     -42.893  13.080  21.300  0.00  0.00     0.100 C 
ATOM     21  C   UNL d   1     -41.674  14.848  20.886  0.00  0.00     0.100 A 
ENDBRANCH  14  15
BRANCH  14  22
ATOM     22  C   UNL d   1     -39.754  15.196  21.308  0.00  0.00     0.047 A 
ATOM     23  S   UNL d   1     -39.743  15.922  21.707  0.00  0.00    -0.085 SA
ATOM     24  C   UNL d   1     -39.146  15.884  22.278  0.00  0.00     0.035 A 
ATOM     25  C   UNL d   1     -38.788  15.151  22.240  0.00  0.00     0.007 A 
ATOM     26  C   UNL d   1     -39.164  14.719  21.636  0.00  0.00     0.009 A 
ENDBRANCH  14  22
ENDBRANCH   1  14
TORSDOF 6
ENDMDL
MODEL 4
REMARK VINA RESULT:      -5.1      1.322      2.547
REMARK  6 active torsions:
REMARK  status: ('A' for Active; 'I' for Inactive)
REMARK    1  A    between atoms: N_2  and  S_1 
REMARK    2  A    between atoms: C_7  and  S_1 
REMARK    3  A    between atoms: C_3  and  N_2 
REMARK    4  A    between atoms: C_4  and  C_3 
REMARK    5  A    between atoms: N_5  and  C_4 
REMARK    6  A    between atoms: C_6  and  C_4 
ROOT
ATOM      1  C   UNL d   1     -47.826  13.426  22.294  0.00  0.00     0.110 C 
ATOM      2  C   UNL d   1     -47.421  13.792  21.674  0.00  0.00     0.023 C 
ENDROOT
BRANCH   1   3
ATOM      3  N   UNL d   1     -47.408  13.070  22.901  0.00  0.00    -0.157 NA
BRANCH   3   4
ATOM      4  S   UNL d   1     -46.615  13.246  23.028  0.00  0.00     0.285 S 
ATOM      5  O   UNL d   1     -46.040  13.840  23.051  0.00  0.00    -0.198 OA
ATOM      6  O   UNL d   1     -46.824  14.034  22.872  0.00  0.00    -0.198 OA
BRANCH   4   7
ATOM      7  C   UNL d   1     -46.341  12.490  23.191  0.00  0.00     0.105 A 
ATOM      8  C   UNL d   1     -46.861  11.925  23.516  0.00  0.00     0.013 A 
ATOM      9  C   UNL d   1     -46.580  11.164  23.679  0.00  0.00     0.007 A 
ATOM     10  C   UNL d   1     -45.797  10.965  23.523  0.00  0.00     0.035 A 
ATOM     11  C   UNL d   1     -45.283  11.523  23.201  0.00  0.00     0.007 A 
ATOM     12 BR   UNL d   1     -45.522  10.197  23.690  0.00  0.00    -0.049 Br
ATOM     13  C   UNL d   1     -45.559  12.291  23.035  0.00  0.00     0.013 A 
ENDBRANCH   4   7
ENDBRANCH   3   4
ENDBRANCH   1   3
BRANCH   1  14
ATOM     14  C   UNL d   1     -48.648  13.419  22.301  0.00  0.00     0.089 C 
BRANCH  14  15
ATOM     15  N   UNL d   1     -49.062  14.037  22.646  0.00  0.00    -0.300 N 
ATOM     16  C   UNL d   1     -49.050  14.788  22.305  0.00  0.00     0.100 A 
ATOM     17  C   UNL d   1     -49.468  15.410  22.655  0.00  0.00     0.100 A 
ATOM     18  N   UNL d   1     -49.898  15.285  23.344  0.00  0.00    -0.299 N 
ATOM     19  C   UNL d   1     -49.911  14.531  23.689  0.00  0.00     0.100 A 
ATOM     20  C   UNL d   1     -50.316  15.911  23.693  0.00  0.00     0.100 C 
ATOM     21  C   UNL d   1     -49.497  13.914  23.343  0.00  0.00     0.100 A 
ENDBRANCH  14  15
BRANCH  14  22
ATOM     22  C   UNL d   1     -49.055  12.790  21.960  0.00  0.00     0.047 A 
ATOM     23  S   UNL d   1     -49.216  12.691  21.153  0.00  0.00    -0.085 SA
ATOM     24  C   UNL d   1     -49.636  11.985  21.066  0.00  0.00     0.035 A 
ATOM     25  C   UNL d   1     -49.739  11.645  21.801  0.00  0.00     0.007 A 
ATOM     26  C   UNL d   1     -49.379  12.143  22.361  0.00  0.00     0.009 A 
ENDBRANCH  14  22
ENDBRANCH   1  14
TORSDOF 6
ENDMDL
MODEL 5
REMARK VINA RESULT:      -5.1      1.990      4.162
REMARK  6 active torsions:
REMARK  status: ('A' for Active; 'I' for Inactive)
REMARK    1  A    between atoms: N_2  and  S_1 
REMARK    2  A    between atoms: C_7  and  S_1 
REMARK    3  A    between atoms: C_3  and  N_2 
REMARK    4  A    between atoms: C_4  and  C_3 
REMARK    5  A    between atoms: N_5  and  C_4 
REMARK    6  A    between atoms: C_6  and  C_4 
ROOT
ATOM      1  C   UNL d   1     -46.933  13.695  22.877  0.00  0.00     0.110 C 
ATOM      2  C   UNL d   1     -46.583  14.176  23.451  0.00  0.00     0.023 C 
ENDROOT
BRANCH   1   3
ATOM      3  N   UNL d   1     -47.575  13.970  22.451  0.00  0.00    -0.157 NA
BRANCH   3   4
ATOM      4  S   UNL d   1     -47.812  14.755  22.502  0.00  0.00     0.285 S 
ATOM      5  O   UNL d   1     -47.568  15.538  22.610  0.00  0.00    -0.198 OA
ATOM      6  O   UNL d   1     -47.008  14.930  22.616  0.00  0.00    -0.198 OA
BRANCH   4   7
ATOM      7  C   UNL d   1     -48.619  14.652  22.394  0.00  0.00     0.105 A 
ATOM      8  C   UNL d   1     -48.910  14.431  21.645  0.00  0.00     0.013 A 
ATOM      9  C   UNL d   1     -49.725  14.329  21.542  0.00  0.00     0.007 A 
ATOM     10  C   UNL d   1     -50.243  14.443  22.171  0.00  0.00     0.035 A 
ATOM     11  C   UNL d   1     -49.955  14.661  22.912  0.00  0.00     0.007 A 
ATOM     12 BR   UNL d   1     -51.061  14.338  22.060  0.00  0.00    -0.049 Br
ATOM     13  C   UNL d   1     -49.137  14.766  23.023  0.00  0.00     0.013 A 
ENDBRANCH   4   7
ENDBRANCH   3   4
ENDBRANCH   1   3
BRANCH   1  14
ATOM     14  C   UNL d   1     -46.636  12.942  22.736  0.00  0.00     0.089 C 
BRANCH  14  15
ATOM     15  N   UNL d   1     -45.894  12.848  22.399  0.00  0.00    -0.300 N 
ATOM     16  C   UNL d   1     -45.783  12.986  21.594  0.00  0.00     0.100 A 
ATOM     17  C   UNL d   1     -45.033  12.891  21.256  0.00  0.00     0.100 A 
ATOM     18  N   UNL d   1     -44.395  12.659  21.719  0.00  0.00    -0.299 N 
ATOM     19  C   UNL d   1     -44.506  12.520  22.530  0.00  0.00     0.100 A 
ATOM     20  C   UNL d   1     -43.645  12.564  21.378  0.00  0.00     0.100 C 
ATOM     21  C   UNL d   1     -45.248  12.614  22.865  0.00  0.00     0.100 A 
ENDBRANCH  14  15
BRANCH  14  22
ATOM     22  C   UNL d   1     -47.085  12.280  22.934  0.00  0.00     0.047 A 
ATOM     23  S   UNL d   1     -47.201  11.978  23.696  0.00  0.00    -0.085 SA
ATOM     24  C   UNL d   1     -47.688  11.313  23.631  0.00  0.00     0.035 A 
ATOM     25  C   UNL d   1     -47.876  11.198  22.844  0.00  0.00     0.007 A 
ATOM     26  C   UNL d   1     -47.502  11.799  22.406  0.00  0.00     0.009 A 
ENDBRANCH  14  22
ENDBRANCH   1  14
TORSDOF 6
ENDMDL
MODEL 6
REMARK VINA RESULT:      -5.1      1.527      2.570
REMARK  6 active torsions:
REMARK  status: ('A' for Active; 'I' for Inactive)
REMARK    1  A    between atoms: N_2  and  S_1 
REMARK    2  A    between atoms: C_7  and  S_1 
REMARK    3  A    between atoms: C_3  and  N_2 
REMARK    4  A    between atoms: C_4  and  C_3 
REMARK    5  A    between atoms: N_5  and  C_4 
REMARK    6  A    between atoms: C_6  and  C_4 
ROOT
ATOM      1  C   UNL d   1     -47.965  13.555  22.962  0.00  0.00     0.110 C 
ATOM      2  C   UNL d   1     -48.068  14.090  23.583  0.00  0.00     0.023 C 
ENDROOT
BRANCH   1   3
ATOM      3  N   UNL d   1     -47.243  13.507  22.580  0.00  0.00    -0.157 NA
BRANCH   3   4
ATOM      4  S   UNL d   1     -46.647  14.052  22.733  0.00  0.00     0.285 S 
ATOM      5  O   UNL d   1     -46.467  14.814  23.001  0.00  0.00    -0.198 OA
ATOM      6  O   UNL d   1     -47.255  14.564  22.973  0.00  0.00    -0.198 OA
BRANCH   4   7
ATOM      7  C   UNL d   1     -46.000  13.599  22.511  0.00  0.00     0.105 A 
ATOM      8  C   UNL d   1     -45.602  13.140  23.083  0.00  0.00     0.013 A 
ATOM      9  C   UNL d   1     -44.951  12.684  22.854  0.00  0.00     0.007 A 
ATOM     10  C   UNL d   1     -44.697  12.682  22.072  0.00  0.00     0.035 A 
ATOM     11  C   UNL d   1     -45.090  13.135  21.506  0.00  0.00     0.007 A 
ATOM     12 BR   UNL d   1     -44.041  12.221  21.848  0.00  0.00    -0.049 Br
ATOM     13  C   UNL d   1     -45.746  13.596  21.729  0.00  0.00     0.013 A 
ENDBRANCH   4   7
ENDBRANCH   3   4
ENDBRANCH   1   3
BRANCH   1  14
ATOM     14  C   UNL d   1     -48.588  13.072  22.728  0.00  0.00     0.089 C 
BRANCH  14  15
ATOM     15  N   UNL d   1     -49.202  13.380  22.280  0.00  0.00    -0.300 N 
ATOM     16  C   UNL d   1     -49.803  13.814  22.641  0.00  0.00     0.100 A 
ATOM     17  C   UNL d   1     -50.422  14.124  22.187  0.00  0.00     0.100 A 
ATOM     18  N   UNL d   1     -50.443  14.002  21.375  0.00  0.00    -0.299 N 
ATOM     19  C   UNL d   1     -49.839  13.566  21.010  0.00  0.00     0.100 A 
ATOM     20  C   UNL d   1     -51.064  14.314  20.923  0.00  0.00     0.100 C 
ATOM     21  C   UNL d   1     -49.225  13.258  21.459  0.00  0.00     0.100 A 
ENDBRANCH  14  15
BRANCH  14  22
ATOM     22  C   UNL d   1     -48.594  12.278  22.945  0.00  0.00     0.047 A 
ATOM     23  S   UNL d   1     -48.764  11.978  23.698  0.00  0.00    -0.085 SA
ATOM     24  C   UNL d   1     -48.705  11.154  23.659  0.00  0.00     0.035 A 
ATOM     25  C   UNL d   1     -48.502  10.939  22.897  0.00  0.00     0.007 A 
ATOM     26  C   UNL d   1     -48.432  11.636  22.449  0.00  0.00     0.009 A 
ENDBRANCH  14  22
ENDBRANCH   1  14
TORSDOF 6
ENDMDL
MODEL 7
REMARK VINA RESULT:      -4.7      1.783      3.781
REMARK  6 active torsions:
REMARK  status: ('A' for Active; 'I' for Inactive)
REMARK    1  A    between atoms: N_2  and  S_1 
REMARK    2  A    between atoms: C_7  and  S_1 
REMARK    3  A    between atoms: C_3  and  N_2 
REMARK    4  A    between atoms: C_4  and  C_3 
REMARK    5  A    between atoms: N_5  and  C_4 
REMARK    6  A    between atoms: C_6  and  C_4 
ROOT
ATOM      1  C   UNL d   1     -46.940  13.972  22.821  0.00  0.00     0.110 C 
ATOM      2  C   UNL d   1     -46.404  14.444  23.235  0.00  0.00     0.023 C 
ENDROOT
BRANCH   1   3
ATOM      3  N   UNL d   1     -47.651  14.287  22.567  0.00  0.00    -0.157 NA
BRANCH   3   4
ATOM      4  S   UNL d   1     -47.768  15.101  22.544  0.00  0.00     0.285 S 
ATOM      5  O   UNL d   1     -47.409  15.843  22.485  0.00  0.00    -0.198 OA
ATOM      6  O   UNL d   1     -46.943  15.160  22.474  0.00  0.00    -0.198 OA
BRANCH   4   7
ATOM      7  C   UNL d   1     -48.586  15.113  22.611  0.00  0.00     0.105 A 
ATOM      8  C   UNL d   1     -48.937  15.213  23.360  0.00  0.00     0.013 A 
ATOM      9  C   UNL d   1     -49.762  15.224  23.422  0.00  0.00     0.007 A 
ATOM     10  C   UNL d   1     -50.233  15.139  22.752  0.00  0.00     0.035 A 
ATOM     11  C   UNL d   1     -49.885  15.041  22.010  0.00  0.00     0.007 A 
ATOM     12 BR   UNL d   1     -51.062  15.152  22.821  0.00  0.00    -0.049 Br
ATOM     13  C   UNL d   1     -49.056  15.028  21.941  0.00  0.00     0.013 A 
ENDBRANCH   4   7
ENDBRANCH   3   4
ENDBRANCH   1   3
BRANCH   1  14
ATOM     14  C   UNL d   1     -46.759  13.185  22.663  0.00  0.00     0.089 C 
BRANCH  14  15
ATOM     15  N   UNL d   1     -47.316  12.599  22.799  0.00  0.00    -0.300 N 
ATOM     16  C   UNL d   1     -47.448  12.319  23.563  0.00  0.00     0.100 A 
ATOM     17  C   UNL d   1     -48.011  11.728  23.698  0.00  0.00     0.100 A 
ATOM     18  N   UNL d   1     -48.442  11.415  23.072  0.00  0.00    -0.299 N 
ATOM     19  C   UNL d   1     -48.311  11.695  22.303  0.00  0.00     0.100 A 
ATOM     20  C   UNL d   1     -49.006  10.822  23.210  0.00  0.00     0.100 C 
ATOM     21  C   UNL d   1     -47.753  12.281  22.168  0.00  0.00     0.100 A 
ENDBRANCH  14  15
BRANCH  14  22
ATOM     22  C   UNL d   1     -46.016  12.987  22.369  0.00  0.00     0.047 A 
ATOM     23  S   UNL d   1     -45.370  12.717  22.813  0.00  0.00    -0.085 SA
ATOM     24  C   UNL d   1     -44.743  12.588  22.291  0.00  0.00     0.035 A 
ATOM     25  C   UNL d   1     -44.987  12.772  21.533  0.00  0.00     0.007 A 
ATOM     26  C   UNL d   1     -45.779  13.021  21.578  0.00  0.00     0.009 A 
ENDBRANCH  14  22
ENDBRANCH   1  14
TORSDOF 6
ENDMDL
MODEL 8
REMARK VINA RESULT:      -4.2      1.517      1.950
REMARK  6 active torsions:
REMARK  status: ('A' for Active; 'I' for Inactive)
REMARK    1  A    between atoms: N_2  and  S_1 
REMARK    2  A    between atoms: C_7  and  S_1 
REMARK    3  A    between atoms: C_3  and  N_2 
REMARK    4  A    between atoms: C_4  and  C_3 
REMARK    5  A    between atoms: N_5  and  C_4 
REMARK    6  A    between atoms: C_6  and  C_4 
ROOT
ATOM      1  C   UNL d   1     -48.410  13.282  23.008  0.00  0.00     0.110 C 
ATOM      2  C   UNL d   1     -48.664  12.904  23.697  0.00  0.00     0.023 C 
ENDROOT
BRANCH   1   3
ATOM      3  N   UNL d   1     -47.641  13.181  22.746  0.00  0.00    -0.157 NA
BRANCH   3   4
ATOM      4  S   UNL d   1     -47.132  12.656  23.122  0.00  0.00     0.285 S 
ATOM      5  O   UNL d   1     -47.060  12.061  23.692  0.00  0.00    -0.198 OA
ATOM      6  O   UNL d   1     -47.797  12.410  23.554  0.00  0.00    -0.198 OA
BRANCH   4   7
ATOM      7  C   UNL d   1     -46.438  12.851  22.731  0.00  0.00     0.105 A 
ATOM      8  C   UNL d   1     -46.235  12.455  22.026  0.00  0.00     0.013 A 
ATOM      9  C   UNL d   1     -45.533  12.656  21.637  0.00  0.00     0.007 A 
ATOM     10  C   UNL d   1     -45.040  13.240  21.940  0.00  0.00     0.035 A 
ATOM     11  C   UNL d   1     -45.240  13.632  22.637  0.00  0.00     0.007 A 
ATOM     12 BR   UNL d   1     -44.335  13.437  21.542  0.00  0.00    -0.049 Br
ATOM     13  C   UNL d   1     -45.944  13.435  23.034  0.00  0.00     0.013 A 
ENDBRANCH   4   7
ENDBRANCH   3   4
ENDBRANCH   1   3
BRANCH   1  14
ATOM     14  C   UNL d   1     -48.929  13.760  22.587  0.00  0.00     0.089 C 
BRANCH  14  15
ATOM     15  N   UNL d   1     -49.458  13.426  22.056  0.00  0.00    -0.300 N 
ATOM     16  C   UNL d   1     -50.141  13.052  22.329  0.00  0.00     0.100 A 
ATOM     17  C   UNL d   1     -50.672  12.716  21.791  0.00  0.00     0.100 A 
ATOM     18  N   UNL d   1     -50.525  12.751  20.984  0.00  0.00    -0.299 N 
ATOM     19  C   UNL d   1     -49.839  13.127  20.708  0.00  0.00     0.100 A 
ATOM     20  C   UNL d   1     -51.060  12.413  20.447  0.00  0.00     0.100 C 
ATOM     21  C   UNL d   1     -49.311  13.461  21.239  0.00  0.00     0.100 A 
ENDBRANCH  14  15
BRANCH  14  22
ATOM     22  C   UNL d   1     -48.918  14.576  22.699  0.00  0.00     0.047 A 
ATOM     23  S   UNL d   1     -49.315  14.993  23.295  0.00  0.00    -0.085 SA
ATOM     24  C   UNL d   1     -49.146  15.796  23.194  0.00  0.00     0.035 A 
ATOM     25  C   UNL d   1     -48.654  15.884  22.548  0.00  0.00     0.007 A 
ATOM     26  C   UNL d   1     -48.510  15.126  22.237  0.00  0.00     0.009 A 
ENDBRANCH  14  22
ENDBRANCH   1  14
TORSDOF 6
ENDMDL
MODEL 9
REMARK VINA RESULT:      -4.1      2.473      4.341
REMARK  6 active torsions:
REMARK  status: ('A' for Active; 'I' for Inactive)
REMARK    1  A    between atoms: N_2  and  S_1 
REMARK    2  A    between atoms: C_7  and  S_1 
REMARK    3  A    between atoms: C_3  and  N_2 
REMARK    4  A    between atoms: C_4  and  C_3 
REMARK    5  A    between atoms: N_5  and  C_4 
REMARK    6  A    between atoms: C_6  and  C_4 
ROOT
ATOM      1  C   UNL d   1     -46.797  12.466  23.064  0.00  0.00     0.110 C 
ATOM      2  C   UNL d   1     -46.438  12.076  23.697  0.00  0.00     0.023 C 
ENDROOT
BRANCH   1   3
ATOM      3  N   UNL d   1     -47.543  12.241  22.816  0.00  0.00    -0.157 NA
BRANCH   3   4
ATOM      4  S   UNL d   1     -47.902  11.565  23.115  0.00  0.00     0.285 S 
ATOM      5  O   UNL d   1     -47.784  10.814  23.439  0.00  0.00    -0.198 OA
ATOM      6  O   UNL d   1     -47.132  11.276  23.229  0.00  0.00    -0.198 OA
BRANCH   4   7
ATOM      7  C   UNL d   1     -48.687  11.788  23.028  0.00  0.00     0.105 A 
ATOM      8  C   UNL d   1     -49.123  12.029  23.696  0.00  0.00     0.013 A 
ATOM      9  C   UNL d   1     -49.914  12.254  23.604  0.00  0.00     0.007 A 
ATOM     10  C   UNL d   1     -50.268  12.241  22.861  0.00  0.00     0.035 A 
ATOM     11  C   UNL d   1     -49.837  12.002  22.200  0.00  0.00     0.007 A 
ATOM     12 BR   UNL d   1     -51.064  12.468  22.775  0.00  0.00    -0.049 Br
ATOM     13  C   UNL d   1     -49.041  11.775  22.286  0.00  0.00     0.013 A 
ENDBRANCH   4   7
ENDBRANCH   3   4
ENDBRANCH   1   3
BRANCH   1  14
ATOM     14  C   UNL d   1     -46.404  13.081  22.685  0.00  0.00     0.089 C 
BRANCH  14  15
ATOM     15  N   UNL d   1     -45.677  12.948  22.329  0.00  0.00    -0.300 N 
ATOM     16  C   UNL d   1     -44.998  12.863  22.789  0.00  0.00     0.100 A 
ATOM     17  C   UNL d   1     -44.266  12.729  22.428  0.00  0.00     0.100 A 
ATOM     18  N   UNL d   1     -44.210  12.680  21.610  0.00  0.00    -0.299 N 
ATOM     19  C   UNL d   1     -44.892  12.765  21.145  0.00  0.00     0.100 A 
ATOM     20  C   UNL d   1     -43.474  12.545  21.250  0.00  0.00     0.100 C 
ATOM     21  C   UNL d   1     -45.618  12.898  21.502  0.00  0.00     0.100 A 
ENDBRANCH  14  15
BRANCH  14  22
ATOM     22  C   UNL d   1     -46.742  13.832  22.663  0.00  0.00     0.047 A 
ATOM     23  S   UNL d   1     -46.718  14.397  23.269  0.00  0.00    -0.085 SA
ATOM     24  C   UNL d   1     -47.128  15.064  23.005  0.00  0.00     0.035 A 
ATOM     25  C   UNL d   1     -47.406  14.924  22.250  0.00  0.00     0.007 A 
ATOM     26  C   UNL d   1     -47.167  14.157  22.033  0.00  0.00     0.009 A 
ENDBRANCH  14  22
ENDBRANCH   1  14
TORSDOF 6
ENDMDL
