MODEL 1
REMARK VINA RESULT:      -3.5      0.000      0.000
REMARK  6 active torsions:
REMARK  status: ('A' for Active; 'I' for Inactive)
REMARK    1  A    between atoms: S_2  and  C_1 
REMARK    2  A    between atoms: C_7  and  S_2 
REMARK    3  A    between atoms: N_10  and  C_6 
REMARK    4  A    between atoms: C_18  and  N_10 
REMARK    5  A    between atoms: N_14  and  C_19 
REMARK    6  A    between atoms: C_19  and  C_18 
ROOT
ATOM      1  C   UNL d   1      58.552  -0.553  29.511  0.00  0.00     0.187 A 
ATOM      2  N   UNL d   1      58.030  -0.489  30.103  0.00  0.00    -0.208 NA
ATOM      3  C   UNL d   1      58.619   0.160  29.163  0.00  0.00     0.118 A 
ATOM      4  S   UNL d   1      58.135   0.664  29.544  0.00  0.00    -0.035 SA
ATOM      5  C   UNL d   1      57.769   0.262  30.128  0.00  0.00     0.196 A 
ATOM      6 CL   UNL d   1      59.102   0.344  28.525  0.00  0.00    -0.073 Cl
ENDROOT
BRANCH   1   7
ATOM      7  S   UNL d   1      58.955  -1.232  29.293  0.00  0.00     0.228 S 
ATOM      8  O   UNL d   1      58.253  -1.573  28.746  0.00  0.00    -0.216 OA
ATOM      9  O   UNL d   1      59.672  -0.938  29.818  0.00  0.00    -0.216 OA
BRANCH   7  10
ATOM     10  C   UNL d   1      59.372  -1.907  29.084  0.00  0.00     0.089 A 
ATOM     11  C   UNL d   1      60.197  -1.900  29.089  0.00  0.00     0.011 A 
ATOM     12  C   UNL d   1      60.620  -2.574  28.880  0.00  0.00     0.001 A 
ATOM     13  C   UNL d   1      60.213  -3.261  28.665  0.00  0.00     0.000 A 
ATOM     14  C   UNL d   1      59.385  -3.272  28.659  0.00  0.00     0.001 A 
ATOM     15  C   UNL d   1      60.636  -3.939  28.455  0.00  0.00     0.000 C 
ATOM     16  C   UNL d   1      58.969  -2.588  28.870  0.00  0.00     0.011 A 
ENDBRANCH   7  10
ENDBRANCH   1   7
BRANCH   5  17
ATOM     17  N   UNL d   1      57.220   0.572  30.658  0.00  0.00    -0.218 NA
BRANCH  17  18
ATOM     18  C   UNL d   1      57.218   0.326  31.431  0.00  0.00     0.120 C 
BRANCH  18  19
ATOM     19  C   UNL d   1      56.608   0.565  31.945  0.00  0.00     0.101 C 
BRANCH  19  20
ATOM     20  N   UNL d   1      56.576   0.270  32.714  0.00  0.00    -0.299 N 
ATOM     21  C   UNL d   1      57.063   0.577  33.296  0.00  0.00     0.100 C 
ATOM     22  C   UNL d   1      56.050  -0.337  32.900  0.00  0.00     0.100 C 
ENDBRANCH  19  20
ENDBRANCH  18  19
ENDBRANCH  17  18
ENDBRANCH   5  17
TORSDOF 6
ENDMDL
MODEL 2
REMARK VINA RESULT:      -3.5      2.498      5.288
REMARK  6 active torsions:
REMARK  status: ('A' for Active; 'I' for Inactive)
REMARK    1  A    between atoms: S_2  and  C_1 
REMARK    2  A    between atoms: C_7  and  S_2 
REMARK    3  A    between atoms: N_10  and  C_6 
REMARK    4  A    between atoms: C_18  and  N_10 
REMARK    5  A    between atoms: N_14  and  C_19 
REMARK    6  A    between atoms: C_19  and  C_18 
ROOT
ATOM      1  C   UNL d   1      57.295   0.123  31.735  0.00  0.00     0.187 A 
ATOM      2  N   UNL d   1      57.766   0.656  31.386  0.00  0.00    -0.208 NA
ATOM      3  C   UNL d   1      57.318  -0.546  31.303  0.00  0.00     0.118 A 
ATOM      4  S   UNL d   1      57.807  -0.422  30.687  0.00  0.00    -0.035 SA
ATOM      5  C   UNL d   1      58.085   0.324  30.737  0.00  0.00     0.196 A 
ATOM      6 CL   UNL d   1      56.911  -1.240  31.464  0.00  0.00    -0.073 Cl
ENDROOT
BRANCH   1   7
ATOM      7  S   UNL d   1      56.859   0.237  32.418  0.00  0.00     0.228 S 
ATOM      8  O   UNL d   1      57.617   0.376  32.979  0.00  0.00    -0.216 OA
ATOM      9  O   UNL d   1      56.084   0.106  31.908  0.00  0.00    -0.216 OA
BRANCH   7  10
ATOM     10  C   UNL d   1      56.407   0.348  33.094  0.00  0.00     0.089 A 
ATOM     11  C   UNL d   1      55.587   0.260  33.061  0.00  0.00     0.011 A 
ATOM     12  C   UNL d   1      55.130   0.370  33.736  0.00  0.00     0.001 A 
ATOM     13  C   UNL d   1      55.496   0.571  34.449  0.00  0.00     0.000 A 
ATOM     14  C   UNL d   1      56.319   0.660  34.486  0.00  0.00     0.001 A 
ATOM     15  C   UNL d   1      55.039   0.682  35.128  0.00  0.00     0.000 C 
ATOM     16  C   UNL d   1      56.770   0.547  33.801  0.00  0.00     0.011 A 
ENDBRANCH   7  10
ENDBRANCH   1   7
BRANCH   5  17
ATOM     17  N   UNL d   1      58.608   0.681  30.211  0.00  0.00    -0.218 NA
BRANCH  17  18
ATOM     18  C   UNL d   1      59.325   0.335  30.053  0.00  0.00     0.120 C 
BRANCH  18  19
ATOM     19  C   UNL d   1      59.788   0.604  29.415  0.00  0.00     0.101 C 
BRANCH  19  20
ATOM     20  N   UNL d   1      60.540   0.289  29.288  0.00  0.00    -0.299 N 
ATOM     21  C   UNL d   1      60.797   0.128  28.528  0.00  0.00     0.100 C 
ATOM     22  C   UNL d   1      61.035   0.137  29.928  0.00  0.00     0.100 C 
ENDBRANCH  19  20
ENDBRANCH  18  19
ENDBRANCH  17  18
ENDBRANCH   5  17
TORSDOF 6
ENDMDL
