MODEL 1
REMARK VINA RESULT:      13.8      0.000      0.000
REMARK  3 active torsions:
REMARK  status: ('A' for Active; 'I' for Inactive)
REMARK    1  A    between atoms: C_3  and  C_1 
REMARK    2  A    between atoms: C_5  and  C_3 
REMARK    3  A    between atoms: C_10  and  C_5 
ROOT
ATOM      1  C   UNL d   1      45.635 -15.392  44.444  0.00  0.00     0.109 C 
ATOM      2  C   UNL d   1      44.877 -15.166  44.676  0.00  0.00     0.105 C 
ATOM      3  N   UNL d   1      44.120 -14.946  44.908  0.00  0.00    -0.191 NA
ENDROOT
BRANCH   1   4
ATOM      4  C   UNL d   1      45.811 -16.193  44.344  0.00  0.00     0.192 A 
ATOM      5  N   UNL d   1      45.960 -16.741  44.955  0.00  0.00    -0.220 NA
ATOM      6  C   UNL d   1      46.109 -17.470  44.607  0.00  0.00     0.106 A 
ATOM      7  C   UNL d   1      46.289 -18.212  44.937  0.00  0.00     0.021 A 
ATOM      8  C   UNL d   1      46.055 -17.384  43.788  0.00  0.00     0.119 A 
ATOM      9  C   UNL d   1      46.414 -18.862  44.439  0.00  0.00     0.002 A 
ATOM     10  C   UNL d   1      46.361 -18.779  43.620  0.00  0.00     0.002 A 
ATOM     11  C   UNL d   1      46.182 -18.046  43.290  0.00  0.00     0.026 A 
ATOM     12  O   UNL d   1      45.871 -16.595  43.628  0.00  0.00    -0.287 OA
ENDBRANCH   1   4
BRANCH   1  13
ATOM     13  C   UNL d   1      46.212 -14.826  44.312  0.00  0.00     0.014 C 
BRANCH  13  14
ATOM     14  C   UNL d   1      46.008 -14.026  44.307  0.00  0.00     0.004 A 
ATOM     15  C   UNL d   1      45.606 -13.712  43.661  0.00  0.00     0.042 A 
ATOM     16  C   UNL d   1      45.404 -12.912  43.659  0.00  0.00     0.196 A 
ATOM     17  O   UNL d   1      45.000 -12.589  43.013  0.00  0.00    -0.287 OA
ATOM     18  C   UNL d   1      45.601 -12.427  44.295  0.00  0.00     0.042 A 
ATOM     19  C   UNL d   1      46.008 -12.754  44.945  0.00  0.00     0.003 A 
ATOM     20  C   UNL d   1      46.212 -13.553  44.951  0.00  0.00     0.000 A 
ENDBRANCH  13  14
ENDBRANCH   1  13
TORSDOF 3
ENDMDL
MODEL 2
REMARK VINA RESULT:      16.1      1.285      4.668
REMARK  3 active torsions:
REMARK  status: ('A' for Active; 'I' for Inactive)
REMARK    1  A    between atoms: C_3  and  C_1 
REMARK    2  A    between atoms: C_5  and  C_3 
REMARK    3  A    between atoms: C_10  and  C_5 
ROOT
ATOM      1  C   UNL d   1      46.093 -17.392  43.813  0.00  0.00     0.109 C 
ATOM      2  C   UNL d   1      45.886 -17.674  43.067  0.00  0.00     0.105 C 
ATOM      3  N   UNL d   1      45.676 -17.950  42.321  0.00  0.00    -0.191 NA
ENDROOT
BRANCH   1   4
ATOM      4  C   UNL d   1      45.873 -16.628  44.038  0.00  0.00     0.192 A 
ATOM      5  N   UNL d   1      45.181 -16.423  44.455  0.00  0.00    -0.220 NA
ATOM      6  C   UNL d   1      45.185 -15.607  44.561  0.00  0.00     0.106 A 
ATOM      7  C   UNL d   1      44.644 -15.097  44.933  0.00  0.00     0.021 A 
ATOM      8  C   UNL d   1      45.870 -15.304  44.216  0.00  0.00     0.119 A 
ATOM      9  C   UNL d   1      44.798 -14.284  44.955  0.00  0.00     0.002 A 
ATOM     10  C   UNL d   1      45.482 -13.976  44.611  0.00  0.00     0.002 A 
ATOM     11  C   UNL d   1      46.020 -14.479  44.241  0.00  0.00     0.026 A 
ATOM     12  O   UNL d   1      46.293 -15.935  43.894  0.00  0.00    -0.287 OA
ENDBRANCH   1   4
BRANCH   1  13
ATOM     13  C   UNL d   1      46.517 -17.867  44.330  0.00  0.00     0.014 C 
BRANCH  13  14
ATOM     14  C   UNL d   1      46.458 -18.688  44.274  0.00  0.00     0.004 A 
ATOM     15  C   UNL d   1      46.545 -19.055  43.543  0.00  0.00     0.042 A 
ATOM     16  C   UNL d   1      46.486 -19.876  43.491  0.00  0.00     0.196 A 
ATOM     17  O   UNL d   1      46.572 -20.252  42.758  0.00  0.00    -0.287 OA
ATOM     18  C   UNL d   1      46.341 -20.330  44.162  0.00  0.00     0.042 A 
ATOM     19  C   UNL d   1      46.254 -19.950  44.899  0.00  0.00     0.003 A 
ATOM     20  C   UNL d   1      46.313 -19.129  44.955  0.00  0.00     0.000 A 
ENDBRANCH  13  14
ENDBRANCH   1  13
TORSDOF 3
ENDMDL
