MODEL 1
REMARK VINA RESULT:      -7.8      0.000      0.000
REMARK  4 active torsions:
REMARK  status: ('A' for Active; 'I' for Inactive)
REMARK    1  A    between atoms: C_15  and  C_2 
REMARK    2  A    between atoms: C_3  and  N_6 
REMARK    3  A    between atoms: C_5  and  C_16 
REMARK       I    between atoms: N_6  and  C_5 
REMARK    4  A    between atoms: C_16  and  C_15 
ROOT
ATOM      1  C   UNL d   1     -48.629  11.449  23.400  0.00  0.00     0.279 C 
ATOM      2  N   UNL d   1     -49.438  11.411  23.266  0.00  0.00    -0.208 NA
ATOM      3  O   UNL d   1     -48.228  10.799  23.698  0.00  0.00    -0.265 OA
ENDROOT
BRANCH   1   4
ATOM      4  C   UNL d   1     -48.211  12.141  23.237  0.00  0.00     0.065 C 
BRANCH   4   5
ATOM      5  C   UNL d   1     -47.411  12.191  23.411  0.00  0.00     0.030 C 
BRANCH   5   6
ATOM      6  C   UNL d   1     -46.963  12.823  23.126  0.00  0.00     0.100 A 
ATOM      7  O   UNL d   1     -47.105  13.628  23.246  0.00  0.00    -0.307 OA
ATOM      8  C   UNL d   1     -46.524  14.057  22.866  0.00  0.00     0.100 A 
ATOM      9  C   UNL d   1     -46.011  13.519  22.503  0.00  0.00     0.027 A 
ATOM     10  C   UNL d   1     -46.459  14.872  22.845  0.00  0.00     0.027 C 
ATOM     11  C   UNL d   1     -46.282  12.758  22.663  0.00  0.00     0.027 A 
ENDBRANCH   5   6
ENDBRANCH   4   5
ENDBRANCH   1   4
BRANCH   2  12
ATOM     12  C   UNL d   1     -49.838  12.072  22.964  0.00  0.00     0.085 A 
ATOM     13  C   UNL d   1     -49.911  12.170  22.148  0.00  0.00     0.019 A 
ATOM     14  C   UNL d   1     -50.305  12.821  21.848  0.00  0.00     0.002 A 
ATOM     15  C   UNL d   1     -50.377  12.918  21.036  0.00  0.00     0.000 C 
ATOM     16  C   UNL d   1     -50.633  13.385  22.366  0.00  0.00     0.000 A 
ATOM     17  C   UNL d   1     -50.554  13.277  23.184  0.00  0.00     0.002 A 
ATOM     18  C   UNL d   1     -50.160  12.626  23.480  0.00  0.00     0.019 A 
ATOM     19  C   UNL d   1     -50.880  13.838  23.698  0.00  0.00     0.000 C 
ENDBRANCH   2  12
TORSDOF 4
ENDMDL
MODEL 2
REMARK VINA RESULT:      -7.0      1.173      3.565
REMARK  4 active torsions:
REMARK  status: ('A' for Active; 'I' for Inactive)
REMARK    1  A    between atoms: C_15  and  C_2 
REMARK    2  A    between atoms: C_3  and  N_6 
REMARK    3  A    between atoms: C_5  and  C_16 
REMARK       I    between atoms: N_6  and  C_5 
REMARK    4  A    between atoms: C_16  and  C_15 
ROOT
ATOM      1  C   UNL d   1     -47.801  11.683  23.326  0.00  0.00     0.279 C 
ATOM      2  N   UNL d   1     -47.059  11.933  23.574  0.00  0.00    -0.208 NA
ATOM      3  O   UNL d   1     -48.170  11.052  23.697  0.00  0.00    -0.265 OA
ENDROOT
BRANCH   1   4
ATOM      4  C   UNL d   1     -48.183  12.064  22.701  0.00  0.00     0.065 C 
BRANCH   4   5
ATOM      5  C   UNL d   1     -48.893  11.772  22.413  0.00  0.00     0.030 C 
BRANCH   5   6
ATOM      6  C   UNL d   1     -49.423  12.276  22.031  0.00  0.00     0.100 A 
ATOM      7  O   UNL d   1     -49.994  12.757  22.385  0.00  0.00    -0.307 OA
ATOM      8  C   UNL d   1     -50.396  13.161  21.801  0.00  0.00     0.100 A 
ATOM      9  C   UNL d   1     -50.077  12.934  21.072  0.00  0.00     0.027 A 
ATOM     10  C   UNL d   1     -51.005  13.695  21.912  0.00  0.00     0.027 C 
ATOM     11  C   UNL d   1     -49.477  12.387  21.215  0.00  0.00     0.027 A 
ENDBRANCH   5   6
ENDBRANCH   4   5
ENDBRANCH   1   4
BRANCH   2  12
ATOM     12  C   UNL d   1     -46.691  12.573  23.195  0.00  0.00     0.085 A 
ATOM     13  C   UNL d   1     -46.048  12.437  22.695  0.00  0.00     0.019 A 
ATOM     14  C   UNL d   1     -45.683  13.066  22.320  0.00  0.00     0.002 A 
ATOM     15  C   UNL d   1     -45.044  12.931  21.823  0.00  0.00     0.000 C 
ATOM     16  C   UNL d   1     -45.960  13.843  22.442  0.00  0.00     0.000 A 
ATOM     17  C   UNL d   1     -46.606  13.966  22.946  0.00  0.00     0.002 A 
ATOM     18  C   UNL d   1     -46.968  13.337  23.318  0.00  0.00     0.019 A 
ATOM     19  C   UNL d   1     -46.881  14.738  23.066  0.00  0.00     0.000 C 
ENDBRANCH   2  12
TORSDOF 4
ENDMDL
MODEL 3
REMARK VINA RESULT:      -6.9      1.702      2.468
REMARK  4 active torsions:
REMARK  status: ('A' for Active; 'I' for Inactive)
REMARK    1  A    between atoms: C_15  and  C_2 
REMARK    2  A    between atoms: C_3  and  N_6 
REMARK    3  A    between atoms: C_5  and  C_16 
REMARK       I    between atoms: N_6  and  C_5 
REMARK    4  A    between atoms: C_16  and  C_15 
ROOT
ATOM      1  C   UNL d   1     -49.843  12.845  21.595  0.00  0.00     0.279 C 
ATOM      2  N   UNL d   1     -50.154  13.599  21.500  0.00  0.00    -0.208 NA
ATOM      3  O   UNL d   1     -50.108  12.227  21.125  0.00  0.00    -0.265 OA
ENDROOT
BRANCH   1   4
ATOM      4  C   UNL d   1     -49.262  12.701  22.162  0.00  0.00     0.065 C 
BRANCH   4   5
ATOM      5  C   UNL d   1     -48.916  11.960  22.220  0.00  0.00     0.030 C 
BRANCH   5   6
ATOM      6  C   UNL d   1     -48.258  11.845  22.703  0.00  0.00     0.100 A 
ATOM      7  O   UNL d   1     -47.503  12.165  22.600  0.00  0.00    -0.307 OA
ATOM      8  C   UNL d   1     -47.022  11.907  23.207  0.00  0.00     0.100 A 
ATOM      9  C   UNL d   1     -47.477  11.420  23.698  0.00  0.00     0.027 A 
ATOM     10  C   UNL d   1     -46.234  12.094  23.314  0.00  0.00     0.027 C 
ATOM     11  C   UNL d   1     -48.239  11.382  23.387  0.00  0.00     0.027 A 
ENDBRANCH   5   6
ENDBRANCH   4   5
ENDBRANCH   1   4
BRANCH   2  12
ATOM     12  C   UNL d   1     -49.882  14.220  21.979  0.00  0.00     0.085 A 
ATOM     13  C   UNL d   1     -49.146  14.562  21.827  0.00  0.00     0.019 A 
ATOM     14  C   UNL d   1     -48.876  15.174  22.297  0.00  0.00     0.002 A 
ATOM     15  C   UNL d   1     -48.145  15.514  22.147  0.00  0.00     0.000 C 
ATOM     16  C   UNL d   1     -49.344  15.454  22.929  0.00  0.00     0.000 A 
ATOM     17  C   UNL d   1     -50.081  15.103  23.071  0.00  0.00     0.002 A 
ATOM     18  C   UNL d   1     -50.347  14.492  22.600  0.00  0.00     0.019 A 
ATOM     19  C   UNL d   1     -50.544  15.380  23.698  0.00  0.00     0.000 C 
ENDBRANCH   2  12
TORSDOF 4
ENDMDL
MODEL 4
REMARK VINA RESULT:      -6.0      8.562     10.355
REMARK  4 active torsions:
REMARK  status: ('A' for Active; 'I' for Inactive)
REMARK    1  A    between atoms: C_15  and  C_2 
REMARK    2  A    between atoms: C_3  and  N_6 
REMARK    3  A    between atoms: C_5  and  C_16 
REMARK       I    between atoms: N_6  and  C_5 
REMARK    4  A    between atoms: C_16  and  C_15 
ROOT
ATOM      1  C   UNL d   1     -40.655  15.542  18.096  0.00  0.00     0.279 C 
ATOM      2  N   UNL d   1     -40.869  15.883  18.812  0.00  0.00    -0.208 NA
ATOM      3  O   UNL d   1     -40.974  15.820  17.394  0.00  0.00    -0.265 OA
ENDROOT
BRANCH   1   4
ATOM      4  C   UNL d   1     -40.116  14.918  18.076  0.00  0.00     0.065 C 
BRANCH   4   5
ATOM      5  C   UNL d   1     -39.958  14.532  17.370  0.00  0.00     0.030 C 
BRANCH   5   6
ATOM      6  C   UNL d   1     -39.339  13.989  17.323  0.00  0.00     0.100 A 
ATOM      7  O   UNL d   1     -39.305  13.241  17.673  0.00  0.00    -0.307 OA
ATOM      8  C   UNL d   1     -38.591  12.893  17.483  0.00  0.00     0.100 A 
ATOM      9  C   UNL d   1     -38.171  13.426  17.010  0.00  0.00     0.027 A 
ATOM     10  C   UNL d   1     -38.335  12.153  17.717  0.00  0.00     0.027 C 
ATOM     11  C   UNL d   1     -38.632  14.102  16.911  0.00  0.00     0.027 A 
ENDBRANCH   5   6
ENDBRANCH   4   5
ENDBRANCH   1   4
BRANCH   2  12
ATOM     12  C   UNL d   1     -40.543  15.599  19.519  0.00  0.00     0.085 A 
ATOM     13  C   UNL d   1     -40.938  15.012  19.946  0.00  0.00     0.019 A 
ATOM     14  C   UNL d   1     -40.618  14.730  20.643  0.00  0.00     0.002 A 
ATOM     15  C   UNL d   1     -41.010  14.148  21.068  0.00  0.00     0.000 C 
ATOM     16  C   UNL d   1     -39.894  15.033  20.924  0.00  0.00     0.000 A 
ATOM     17  C   UNL d   1     -39.506  15.621  20.487  0.00  0.00     0.002 A 
ATOM     18  C   UNL d   1     -39.828  15.901  19.791  0.00  0.00     0.019 A 
ATOM     19  C   UNL d   1     -38.787  15.922  20.765  0.00  0.00     0.000 C 
ENDBRANCH   2  12
TORSDOF 4
ENDMDL
MODEL 5
REMARK VINA RESULT:      -5.3      8.447     10.123
REMARK  4 active torsions:
REMARK  status: ('A' for Active; 'I' for Inactive)
REMARK    1  A    between atoms: C_15  and  C_2 
REMARK    2  A    between atoms: C_3  and  N_6 
REMARK    3  A    between atoms: C_5  and  C_16 
REMARK       I    between atoms: N_6  and  C_5 
REMARK    4  A    between atoms: C_16  and  C_15 
ROOT
ATOM      1  C   UNL d   1     -40.904  14.650  20.699  0.00  0.00     0.279 C 
ATOM      2  N   UNL d   1     -40.535  14.739  21.427  0.00  0.00    -0.208 NA
ATOM      3  O   UNL d   1     -41.719  14.716  20.638  0.00  0.00    -0.265 OA
ENDROOT
BRANCH   1   4
ATOM      4  C   UNL d   1     -40.460  14.493  20.022  0.00  0.00     0.065 C 
BRANCH   4   5
ATOM      5  C   UNL d   1     -40.830  14.406  19.296  0.00  0.00     0.030 C 
BRANCH   5   6
ATOM      6  C   UNL d   1     -40.383  14.298  18.612  0.00  0.00     0.100 A 
ATOM      7  O   UNL d   1     -39.862  13.677  18.451  0.00  0.00    -0.307 OA
ATOM      8  C   UNL d   1     -39.538  13.790  17.710  0.00  0.00     0.100 A 
ATOM      9  C   UNL d   1     -39.857  14.488  17.400  0.00  0.00     0.027 A 
ATOM     10  C   UNL d   1     -38.997  13.303  17.339  0.00  0.00     0.027 C 
ATOM     11  C   UNL d   1     -40.378  14.801  17.956  0.00  0.00     0.027 A 
ENDBRANCH   5   6
ENDBRANCH   4   5
ENDBRANCH   1   4
BRANCH   2  12
ATOM     12  C   UNL d   1     -39.710  14.671  21.483  0.00  0.00     0.085 A 
ATOM     13  C   UNL d   1     -39.371  13.942  21.670  0.00  0.00     0.019 A 
ATOM     14  C   UNL d   1     -38.558  13.872  21.726  0.00  0.00     0.002 A 
ATOM     15  C   UNL d   1     -38.221  13.148  21.912  0.00  0.00     0.000 C 
ATOM     16  C   UNL d   1     -38.072  14.536  21.593  0.00  0.00     0.000 A 
ATOM     17  C   UNL d   1     -38.423  15.263  21.406  0.00  0.00     0.002 A 
ATOM     18  C   UNL d   1     -39.235  15.329  21.351  0.00  0.00     0.019 A 
ATOM     19  C   UNL d   1     -37.940  15.922  21.275  0.00  0.00     0.000 C 
ENDBRANCH   2  12
TORSDOF 4
ENDMDL
MODEL 6
REMARK VINA RESULT:      -5.2      8.691     10.401
REMARK  4 active torsions:
REMARK  status: ('A' for Active; 'I' for Inactive)
REMARK    1  A    between atoms: C_15  and  C_2 
REMARK    2  A    between atoms: C_3  and  N_6 
REMARK    3  A    between atoms: C_5  and  C_16 
REMARK       I    between atoms: N_6  and  C_5 
REMARK    4  A    between atoms: C_16  and  C_15 
ROOT
ATOM      1  C   UNL d   1     -38.947  13.518  18.685  0.00  0.00     0.279 C 
ATOM      2  N   UNL d   1     -38.843  13.469  19.499  0.00  0.00    -0.208 NA
ATOM      3  O   UNL d   1     -38.654  12.931  18.195  0.00  0.00    -0.265 OA
ENDROOT
BRANCH   1   4
ATOM      4  C   UNL d   1     -39.348  14.159  18.354  0.00  0.00     0.065 C 
BRANCH   4   5
ATOM      5  C   UNL d   1     -39.472  14.193  17.544  0.00  0.00     0.030 C 
BRANCH   5   6
ATOM      6  C   UNL d   1     -39.914  14.809  17.218  0.00  0.00     0.100 A 
ATOM      7  O   UNL d   1     -40.732  14.914  17.268  0.00  0.00    -0.307 OA
ATOM      8  C   UNL d   1     -40.935  15.595  16.866  0.00  0.00     0.100 A 
ATOM      9  C   UNL d   1     -40.240  15.922  16.559  0.00  0.00     0.027 A 
ATOM     10  C   UNL d   1     -41.688  15.901  16.780  0.00  0.00     0.027 C 
ATOM     11  C   UNL d   1     -39.610  15.437  16.776  0.00  0.00     0.027 A 
ENDBRANCH   5   6
ENDBRANCH   4   5
ENDBRANCH   1   4
BRANCH   2  12
ATOM     12  C   UNL d   1     -39.143  14.066  19.990  0.00  0.00     0.085 A 
ATOM     13  C   UNL d   1     -38.660  14.701  20.204  0.00  0.00     0.019 A 
ATOM     14  C   UNL d   1     -38.953  15.291  20.689  0.00  0.00     0.002 A 
ATOM     15  C   UNL d   1     -38.473  15.922  20.902  0.00  0.00     0.000 C 
ATOM     16  C   UNL d   1     -39.738  15.253  20.966  0.00  0.00     0.000 A 
ATOM     17  C   UNL d   1     -40.213  14.611  20.744  0.00  0.00     0.002 A 
ATOM     18  C   UNL d   1     -39.918  14.024  20.261  0.00  0.00     0.019 A 
ATOM     19  C   UNL d   1     -40.993  14.573  21.020  0.00  0.00     0.000 C 
ENDBRANCH   2  12
TORSDOF 4
ENDMDL
