MODEL 1
REMARK VINA RESULT:      43.5      0.000      0.000
REMARK  6 active torsions:
REMARK  status: ('A' for Active; 'I' for Inactive)
REMARK    1  A    between atoms: C_2  and  C_4 
REMARK    2  A    between atoms: C_3  and  C_2 
REMARK       I    between atoms: N_8  and  C_3 
REMARK    3  A    between atoms: C_5  and  C_9 
REMARK    4  A    between atoms: O_16  and  C_5 
REMARK    5  A    between atoms: C_15  and  N_8 
REMARK    6  A    between atoms: C_21  and  O_16 
ROOT
ATOM      1  C   UNL d   1     -55.531-102.180 -39.636  0.00  0.00     0.064 A 
ATOM      2  C   UNL d   1     -55.537-101.459 -40.045  0.00  0.00     0.007 A 
ATOM      3  C   UNL d   1     -55.251-102.864 -40.014  0.00  0.00     0.007 A 
ATOM      4  C   UNL d   1     -54.989-102.114 -41.191  0.00  0.00     0.085 A 
ATOM      5  C   UNL d   1     -54.982-102.827 -40.787  0.00  0.00     0.019 A 
ATOM      6  C   UNL d   1     -55.267-101.425 -40.821  0.00  0.00     0.019 A 
ENDROOT
BRANCH   4   7
ATOM      7  N   UNL d   1     -54.719-102.079 -41.968  0.00  0.00    -0.208 NA
ATOM      8  C   UNL d   1     -55.113-101.614 -42.525  0.00  0.00     0.281 C 
ATOM      9  O   UNL d   1     -55.780-101.186 -42.294  0.00  0.00    -0.265 OA
BRANCH   8  10
ATOM     10  C   UNL d   1     -54.843-101.580 -43.298  0.00  0.00     0.086 C 
BRANCH  10  11
ATOM     11  C   UNL d   1     -54.862-100.864 -43.717  0.00  0.00     0.144 A 
ATOM     12  C   UNL d   1     -54.889-100.873 -44.541  0.00  0.00     0.297 A 
ATOM     13  N   UNL d   1     -54.909-100.169 -44.967  0.00  0.00    -0.204 NA
ATOM     14  O   UNL d   1     -54.896-101.599 -44.943  0.00  0.00    -0.264 OA
ATOM     15  C   UNL d   1     -54.901 -99.456 -44.557  0.00  0.00     0.123 A 
ATOM     16  C   UNL d   1     -54.874 -99.446 -43.732  0.00  0.00     0.120 A 
ATOM     17  N   UNL d   1     -54.855-100.151 -43.314  0.00  0.00    -0.237 NA
ENDBRANCH  10  11
ENDBRANCH   8  10
ENDBRANCH   4   7
BRANCH   1  18
ATOM     18  C   UNL d   1     -55.803-102.213 -38.855  0.00  0.00     0.300 C 
ATOM     19  O   UNL d   1     -56.457-101.766 -38.627  0.00  0.00    -0.259 OA
BRANCH  18  20
ATOM     20  O   UNL d   1     -55.422-102.690 -38.303  0.00  0.00    -0.271 OA
BRANCH  20  21
ATOM     21  C   UNL d   1     -54.785-102.397 -37.879  0.00  0.00     0.126 C 
ATOM     22  C   UNL d   1     -54.844-102.291 -37.069  0.00  0.00     0.029 C 
ENDBRANCH  20  21
ENDBRANCH  18  20
ENDBRANCH   1  18
TORSDOF 6
ENDMDL
