MODEL 1
REMARK VINA RESULT:      89.4      0.000      0.000
REMARK  7 active torsions:
REMARK  status: ('A' for Active; 'I' for Inactive)
REMARK    1  A    between atoms: N_8  and  C_3 
REMARK    2  A    between atoms: C_10  and  C_5 
REMARK    3  A    between atoms: C_15  and  N_8 
REMARK    4  A    between atoms: N_12  and  C_10 
REMARK    5  A    between atoms: C_21  and  N_12 
REMARK    6  A    between atoms: O_22  and  C_16 
REMARK    7  A    between atoms: C_23  and  C_21 
ROOT
ATOM      1  N   UNL d   1     -50.892  26.805  35.935  0.00  0.00    -0.209 NA
ATOM      2  N   UNL d   1     -50.253  27.309  37.114  0.00  0.00    -0.258 N 
ATOM      3  C   UNL d   1     -50.297  27.114  35.466  0.00  0.00     0.170 A 
ATOM      4  C   UNL d   1     -50.878  26.898  36.765  0.00  0.00     0.152 A 
ATOM      5  C   UNL d   1     -49.671  27.524  35.815  0.00  0.00     0.111 A 
ATOM      6  C   UNL d   1     -49.643  27.625  36.633  0.00  0.00     0.270 A 
ATOM      7  C   UNL d   1     -51.474  26.590  37.234  0.00  0.00     0.035 A 
ATOM      8  C   UNL d   1     -50.224  27.410  37.933  0.00  0.00     0.084 A 
ATOM      9  O   UNL d   1     -49.005  28.042  36.973  0.00  0.00    -0.266 OA
ATOM     10  C   UNL d   1     -50.819  27.101  38.402  0.00  0.00     0.019 A 
ATOM     11  C   UNL d   1     -51.445  26.690  38.053  0.00  0.00     0.005 A 
ATOM     12  C   UNL d   1     -52.111  26.173  36.895  0.00  0.00     0.003 C 
ENDROOT
BRANCH   3  13
ATOM     13  N   UNL d   1     -50.335  27.005  34.630  0.00  0.00    -0.227 NA
BRANCH  13  14
ATOM     14  C   UNL d   1     -50.750  26.378  34.307  0.00  0.00     0.083 A 
ATOM     15  C   UNL d   1     -50.326  25.750  34.000  0.00  0.00     0.021 A 
ATOM     16  C   UNL d   1     -50.737  25.103  33.667  0.00  0.00     0.026 A 
ATOM     17  C   UNL d   1     -51.550  25.102  33.650  0.00  0.00     0.094 A 
ATOM     18  C   UNL d   1     -51.979  25.729  33.957  0.00  0.00     0.026 A 
ATOM     19  C   UNL d   1     -51.583  26.363  34.283  0.00  0.00     0.021 A 
BRANCH  17  20
ATOM     20  O   UNL d   1     -51.950  24.435  33.307  0.00  0.00    -0.328 OA
ATOM     21  C   UNL d   1     -51.581  23.678  33.311  0.00  0.00     0.181 C 
ENDBRANCH  17  20
ENDBRANCH  13  14
ENDBRANCH   3  13
BRANCH   5  22
ATOM     22  C   UNL d   1     -49.067  27.838  35.339  0.00  0.00     0.107 C 
BRANCH  22  23
ATOM     23  N   UNL d   1     -48.777  28.594  35.491  0.00  0.00    -0.242 NA
BRANCH  23  24
ATOM     24  C   UNL d   1     -48.101  28.855  35.109  0.00  0.00     0.099 C 
BRANCH  24  25
ATOM     25  C   UNL d   1     -47.828  29.623  35.240  0.00  0.00     0.019 A 
ATOM     26  C   UNL d   1     -47.286  29.766  35.836  0.00  0.00     0.002 A 
ATOM     27  C   UNL d   1     -47.013  30.533  35.967  0.00  0.00     0.000 A 
ATOM     28  C   UNL d   1     -47.282  31.158  35.501  0.00  0.00     0.000 A 
ATOM     29  C   UNL d   1     -47.824  31.015  34.904  0.00  0.00     0.000 A 
ATOM     30  C   UNL d   1     -48.097  30.248  34.774  0.00  0.00     0.002 A 
ENDBRANCH  24  25
ENDBRANCH  23  24
ENDBRANCH  22  23
ENDBRANCH   5  22
TORSDOF 7
ENDMDL
MODEL 2
REMARK VINA RESULT:      90.9      2.217      5.397
REMARK  7 active torsions:
REMARK  status: ('A' for Active; 'I' for Inactive)
REMARK    1  A    between atoms: N_8  and  C_3 
REMARK    2  A    between atoms: C_10  and  C_5 
REMARK    3  A    between atoms: C_15  and  N_8 
REMARK    4  A    between atoms: N_12  and  C_10 
REMARK    5  A    between atoms: C_21  and  N_12 
REMARK    6  A    between atoms: O_22  and  C_16 
REMARK    7  A    between atoms: C_23  and  C_21 
ROOT
ATOM      1  N   UNL d   1     -47.468  30.051  35.691  0.00  0.00    -0.209 NA
ATOM      2  N   UNL d   1     -48.194  29.053  36.417  0.00  0.00    -0.258 N 
ATOM      3  C   UNL d   1     -47.743  29.752  34.981  0.00  0.00     0.170 A 
ATOM      4  C   UNL d   1     -47.690  29.706  36.419  0.00  0.00     0.152 A 
ATOM      5  C   UNL d   1     -48.247  29.099  34.979  0.00  0.00     0.111 A 
ATOM      6  C   UNL d   1     -48.476  28.746  35.689  0.00  0.00     0.270 A 
ATOM      7  C   UNL d   1     -47.415  30.005  37.129  0.00  0.00     0.035 A 
ATOM      8  C   UNL d   1     -48.423  28.699  37.128  0.00  0.00     0.084 A 
ATOM      9  O   UNL d   1     -48.986  28.086  35.673  0.00  0.00    -0.266 OA
ATOM     10  C   UNL d   1     -48.148  28.998  37.838  0.00  0.00     0.019 A 
ATOM     11  C   UNL d   1     -47.643  29.651  37.839  0.00  0.00     0.005 A 
ATOM     12  C   UNL d   1     -46.905  30.664  37.146  0.00  0.00     0.003 C 
ENDROOT
BRANCH   3  13
ATOM     13  N   UNL d   1     -47.503  30.121  34.261  0.00  0.00    -0.227 NA
BRANCH  13  14
ATOM     14  C   UNL d   1     -47.622  30.921  34.139  0.00  0.00     0.083 A 
ATOM     15  C   UNL d   1     -46.975  31.420  34.187  0.00  0.00     0.021 A 
ATOM     16  C   UNL d   1     -47.082  32.240  34.065  0.00  0.00     0.026 A 
ATOM     17  C   UNL d   1     -47.821  32.534  33.900  0.00  0.00     0.094 A 
ATOM     18  C   UNL d   1     -48.471  32.038  33.851  0.00  0.00     0.026 A 
ATOM     19  C   UNL d   1     -48.373  31.237  33.969  0.00  0.00     0.021 A 
BRANCH  17  20
ATOM     20  O   UNL d   1     -47.910  33.371  33.779  0.00  0.00    -0.328 OA
ATOM     21  C   UNL d   1     -48.664  33.687  33.577  0.00  0.00     0.181 C 
ENDBRANCH  17  20
ENDBRANCH  13  14
ENDBRANCH   3  13
BRANCH   5  22
ATOM     22  C   UNL d   1     -48.527  28.795  34.258  0.00  0.00     0.107 C 
BRANCH  22  23
ATOM     23  N   UNL d   1     -48.877  28.049  34.237  0.00  0.00    -0.242 NA
BRANCH  23  24
ATOM     24  C   UNL d   1     -49.065  27.709  33.516  0.00  0.00     0.099 C 
BRANCH  24  25
ATOM     25  C   UNL d   1     -49.746  27.248  33.446  0.00  0.00     0.019 A 
ATOM     26  C   UNL d   1     -49.681  26.435  33.377  0.00  0.00     0.002 A 
ATOM     27  C   UNL d   1     -50.361  25.974  33.307  0.00  0.00     0.000 A 
ATOM     28  C   UNL d   1     -51.107  26.326  33.307  0.00  0.00     0.000 A 
ATOM     29  C   UNL d   1     -51.172  27.139  33.377  0.00  0.00     0.000 A 
ATOM     30  C   UNL d   1     -50.492  27.600  33.446  0.00  0.00     0.002 A 
ENDBRANCH  24  25
ENDBRANCH  23  24
ENDBRANCH  22  23
ENDBRANCH   5  22
TORSDOF 7
ENDMDL
MODEL 3
REMARK VINA RESULT:      91.4      1.030      4.819
REMARK  7 active torsions:
REMARK  status: ('A' for Active; 'I' for Inactive)
REMARK    1  A    between atoms: N_8  and  C_3 
REMARK    2  A    between atoms: C_10  and  C_5 
REMARK    3  A    between atoms: C_15  and  N_8 
REMARK    4  A    between atoms: N_12  and  C_10 
REMARK    5  A    between atoms: C_21  and  N_12 
REMARK    6  A    between atoms: O_22  and  C_16 
REMARK    7  A    between atoms: C_23  and  C_21 
ROOT
ATOM      1  N   UNL d   1     -49.605  27.466  36.293  0.00  0.00    -0.209 NA
ATOM      2  N   UNL d   1     -50.907  26.880  36.402  0.00  0.00    -0.258 N 
ATOM      3  C   UNL d   1     -49.587  27.307  35.491  0.00  0.00     0.170 A 
ATOM      4  C   UNL d   1     -50.265  27.255  36.760  0.00  0.00     0.152 A 
ATOM      5  C   UNL d   1     -50.229  26.932  35.133  0.00  0.00     0.111 A 
ATOM      6  C   UNL d   1     -50.889  26.717  35.579  0.00  0.00     0.270 A 
ATOM      7  C   UNL d   1     -50.283  27.415  37.562  0.00  0.00     0.035 A 
ATOM      8  C   UNL d   1     -51.568  26.664  36.848  0.00  0.00     0.084 A 
ATOM      9  O   UNL d   1     -51.531  26.338  35.205  0.00  0.00    -0.266 OA
ATOM     10  C   UNL d   1     -51.586  26.824  37.650  0.00  0.00     0.019 A 
ATOM     11  C   UNL d   1     -50.943  27.199  38.008  0.00  0.00     0.005 A 
ATOM     12  C   UNL d   1     -49.642  27.793  37.937  0.00  0.00     0.003 C 
ENDROOT
BRANCH   3  13
ATOM     13  N   UNL d   1     -48.907  27.531  35.044  0.00  0.00    -0.227 NA
BRANCH  13  14
ATOM     14  C   UNL d   1     -48.534  28.247  35.178  0.00  0.00     0.083 A 
ATOM     15  C   UNL d   1     -48.024  28.304  35.815  0.00  0.00     0.021 A 
ATOM     16  C   UNL d   1     -47.636  29.030  35.963  0.00  0.00     0.026 A 
ATOM     17  C   UNL d   1     -47.766  29.668  35.478  0.00  0.00     0.094 A 
ATOM     18  C   UNL d   1     -48.276  29.614  34.839  0.00  0.00     0.026 A 
ATOM     19  C   UNL d   1     -48.657  28.910  34.689  0.00  0.00     0.021 A 
BRANCH  17  20
ATOM     20  O   UNL d   1     -47.362  30.397  35.645  0.00  0.00    -0.328 OA
ATOM     21  C   UNL d   1     -47.796  31.119  35.672  0.00  0.00     0.181 C 
ENDBRANCH  17  20
ENDBRANCH  13  14
ENDBRANCH   3  13
BRANCH   5  22
ATOM     22  C   UNL d   1     -50.210  26.770  34.318  0.00  0.00     0.107 C 
BRANCH  22  23
ATOM     23  N   UNL d   1     -50.849  26.387  33.963  0.00  0.00    -0.242 NA
BRANCH  23  24
ATOM     24  C   UNL d   1     -50.719  25.878  33.335  0.00  0.00     0.099 C 
BRANCH  24  25
ATOM     25  C   UNL d   1     -51.082  25.137  33.328  0.00  0.00     0.019 A 
ATOM     26  C   UNL d   1     -51.899  25.085  33.313  0.00  0.00     0.002 A 
ATOM     27  C   UNL d   1     -52.262  24.345  33.306  0.00  0.00     0.000 A 
ATOM     28  C   UNL d   1     -51.809  23.656  33.313  0.00  0.00     0.000 A 
ATOM     29  C   UNL d   1     -50.992  23.708  33.328  0.00  0.00     0.000 A 
ATOM     30  C   UNL d   1     -50.629  24.448  33.335  0.00  0.00     0.002 A 
ENDBRANCH  24  25
ENDBRANCH  23  24
ENDBRANCH  22  23
ENDBRANCH   5  22
TORSDOF 7
ENDMDL
MODEL 4
REMARK VINA RESULT:      91.7      1.171      3.005
REMARK  7 active torsions:
REMARK  status: ('A' for Active; 'I' for Inactive)
REMARK    1  A    between atoms: N_8  and  C_3 
REMARK    2  A    between atoms: C_10  and  C_5 
REMARK    3  A    between atoms: C_15  and  N_8 
REMARK    4  A    between atoms: N_12  and  C_10 
REMARK    5  A    between atoms: C_21  and  N_12 
REMARK    6  A    between atoms: O_22  and  C_16 
REMARK    7  A    between atoms: C_23  and  C_21 
ROOT
ATOM      1  N   UNL d   1     -50.875  26.749  35.674  0.00  0.00    -0.209 NA
ATOM      2  N   UNL d   1     -50.152  26.683  34.439  0.00  0.00    -0.258 N 
ATOM      3  C   UNL d   1     -50.270  27.177  36.020  0.00  0.00     0.170 A 
ATOM      4  C   UNL d   1     -50.825  26.496  34.879  0.00  0.00     0.152 A 
ATOM      5  C   UNL d   1     -49.597  27.364  35.580  0.00  0.00     0.111 A 
ATOM      6  C   UNL d   1     -49.532  27.122  34.794  0.00  0.00     0.270 A 
ATOM      7  C   UNL d   1     -51.431  26.068  34.533  0.00  0.00     0.035 A 
ATOM      8  C   UNL d   1     -50.086  26.441  33.652  0.00  0.00     0.084 A 
ATOM      9  O   UNL d   1     -48.846  27.318  34.361  0.00  0.00    -0.266 OA
ATOM     10  C   UNL d   1     -50.692  26.013  33.307  0.00  0.00     0.019 A 
ATOM     11  C   UNL d   1     -51.365  25.826  33.747  0.00  0.00     0.005 A 
ATOM     12  C   UNL d   1     -52.116  25.872  34.966  0.00  0.00     0.003 C 
ENDROOT
BRANCH   3  13
ATOM     13  N   UNL d   1     -50.347  27.420  36.824  0.00  0.00    -0.227 NA
BRANCH  13  14
ATOM     14  C   UNL d   1     -50.812  26.996  37.348  0.00  0.00     0.083 A 
ATOM     15  C   UNL d   1     -50.438  26.543  37.918  0.00  0.00     0.021 A 
ATOM     16  C   UNL d   1     -50.901  26.105  38.459  0.00  0.00     0.026 A 
ATOM     17  C   UNL d   1     -51.712  26.132  38.417  0.00  0.00     0.094 A 
ATOM     18  C   UNL d   1     -52.090  26.585  37.848  0.00  0.00     0.026 A 
ATOM     19  C   UNL d   1     -51.644  27.014  37.317  0.00  0.00     0.021 A 
BRANCH  17  20
ATOM     20  O   UNL d   1     -52.165  25.680  38.976  0.00  0.00    -0.328 OA
ATOM     21  C   UNL d   1     -52.485  24.934  38.750  0.00  0.00     0.181 C 
ENDBRANCH  17  20
ENDBRANCH  13  14
ENDBRANCH   3  13
BRANCH   5  22
ATOM     22  C   UNL d   1     -48.982  27.799  35.931  0.00  0.00     0.107 C 
BRANCH  22  23
ATOM     23  N   UNL d   1     -48.687  28.469  35.552  0.00  0.00    -0.242 NA
BRANCH  23  24
ATOM     24  C   UNL d   1     -47.929  28.729  35.719  0.00  0.00     0.099 C 
BRANCH  24  25
ATOM     25  C   UNL d   1     -47.737  29.525  35.613  0.00  0.00     0.019 A 
ATOM     26  C   UNL d   1     -47.295  29.915  36.182  0.00  0.00     0.002 A 
ATOM     27  C   UNL d   1     -47.103  30.710  36.077  0.00  0.00     0.000 A 
ATOM     28  C   UNL d   1     -47.352  31.116  35.403  0.00  0.00     0.000 A 
ATOM     29  C   UNL d   1     -47.793  30.726  34.834  0.00  0.00     0.000 A 
ATOM     30  C   UNL d   1     -47.985  29.931  34.940  0.00  0.00     0.002 A 
ENDBRANCH  24  25
ENDBRANCH  23  24
ENDBRANCH  22  23
ENDBRANCH   5  22
TORSDOF 7
ENDMDL
