MODEL 1
REMARK VINA RESULT:      33.8      0.000      0.000
REMARK  6 active torsions:
REMARK  status: ('A' for Active; 'I' for Inactive)
REMARK    1  A    between atoms: C_6  and  C_1 
REMARK    2  A    between atoms: C_9  and  N_3 
REMARK    3  A    between atoms: C_17  and  C_9 
REMARK    4  A    between atoms: O_15  and  C_10 
REMARK    5  A    between atoms: O_16  and  C_17 
REMARK    6  A    between atoms: C_18  and  O_16 
ROOT
ATOM      1  C   UNL d   1      44.023 -15.336  36.722  0.00  0.00     0.148 A 
ATOM      2  N   UNL d   1      44.366 -14.681  36.335  0.00  0.00    -0.227 NA
ATOM      3  N   UNL d   1      44.590 -15.680  37.215  0.00  0.00    -0.287 N 
ATOM      4  C   UNL d   1      45.291 -15.245  37.143  0.00  0.00     0.083 A 
ATOM      5  C   UNL d   1      45.153 -14.632  36.602  0.00  0.00     0.099 A 
ATOM      6  C   UNL d   1      46.044 -15.319  37.493  0.00  0.00     0.019 A 
ATOM      7  C   UNL d   1      45.762 -14.097  36.414  0.00  0.00     0.021 A 
ATOM      8  C   UNL d   1      46.646 -14.788  37.306  0.00  0.00     0.002 A 
ATOM      9  C   UNL d   1      46.504 -14.176  36.765  0.00  0.00     0.002 A 
ENDROOT
BRANCH   1  10
ATOM     10  C   UNL d   1      43.246 -15.593  36.624  0.00  0.00     0.035 A 
ATOM     11  C   UNL d   1      43.093 -16.386  36.457  0.00  0.00     0.005 A 
ATOM     12  C   UNL d   1      42.320 -16.643  36.360  0.00  0.00     0.024 A 
ATOM     13  C   UNL d   1      41.692 -16.112  36.428  0.00  0.00     0.094 A 
ATOM     14  C   UNL d   1      41.845 -15.305  36.597  0.00  0.00     0.024 A 
ATOM     15  C   UNL d   1      42.623 -15.054  36.693  0.00  0.00     0.005 A 
BRANCH  13  16
ATOM     16  O   UNL d   1      40.911 -16.364  36.331  0.00  0.00    -0.328 OA
ATOM     17  C   UNL d   1      40.713 -17.145  36.507  0.00  0.00     0.181 C 
ENDBRANCH  13  16
ENDBRANCH   1  10
BRANCH   3  18
ATOM     18  C   UNL d   1      44.324 -16.336  37.632  0.00  0.00     0.108 C 
BRANCH  18  19
ATOM     19  C   UNL d   1      44.816 -16.701  38.182  0.00  0.00     0.142 C 
BRANCH  19  20
ATOM     20  O   UNL d   1      44.534 -17.327  38.633  0.00  0.00    -0.302 OA
BRANCH  20  21
ATOM     21  C   UNL d   1      44.702 -17.360  39.437  0.00  0.00     0.123 C 
ATOM     22  C   UNL d   1      44.823 -18.093  39.801  0.00  0.00     0.029 C 
ENDBRANCH  20  21
ENDBRANCH  19  20
ENDBRANCH  18  19
ENDBRANCH   3  18
TORSDOF 6
ENDMDL
