MODEL 1
REMARK VINA RESULT:      78.4      0.000      0.000
REMARK  13 active torsions:
REMARK  status: ('A' for Active; 'I' for Inactive)
REMARK    1  A    between atoms: C_21  and  N_1 
REMARK    2  A    between atoms: C_7  and  N_3 
REMARK    3  A    between atoms: C_8  and  C_7 
REMARK       I    between atoms: N_12  and  C_8 
REMARK    4  A    between atoms: C_11  and  C_22 
REMARK    5  A    between atoms: C_26  and  N_12 
REMARK    6  A    between atoms: C_27  and  N_12 
REMARK    7  A    between atoms: C_13  and  C_25 
REMARK       I    between atoms: N_15  and  C_13 
REMARK    8  A    between atoms: C_22  and  N_15 
REMARK    9  A    between atoms: C_28  and  C_21 
REMARK   10  A    between atoms: C_25  and  C_31 
REMARK   11  A    between atoms: C_29  and  C_26 
REMARK   12  A    between atoms: C_30  and  C_27 
REMARK   13  A    between atoms: C_31  and  C_28 
ROOT
ATOM      1  N   UNL d   1      60.758  48.542  50.109  0.00  0.00    -0.226 N 
ATOM      2  C   UNL d   1      59.993  48.840  50.026  0.00  0.00     0.342 A 
ATOM      3  N   UNL d   1      59.621  49.208  50.671  0.00  0.00    -0.254 N 
ATOM      4  C   UNL d   1      61.151  48.612  50.837  0.00  0.00     0.270 A 
ATOM      5  C   UNL d   1      60.779  48.977  51.474  0.00  0.00     0.073 A 
ATOM      6  C   UNL d   1      60.014  49.275  51.391  0.00  0.00     0.073 A 
ATOM      7  O   UNL d   1      59.597  48.772  49.300  0.00  0.00    -0.245 OA
ATOM      8  O   UNL d   1      61.915  48.314  50.921  0.00  0.00    -0.266 OA
ATOM      9  C   UNL d   1      61.171  49.045  52.195  0.00  0.00     0.006 A 
ATOM     10  C   UNL d   1      59.641  49.640  52.028  0.00  0.00     0.018 A 
ATOM     11  C   UNL d   1      60.799  49.410  52.832  0.00  0.00     0.000 A 
ATOM     12  C   UNL d   1      60.035  49.707  52.748  0.00  0.00     0.002 A 
ENDROOT
BRANCH   1  13
ATOM     13  C   UNL d   1      61.130  48.175  49.468  0.00  0.00     0.087 C 
BRANCH  13  14
ATOM     14  C   UNL d   1      61.879  47.840  49.554  0.00  0.00     0.019 C 
BRANCH  14  15
ATOM     15  C   UNL d   1      62.029  47.074  49.291  0.00  0.00     0.006 C 
BRANCH  15  16
ATOM     16  C   UNL d   1      62.108  46.451  49.839  0.00  0.00     0.063 C 
BRANCH  16  17
ATOM     17  C   UNL d   1      61.884  45.687  49.632  0.00  0.00     0.279 C 
ATOM     18  N   UNL d   1      61.768  45.117  50.216  0.00  0.00    -0.204 NA
ATOM     19  O   UNL d   1      61.775  45.490  48.835  0.00  0.00    -0.265 OA
BRANCH  18  20
ATOM     20  C   UNL d   1      61.544  44.353  50.008  0.00  0.00     0.127 C 
BRANCH  20  21
ATOM     21  C   UNL d   1      62.010  43.707  50.238  0.00  0.00     0.119 A 
ATOM     22  O   UNL d   1      62.665  43.409  49.820  0.00  0.00    -0.304 OA
ATOM     23  C   UNL d   1      62.963  42.761  50.251  0.00  0.00     0.123 A 
ATOM     24  C   UNL d   1      62.493  42.663  50.927  0.00  0.00     0.029 A 
ATOM     25  C   UNL d   1      61.905  43.247  50.919  0.00  0.00     0.028 A 
ENDBRANCH  20  21
ENDBRANCH  18  20
ENDBRANCH  16  17
ENDBRANCH  15  16
ENDBRANCH  14  15
ENDBRANCH  13  14
ENDBRANCH   1  13
BRANCH   3  26
ATOM     26  C   UNL d   1      58.856  49.505  50.587  0.00  0.00     0.146 C 
BRANCH  26  27
ATOM     27  C   UNL d   1      58.512  49.555  49.841  0.00  0.00     0.283 C 
ATOM     28  N   UNL d   1      57.693  49.656  49.767  0.00  0.00    -0.271 N 
ATOM     29  O   UNL d   1      58.983  49.504  49.168  0.00  0.00    -0.265 OA
BRANCH  28  30
ATOM     30  C   UNL d   1      57.348  49.706  49.021  0.00  0.00     0.083 C 
BRANCH  30  31
ATOM     31  C   UNL d   1      56.599  49.387  48.890  0.00  0.00     0.019 C 
ATOM     32  C   UNL d   1      56.034  49.401  49.489  0.00  0.00     0.002 C 
ENDBRANCH  30  31
ENDBRANCH  28  30
BRANCH  28  33
ATOM     33  C   UNL d   1      57.221  49.708  50.441  0.00  0.00     0.083 C 
BRANCH  33  34
ATOM     34  C   UNL d   1      56.784  49.054  50.685  0.00  0.00     0.019 C 
ATOM     35  C   UNL d   1      56.070  49.163  51.089  0.00  0.00     0.002 C 
ENDBRANCH  33  34
ENDBRANCH  28  33
ENDBRANCH  26  27
ENDBRANCH   3  26
TORSDOF 13
ENDMDL
