MODEL 1
REMARK VINA RESULT:      30.6      0.000      0.000
REMARK  6 active torsions:
REMARK  status: ('A' for Active; 'I' for Inactive)
REMARK    1  A    between atoms: N_2  and  S_1 
REMARK    2  A    between atoms: C_3  and  S_1 
REMARK    3  A    between atoms: C_6  and  N_2 
REMARK    4  A    between atoms: C_12  and  C_6 
REMARK    5  A    between atoms: C_7  and  S_9 
REMARK    6  A    between atoms: S_9  and  C_12 
ROOT
ATOM      1  N   UNL d   1      12.772  12.558  -4.060  0.00  0.00    -0.188 NA
ENDROOT
BRANCH   1   2
ATOM      2  S   UNL d   1      13.029  13.254  -4.420  0.00  0.00     0.281 S 
ATOM      3  O   UNL d   1      12.891  13.686  -3.719  0.00  0.00    -0.199 OA
ATOM      4  O   UNL d   1      13.171  12.841  -5.119  0.00  0.00    -0.199 OA
BRANCH   2   5
ATOM      5  C   UNL d   1      13.294  13.969  -4.789  0.00  0.00     0.105 A 
ATOM      6  C   UNL d   1      12.944  14.691  -4.590  0.00  0.00     0.014 A 
ATOM      7  C   UNL d   1      13.194  15.372  -4.939  0.00  0.00     0.012 A 
ATOM      8  C   UNL d   1      13.808  15.362  -5.507  0.00  0.00     0.058 A 
ATOM      9  C   UNL d   1      14.147  14.632  -5.695  0.00  0.00     0.012 A 
ATOM     10 CL   UNL d   1      14.078  16.059  -5.879  0.00  0.00    -0.082 Cl
ATOM     11  C   UNL d   1      13.888  13.939  -5.334  0.00  0.00     0.014 A 
ENDBRANCH   2   5
ENDBRANCH   1   2
BRANCH   1  12
ATOM     12  C   UNL d   1      13.239  12.196  -3.484  0.00  0.00     0.107 C 
ATOM     13  C   UNL d   1      12.814  12.579  -2.894  0.00  0.00     0.026 C 
ATOM     14  C   UNL d   1      13.671  11.805  -4.097  0.00  0.00     0.026 C 
BRANCH  12  15
ATOM     15  C   UNL d   1      13.707  11.831  -2.916  0.00  0.00     0.087 C 
BRANCH  15  16
ATOM     16  S   UNL d   1      13.453  11.780  -2.136  0.00  0.00    -0.093 SA
BRANCH  16  17
ATOM     17  C   UNL d   1      13.965  11.892  -1.514  0.00  0.00     0.107 A 
ATOM     18  N   UNL d   1      14.775  11.879  -1.634  0.00  0.00    -0.238 NA
ATOM     19  C   UNL d   1      15.293  11.991  -1.019  0.00  0.00     0.100 A 
ATOM     20  C   UNL d   1      14.985  12.122  -0.243  0.00  0.00     0.021 A 
ATOM     21  C   UNL d   1      14.175  12.135  -0.123  0.00  0.00     0.004 A 
ATOM     22  C   UNL d   1      13.661  12.021  -0.758  0.00  0.00     0.025 A 
ENDBRANCH  16  17
ENDBRANCH  15  16
ENDBRANCH  12  15
ENDBRANCH   1  12
TORSDOF 6
ENDMDL
MODEL 2
REMARK VINA RESULT:      31.1      1.903      4.256
REMARK  6 active torsions:
REMARK  status: ('A' for Active; 'I' for Inactive)
REMARK    1  A    between atoms: N_2  and  S_1 
REMARK    2  A    between atoms: C_3  and  S_1 
REMARK    3  A    between atoms: C_6  and  N_2 
REMARK    4  A    between atoms: C_12  and  C_6 
REMARK    5  A    between atoms: C_7  and  S_9 
REMARK    6  A    between atoms: S_9  and  C_12 
ROOT
ATOM      1  N   UNL d   1      13.079  11.779  -3.618  0.00  0.00    -0.188 NA
ENDROOT
BRANCH   1   2
ATOM      2  S   UNL d   1      13.486  11.799  -2.901  0.00  0.00     0.281 S 
ATOM      3  O   UNL d   1      12.769  11.795  -2.474  0.00  0.00    -0.199 OA
ATOM      4  O   UNL d   1      14.203  11.803  -3.309  0.00  0.00    -0.199 OA
BRANCH   2   5
ATOM      5  C   UNL d   1      13.905  11.819  -2.166  0.00  0.00     0.105 A 
ATOM      6  C   UNL d   1      13.489  11.800  -1.452  0.00  0.00     0.014 A 
ATOM      7  C   UNL d   1      13.885  11.819  -0.752  0.00  0.00     0.012 A 
ATOM      8  C   UNL d   1      14.721  11.858  -0.732  0.00  0.00     0.058 A 
ATOM      9  C   UNL d   1      15.121  11.875  -1.454  0.00  0.00     0.012 A 
ATOM     10 CL   UNL d   1      15.146  11.878  -0.014  0.00  0.00    -0.082 Cl
ATOM     11  C   UNL d   1      14.711  11.856  -2.168  0.00  0.00     0.014 A 
ENDBRANCH   2   5
ENDBRANCH   1   2
BRANCH   1  12
ATOM     12  C   UNL d   1      12.928  12.481  -4.025  0.00  0.00     0.107 C 
ATOM     13  C   UNL d   1      12.854  12.061  -4.729  0.00  0.00     0.026 C 
ATOM     14  C   UNL d   1      13.004  12.905  -3.298  0.00  0.00     0.026 C 
BRANCH  12  15
ATOM     15  C   UNL d   1      12.778  13.184  -4.423  0.00  0.00     0.087 C 
BRANCH  15  16
ATOM     16  S   UNL d   1      13.355  13.525  -4.898  0.00  0.00    -0.093 SA
BRANCH  16  17
ATOM     17  C   UNL d   1      13.446  14.332  -4.943  0.00  0.00     0.107 A 
ATOM     18  N   UNL d   1      14.024  14.659  -5.422  0.00  0.00    -0.238 NA
ATOM     19  C   UNL d   1      14.121  15.464  -5.472  0.00  0.00     0.100 A 
ATOM     20  C   UNL d   1      13.615  15.967  -5.020  0.00  0.00     0.021 A 
ATOM     21  C   UNL d   1      13.037  15.640  -4.541  0.00  0.00     0.004 A 
ATOM     22  C   UNL d   1      12.950  14.821  -4.501  0.00  0.00     0.025 A 
ENDBRANCH  16  17
ENDBRANCH  15  16
ENDBRANCH  12  15
ENDBRANCH   1  12
TORSDOF 6
ENDMDL
