MODEL 1
REMARK VINA RESULT:      -2.0      0.000      0.000
REMARK  5 active torsions:
REMARK  status: ('A' for Active; 'I' for Inactive)
REMARK    1  A    between atoms: N_12  and  C_5 
REMARK    2  A    between atoms: C_17  and  N_12 
REMARK    3  A    between atoms: C_19  and  C_17 
REMARK    4  A    between atoms: C_18  and  C_20 
REMARK    5  A    between atoms: C_20  and  C_19 
ROOT
ATOM      1  C   UNL d   1      59.026  -9.808  30.254  0.00  0.00     0.159 A 
ATOM      2  N   UNL d   1      58.651  -9.812  30.989  0.00  0.00    -0.275 N 
ATOM      3  C   UNL d   1      59.859  -9.807  30.215  0.00  0.00     0.103 A 
ATOM      4  N   UNL d   1      58.578  -9.805  29.561  0.00  0.00    -0.226 NA
ATOM      5  C   UNL d   1      59.106  -9.814  31.689  0.00  0.00     0.149 A 
ATOM      6  C   UNL d   1      60.308  -9.809  30.908  0.00  0.00     0.016 A 
ATOM      7  C   UNL d   1      59.933  -9.813  31.643  0.00  0.00     0.038 A 
ATOM      8  C   UNL d   1      57.373  -9.810  30.336  0.00  0.00     0.084 A 
ATOM      9  C   UNL d   1      57.749  -9.806  29.601  0.00  0.00     0.099 A 
ATOM     10  C   UNL d   1      60.234  -9.803  29.481  0.00  0.00     0.104 C 
ATOM     11  N   UNL d   1      60.610  -9.799  28.746  0.00  0.00    -0.191 NA
ATOM     12  C   UNL d   1      61.133  -9.808  30.866  0.00  0.00     0.001 C 
ATOM     13  C   UNL d   1      56.539  -9.811  30.378  0.00  0.00     0.019 A 
ATOM     14  C   UNL d   1      57.292  -9.804  28.904  0.00  0.00     0.021 A 
ATOM     15  C   UNL d   1      56.100  -9.809  29.685  0.00  0.00     0.002 A 
ATOM     16  C   UNL d   1      56.475  -9.805  28.951  0.00  0.00     0.002 A 
ENDROOT
BRANCH   5  17
ATOM     17  N   UNL d   1      58.731  -9.818  32.424  0.00  0.00    -0.227 NA
BRANCH  17  18
ATOM     18  C   UNL d   1      59.177  -9.747  33.115  0.00  0.00     0.101 C 
BRANCH  18  19
ATOM     19  C   UNL d   1      58.809  -9.807  33.851  0.00  0.00     0.024 C 
BRANCH  19  20
ATOM     20  C   UNL d   1      59.242  -9.674  34.541  0.00  0.00     0.047 C 
BRANCH  20  21
ATOM     21  C   UNL d   1      58.878  -9.753  35.278  0.00  0.00     0.234 C 
ATOM     22  O   UNL d   1      59.335  -9.750  35.965  0.00  0.00    -0.283 OA
ENDBRANCH  20  21
ENDBRANCH  19  20
ENDBRANCH  18  19
ENDBRANCH  17  18
ENDBRANCH   5  17
TORSDOF 5
ENDMDL
MODEL 2
REMARK VINA RESULT:      -0.3     10.748     11.394
REMARK  5 active torsions:
REMARK  status: ('A' for Active; 'I' for Inactive)
REMARK    1  A    between atoms: N_12  and  C_5 
REMARK    2  A    between atoms: C_17  and  N_12 
REMARK    3  A    between atoms: C_19  and  C_17 
REMARK    4  A    between atoms: C_18  and  C_20 
REMARK    5  A    between atoms: C_20  and  C_19 
ROOT
ATOM      1  C   UNL d   1      56.987   0.680  34.017  0.00  0.00     0.159 A 
ATOM      2  N   UNL d   1      56.757   0.679  33.224  0.00  0.00    -0.275 N 
ATOM      3  C   UNL d   1      57.798   0.680  34.212  0.00  0.00     0.103 A 
ATOM      4  N   UNL d   1      56.416   0.680  34.613  0.00  0.00    -0.226 NA
ATOM      5  C   UNL d   1      57.336   0.679  32.622  0.00  0.00     0.149 A 
ATOM      6  C   UNL d   1      58.369   0.680  33.616  0.00  0.00     0.016 A 
ATOM      7  C   UNL d   1      58.139   0.679  32.824  0.00  0.00     0.038 A 
ATOM      8  C   UNL d   1      55.379   0.679  33.624  0.00  0.00     0.084 A 
ATOM      9  C   UNL d   1      55.609   0.680  34.417  0.00  0.00     0.099 A 
ATOM     10  C   UNL d   1      58.027   0.681  35.004  0.00  0.00     0.104 C 
ATOM     11  N   UNL d   1      58.257   0.682  35.796  0.00  0.00    -0.191 NA
ATOM     12  C   UNL d   1      59.171   0.680  33.813  0.00  0.00     0.001 C 
ATOM     13  C   UNL d   1      54.568   0.678  33.426  0.00  0.00     0.019 A 
ATOM     14  C   UNL d   1      55.029   0.680  35.015  0.00  0.00     0.021 A 
ATOM     15  C   UNL d   1      54.006   0.679  34.023  0.00  0.00     0.002 A 
ATOM     16  C   UNL d   1      54.236   0.680  34.815  0.00  0.00     0.002 A 
ENDROOT
BRANCH   5  17
ATOM     17  N   UNL d   1      57.107   0.678  31.830  0.00  0.00    -0.227 NA
BRANCH  17  18
ATOM     18  C   UNL d   1      57.678   0.644  31.235  0.00  0.00     0.101 C 
BRANCH  18  19
ATOM     19  C   UNL d   1      57.485   0.331  30.496  0.00  0.00     0.024 C 
BRANCH  19  20
ATOM     20  C   UNL d   1      58.025   0.380  29.874  0.00  0.00     0.047 C 
BRANCH  20  21
ATOM     21  C   UNL d   1      58.228  -0.298  29.450  0.00  0.00     0.234 C 
ATOM     22  O   UNL d   1      58.228  -0.283  28.625  0.00  0.00    -0.283 OA
ENDBRANCH  20  21
ENDBRANCH  19  20
ENDBRANCH  18  19
ENDBRANCH  17  18
ENDBRANCH   5  17
TORSDOF 5
ENDMDL
MODEL 3
REMARK VINA RESULT:       0.5      2.060      3.782
REMARK  5 active torsions:
REMARK  status: ('A' for Active; 'I' for Inactive)
REMARK    1  A    between atoms: N_12  and  C_5 
REMARK    2  A    between atoms: C_17  and  N_12 
REMARK    3  A    between atoms: C_19  and  C_17 
REMARK    4  A    between atoms: C_18  and  C_20 
REMARK    5  A    between atoms: C_20  and  C_19 
ROOT
ATOM      1  C   UNL d   1      59.265  -9.523  32.743  0.00  0.00     0.159 A 
ATOM      2  N   UNL d   1      59.645  -9.652  32.022  0.00  0.00    -0.275 N 
ATOM      3  C   UNL d   1      59.716  -9.429  33.437  0.00  0.00     0.103 A 
ATOM      4  N   UNL d   1      58.440  -9.488  32.775  0.00  0.00    -0.226 NA
ATOM      5  C   UNL d   1      60.479  -9.687  31.991  0.00  0.00     0.149 A 
ATOM      6  C   UNL d   1      60.541  -9.463  33.405  0.00  0.00     0.016 A 
ATOM      7  C   UNL d   1      60.921  -9.592  32.684  0.00  0.00     0.038 A 
ATOM      8  C   UNL d   1      58.372  -9.711  31.361  0.00  0.00     0.084 A 
ATOM      9  C   UNL d   1      57.992  -9.582  32.082  0.00  0.00     0.099 A 
ATOM     10  C   UNL d   1      59.336  -9.300  34.158  0.00  0.00     0.104 C 
ATOM     11  N   UNL d   1      58.956  -9.171  34.878  0.00  0.00    -0.191 NA
ATOM     12  C   UNL d   1      60.985  -9.369  34.095  0.00  0.00     0.001 C 
ATOM     13  C   UNL d   1      57.922  -9.806  30.664  0.00  0.00     0.019 A 
ATOM     14  C   UNL d   1      57.160  -9.548  32.110  0.00  0.00     0.021 A 
ATOM     15  C   UNL d   1      57.104  -9.770  30.703  0.00  0.00     0.002 A 
ATOM     16  C   UNL d   1      56.724  -9.641  31.424  0.00  0.00     0.002 A 
ENDROOT
BRANCH   5  17
ATOM     17  N   UNL d   1      60.859  -9.816  31.270  0.00  0.00    -0.227 NA
BRANCH  17  18
ATOM     18  C   UNL d   1      61.025  -9.179  30.772  0.00  0.00     0.101 C 
BRANCH  18  19
ATOM     19  C   UNL d   1      61.131  -9.305  29.964  0.00  0.00     0.024 C 
BRANCH  19  20
ATOM     20  C   UNL d   1      61.077  -8.672  29.436  0.00  0.00     0.047 C 
BRANCH  20  21
ATOM     21  C   UNL d   1      60.816  -8.799  28.664  0.00  0.00     0.234 C 
ATOM     22  O   UNL d   1      60.339  -9.450  28.492  0.00  0.00    -0.283 OA
ENDBRANCH  20  21
ENDBRANCH  19  20
ENDBRANCH  18  19
ENDBRANCH  17  18
ENDBRANCH   5  17
TORSDOF 5
ENDMDL
