MODEL 1
REMARK VINA RESULT:      31.7      0.000      0.000
REMARK  4 active torsions:
REMARK  status: ('A' for Active; 'I' for Inactive)
REMARK    1  A    between atoms: O_2  and  C_1 
REMARK       I    between atoms: N_6  and  C_1 
REMARK    2  A    between atoms: C_3  and  O_2 
REMARK    3  A    between atoms: C_14  and  N_6 
REMARK    4  A    between atoms: C_15  and  N_6 
ROOT
ATOM      1  C   UNL d   1     -52.174  25.424  33.436  0.00  0.00     0.105 A 
ATOM      2  C   UNL d   1     -51.832  24.673  33.442  0.00  0.00     0.024 A 
ATOM      3  C   UNL d   1     -52.279  24.010  33.572  0.00  0.00     0.013 A 
ATOM      4  C   UNL d   1     -53.081  24.077  33.701  0.00  0.00     0.058 A 
ATOM      5  C   UNL d   1     -52.993  25.479  33.569  0.00  0.00     0.026 A 
ATOM      6  C   UNL d   1     -53.439  24.816  33.699  0.00  0.00     0.013 A 
ATOM      7 CL   UNL d   1     -53.544  23.403  33.835  0.00  0.00    -0.082 Cl
ATOM      8  C   UNL d   1     -51.014  24.618  33.310  0.00  0.00     0.002 A 
ATOM      9  C   UNL d   1     -51.921  23.271  33.574  0.00  0.00     0.001 A 
ATOM     10  C   UNL d   1     -51.102  23.192  33.443  0.00  0.00     0.000 A 
ATOM     11  C   UNL d   1     -50.655  23.855  33.313  0.00  0.00     0.000 A 
ENDROOT
BRANCH   1  12
ATOM     12  O   UNL d   1     -51.731  26.097  33.306  0.00  0.00    -0.259 OA
BRANCH  12  13
ATOM     13  C   UNL d   1     -52.100  26.842  33.307  0.00  0.00     0.377 C 
ATOM     14  N   UNL d   1     -51.619  27.544  33.307  0.00  0.00    -0.252 N 
ATOM     15  O   UNL d   1     -52.914  26.920  33.308  0.00  0.00    -0.237 OA
BRANCH  14  16
ATOM     16  C   UNL d   1     -51.982  28.283  33.308  0.00  0.00     0.085 C 
ATOM     17  C   UNL d   1     -51.514  28.968  33.370  0.00  0.00     0.021 C 
ENDBRANCH  14  16
BRANCH  14  18
ATOM     18  C   UNL d   1     -50.810  27.481  33.306  0.00  0.00     0.085 C 
ATOM     19  C   UNL d   1     -50.353  27.999  33.769  0.00  0.00     0.021 C 
ENDBRANCH  14  18
ENDBRANCH  12  13
ENDBRANCH   1  12
TORSDOF 4
ENDMDL
