MODEL 1
REMARK VINA RESULT:      -9.1      0.000      0.000
REMARK  3 active torsions:
REMARK  status: ('A' for Active; 'I' for Inactive)
REMARK    1  A    between atoms: C_9  and  C_3 
REMARK    2  A    between atoms: N_10  and  C_9 
REMARK    3  A    between atoms: C_11  and  C_9 
ROOT
ATOM      1  C   UNL d   1      53.065  32.357  53.615  0.00  0.00     0.075 C 
ENDROOT
BRANCH   1   2
ATOM      2  C   UNL d   1      52.419  32.803  53.364  0.00  0.00     0.106 A 
ATOM      3  C   UNL d   1      52.372  33.243  52.658  0.00  0.00     0.289 A 
ATOM      4  N   UNL d   1      51.633  33.601  52.629  0.00  0.00    -0.169 N 
ATOM      5  O   UNL d   1      52.968  33.306  52.089  0.00  0.00    -0.265 OA
ATOM      6  C   UNL d   1      51.220  33.386  53.311  0.00  0.00     0.200 A 
ATOM      7  N   UNL d   1      51.146  34.088  52.184  0.00  0.00    -0.141 NA
ATOM      8  S   UNL d   1      51.702  32.897  53.763  0.00  0.00    -0.042 SA
ATOM      9  N   UNL d   1      50.480  33.744  53.282  0.00  0.00    -0.200 NA
ATOM     10  C   UNL d   1      50.434  34.178  52.585  0.00  0.00     0.184 A 
ATOM     11  C   UNL d   1      49.791  34.627  52.326  0.00  0.00     0.044 C 
ENDBRANCH   1   2
BRANCH   1  12
ATOM     12  N   UNL d   1      53.082  31.550  53.460  0.00  0.00    -0.300 N 
ATOM     13  C   UNL d   1      53.283  31.280  52.716  0.00  0.00     0.107 A 
ATOM     14  C   UNL d   1      53.298  30.462  52.566  0.00  0.00     0.142 A 
ATOM     15  O   UNL d   1      53.112  29.925  53.163  0.00  0.00    -0.300 OA
ATOM     16  C   UNL d   1      52.911  30.216  53.909  0.00  0.00     0.142 A 
ATOM     17  C   UNL d   1      52.895  31.025  54.061  0.00  0.00     0.107 A 
ENDBRANCH   1  12
BRANCH   1  18
ATOM     18  C   UNL d   1      53.682  32.718  54.016  0.00  0.00     0.017 A 
ATOM     19  C   UNL d   1      53.606  32.885  54.821  0.00  0.00     0.002 A 
ATOM     20  C   UNL d   1      54.230  33.251  55.229  0.00  0.00     0.000 A 
ATOM     21  C   UNL d   1      54.910  33.439  54.829  0.00  0.00     0.000 A 
ATOM     22  C   UNL d   1      54.978  33.268  54.021  0.00  0.00     0.000 A 
ATOM     23  C   UNL d   1      55.550  33.809  55.230  0.00  0.00     0.000 C 
ATOM     24  C   UNL d   1      54.370  32.912  53.625  0.00  0.00     0.002 A 
ENDBRANCH   1  18
TORSDOF 3
ENDMDL
MODEL 2
REMARK VINA RESULT:      -8.8      0.904      2.496
REMARK  3 active torsions:
REMARK  status: ('A' for Active; 'I' for Inactive)
REMARK    1  A    between atoms: C_9  and  C_3 
REMARK    2  A    between atoms: N_10  and  C_9 
REMARK    3  A    between atoms: C_11  and  C_9 
ROOT
ATOM      1  C   UNL d   1      53.314  32.390  53.788  0.00  0.00     0.075 C 
ENDROOT
BRANCH   1   2
ATOM      2  C   UNL d   1      52.669  32.824  53.513  0.00  0.00     0.106 A 
ATOM      3  C   UNL d   1      52.591  33.160  52.756  0.00  0.00     0.289 A 
ATOM      4  N   UNL d   1      51.864  33.541  52.719  0.00  0.00    -0.169 N 
ATOM      5  O   UNL d   1      53.150  33.116  52.149  0.00  0.00    -0.265 OA
ATOM      6  C   UNL d   1      51.490  33.444  53.448  0.00  0.00     0.200 A 
ATOM      7  N   UNL d   1      51.367  33.981  52.239  0.00  0.00    -0.141 NA
ATOM      8  S   UNL d   1      51.983  33.004  53.937  0.00  0.00    -0.042 SA
ATOM      9  N   UNL d   1      50.762  33.826  53.412  0.00  0.00    -0.200 NA
ATOM     10  C   UNL d   1      50.685  34.158  52.664  0.00  0.00     0.184 A 
ATOM     11  C   UNL d   1      50.043  34.593  52.382  0.00  0.00     0.044 C 
ENDBRANCH   1   2
BRANCH   1  12
ATOM     12  N   UNL d   1      53.963  32.788  54.101  0.00  0.00    -0.300 N 
ATOM     13  C   UNL d   1      54.621  32.927  53.638  0.00  0.00     0.107 A 
ATOM     14  C   UNL d   1      55.272  33.330  53.962  0.00  0.00     0.142 A 
ATOM     15  O   UNL d   1      55.257  33.588  54.745  0.00  0.00    -0.300 OA
ATOM     16  C   UNL d   1      54.584  33.438  55.198  0.00  0.00     0.142 A 
ATOM     17  C   UNL d   1      53.936  33.039  54.881  0.00  0.00     0.107 A 
ENDBRANCH   1  12
BRANCH   1  18
ATOM     18  C   UNL d   1      53.307  31.573  53.747  0.00  0.00     0.017 A 
ATOM     19  C   UNL d   1      53.455  31.196  53.028  0.00  0.00     0.002 A 
ATOM     20  C   UNL d   1      53.448  30.366  52.985  0.00  0.00     0.000 A 
ATOM     21  C   UNL d   1      53.294  29.935  53.654  0.00  0.00     0.000 A 
ATOM     22  C   UNL d   1      53.146  30.321  54.373  0.00  0.00     0.000 A 
ATOM     23  C   UNL d   1      53.283  29.095  53.626  0.00  0.00     0.000 C 
ATOM     24  C   UNL d   1      53.153  31.129  54.413  0.00  0.00     0.002 A 
ENDBRANCH   1  18
TORSDOF 3
ENDMDL
MODEL 3
REMARK VINA RESULT:      -7.6      1.553      3.922
REMARK  3 active torsions:
REMARK  status: ('A' for Active; 'I' for Inactive)
REMARK    1  A    between atoms: C_9  and  C_3 
REMARK    2  A    between atoms: N_10  and  C_9 
REMARK    3  A    between atoms: C_11  and  C_9 
ROOT
ATOM      1  C   UNL d   1      52.061  33.650  53.269  0.00  0.00     0.075 C 
ENDROOT
BRANCH   1   2
ATOM      2  C   UNL d   1      52.280  32.857  53.227  0.00  0.00     0.106 A 
ATOM      3  C   UNL d   1      52.902  32.544  52.771  0.00  0.00     0.289 A 
ATOM      4  N   UNL d   1      52.925  31.731  52.893  0.00  0.00    -0.169 N 
ATOM      5  O   UNL d   1      53.406  32.978  52.281  0.00  0.00    -0.265 OA
ATOM      6  C   UNL d   1      52.322  31.538  53.422  0.00  0.00     0.200 A 
ATOM      7  N   UNL d   1      53.315  31.039  52.693  0.00  0.00    -0.141 NA
ATOM      8  S   UNL d   1      51.926  32.227  53.628  0.00  0.00    -0.042 SA
ATOM      9  N   UNL d   1      52.345  30.724  53.545  0.00  0.00    -0.200 NA
ATOM     10  C   UNL d   1      52.959  30.415  53.094  0.00  0.00     0.184 A 
ATOM     11  C   UNL d   1      53.185  29.623  53.047  0.00  0.00     0.044 C 
ENDBRANCH   1   2
BRANCH   1  12
ATOM     12  N   UNL d   1      52.516  34.171  53.713  0.00  0.00    -0.300 N 
ATOM     13  C   UNL d   1      52.945  34.759  53.343  0.00  0.00     0.107 A 
ATOM     14  C   UNL d   1      53.403  35.282  53.799  0.00  0.00     0.142 A 
ATOM     15  O   UNL d   1      53.427  35.210  54.620  0.00  0.00    -0.300 OA
ATOM     16  C   UNL d   1      52.987  34.610  54.977  0.00  0.00     0.142 A 
ATOM     17  C   UNL d   1      52.532  34.089  54.529  0.00  0.00     0.107 A 
ENDBRANCH   1  12
BRANCH   1  18
ATOM     18  C   UNL d   1      51.395  33.914  52.871  0.00  0.00     0.017 A 
ATOM     19  C   UNL d   1      50.675  33.971  53.269  0.00  0.00     0.002 A 
ATOM     20  C   UNL d   1      49.999  34.238  52.867  0.00  0.00     0.000 A 
ATOM     21  C   UNL d   1      50.056  34.440  52.083  0.00  0.00     0.000 A 
ATOM     22  C   UNL d   1      50.784  34.379  51.691  0.00  0.00     0.000 A 
ATOM     23  C   UNL d   1      49.380  34.712  51.664  0.00  0.00     0.000 C 
ATOM     24  C   UNL d   1      51.441  34.119  52.083  0.00  0.00     0.002 A 
ENDBRANCH   1  18
TORSDOF 3
ENDMDL
MODEL 4
REMARK VINA RESULT:      -7.5      1.222      3.336
REMARK  3 active torsions:
REMARK  status: ('A' for Active; 'I' for Inactive)
REMARK    1  A    between atoms: C_9  and  C_3 
REMARK    2  A    between atoms: N_10  and  C_9 
REMARK    3  A    between atoms: C_11  and  C_9 
ROOT
ATOM      1  C   UNL d   1      52.657  32.473  53.377  0.00  0.00     0.075 C 
ENDROOT
BRANCH   1   2
ATOM      2  C   UNL d   1      53.275  32.781  53.827  0.00  0.00     0.106 A 
ATOM      3  C   UNL d   1      54.011  33.040  53.536  0.00  0.00     0.289 A 
ATOM      4  N   UNL d   1      54.459  33.303  54.172  0.00  0.00    -0.169 N 
ATOM      5  O   UNL d   1      54.245  33.033  52.744  0.00  0.00    -0.265 OA
ATOM      6  C   UNL d   1      54.007  33.208  54.856  0.00  0.00     0.200 A 
ATOM      7  N   UNL d   1      55.181  33.623  54.391  0.00  0.00    -0.141 NA
ATOM      8  S   UNL d   1      53.281  32.888  54.646  0.00  0.00    -0.042 SA
ATOM      9  N   UNL d   1      54.456  33.472  55.494  0.00  0.00    -0.200 NA
ATOM     10  C   UNL d   1      55.182  33.728  55.207  0.00  0.00     0.184 A 
ATOM     11  C   UNL d   1      55.806  34.037  55.650  0.00  0.00     0.044 C 
ENDBRANCH   1   2
BRANCH   1  12
ATOM     12  N   UNL d   1      52.655  31.672  53.189  0.00  0.00    -0.300 N 
ATOM     13  C   UNL d   1      52.987  31.415  52.488  0.00  0.00     0.107 A 
ATOM     14  C   UNL d   1      52.981  30.604  52.306  0.00  0.00     0.142 A 
ATOM     15  O   UNL d   1      52.643  30.060  52.825  0.00  0.00    -0.300 OA
ATOM     16  C   UNL d   1      52.312  30.339  53.528  0.00  0.00     0.142 A 
ATOM     17  C   UNL d   1      52.316  31.142  53.714  0.00  0.00     0.107 A 
ENDBRANCH   1  12
BRANCH   1  18
ATOM     18  C   UNL d   1      52.052  32.962  53.121  0.00  0.00     0.017 A 
ATOM     19  C   UNL d   1      52.143  33.398  52.427  0.00  0.00     0.002 A 
ATOM     20  C   UNL d   1      51.530  33.895  52.166  0.00  0.00     0.000 A 
ATOM     21  C   UNL d   1      50.847  33.946  52.600  0.00  0.00     0.000 A 
ATOM     22  C   UNL d   1      50.764  33.505  53.297  0.00  0.00     0.000 A 
ATOM     23  C   UNL d   1      50.219  34.445  52.348  0.00  0.00     0.000 C 
ATOM     24  C   UNL d   1      51.361  33.022  53.550  0.00  0.00     0.002 A 
ENDBRANCH   1  18
TORSDOF 3
ENDMDL
MODEL 5
REMARK VINA RESULT:      -7.4      1.597      3.695
REMARK  3 active torsions:
REMARK  status: ('A' for Active; 'I' for Inactive)
REMARK    1  A    between atoms: C_9  and  C_3 
REMARK    2  A    between atoms: N_10  and  C_9 
REMARK    3  A    between atoms: C_11  and  C_9 
ROOT
ATOM      1  C   UNL d   1      53.484  32.755  53.947  0.00  0.00     0.075 C 
ENDROOT
BRANCH   1   2
ATOM      2  C   UNL d   1      53.452  31.932  53.977  0.00  0.00     0.106 A 
ATOM      3  C   UNL d   1      53.667  31.411  53.365  0.00  0.00     0.289 A 
ATOM      4  N   UNL d   1      53.548  30.642  53.631  0.00  0.00    -0.169 N 
ATOM      5  O   UNL d   1      53.950  31.631  52.621  0.00  0.00    -0.265 OA
ATOM      6  C   UNL d   1      53.262  30.683  54.404  0.00  0.00     0.200 A 
ATOM      7  N   UNL d   1      53.605  29.851  53.426  0.00  0.00    -0.141 NA
ATOM      8  S   UNL d   1      53.202  31.474  54.618  0.00  0.00    -0.042 SA
ATOM      9  N   UNL d   1      53.143  29.913  54.671  0.00  0.00    -0.200 NA
ATOM     10  C   UNL d   1      53.355  29.398  54.066  0.00  0.00     0.184 A 
ATOM     11  C   UNL d   1      53.326  28.573  54.089  0.00  0.00     0.044 C 
ENDBRANCH   1   2
BRANCH   1  12
ATOM     12  N   UNL d   1      54.126  33.146  54.281  0.00  0.00    -0.300 N 
ATOM     13  C   UNL d   1      54.791  33.300  53.833  0.00  0.00     0.107 A 
ATOM     14  C   UNL d   1      55.436  33.696  54.179  0.00  0.00     0.142 A 
ATOM     15  O   UNL d   1      55.407  33.932  54.968  0.00  0.00    -0.300 OA
ATOM     16  C   UNL d   1      54.727  33.768  55.405  0.00  0.00     0.142 A 
ATOM     17  C   UNL d   1      54.085  33.377  55.067  0.00  0.00     0.107 A 
ENDBRANCH   1  12
BRANCH   1  18
ATOM     18  C   UNL d   1      52.881  33.177  53.587  0.00  0.00     0.017 A 
ATOM     19  C   UNL d   1      52.179  33.318  53.996  0.00  0.00     0.002 A 
ATOM     20  C   UNL d   1      51.566  33.745  53.632  0.00  0.00     0.000 A 
ATOM     21  C   UNL d   1      51.667  34.019  52.875  0.00  0.00     0.000 A 
ATOM     22  C   UNL d   1      52.376  33.872  52.472  0.00  0.00     0.000 A 
ATOM     23  C   UNL d   1      51.055  34.453  52.495  0.00  0.00     0.000 C 
ATOM     24  C   UNL d   1      52.971  33.456  52.827  0.00  0.00     0.002 A 
ENDBRANCH   1  18
TORSDOF 3
ENDMDL
MODEL 6
REMARK VINA RESULT:      -7.0      1.111      3.003
REMARK  3 active torsions:
REMARK  status: ('A' for Active; 'I' for Inactive)
REMARK    1  A    between atoms: C_9  and  C_3 
REMARK    2  A    between atoms: N_10  and  C_9 
REMARK    3  A    between atoms: C_11  and  C_9 
ROOT
ATOM      1  C   UNL d   1      53.021  32.750  53.703  0.00  0.00     0.075 C 
ENDROOT
BRANCH   1   2
ATOM      2  C   UNL d   1      52.956  31.934  53.605  0.00  0.00     0.106 A 
ATOM      3  C   UNL d   1      53.084  31.513  52.898  0.00  0.00     0.289 A 
ATOM      4  N   UNL d   1      52.959  30.715  53.050  0.00  0.00    -0.169 N 
ATOM      5  O   UNL d   1      53.300  31.844  52.173  0.00  0.00    -0.265 OA
ATOM      6  C   UNL d   1      52.754  30.637  53.845  0.00  0.00     0.200 A 
ATOM      7  N   UNL d   1      52.959  29.966  52.716  0.00  0.00    -0.141 NA
ATOM      8  S   UNL d   1      52.751  31.384  54.187  0.00  0.00    -0.042 SA
ATOM      9  N   UNL d   1      52.629  29.838  53.997  0.00  0.00    -0.200 NA
ATOM     10  C   UNL d   1      52.755  29.423  53.299  0.00  0.00     0.184 A 
ATOM     11  C   UNL d   1      52.692  28.607  53.194  0.00  0.00     0.044 C 
ENDBRANCH   1   2
BRANCH   1  12
ATOM     12  N   UNL d   1      52.430  33.239  53.408  0.00  0.00    -0.300 N 
ATOM     13  C   UNL d   1      52.564  33.689  52.740  0.00  0.00     0.107 A 
ATOM     14  C   UNL d   1      51.960  34.182  52.449  0.00  0.00     0.142 A 
ATOM     15  O   UNL d   1      51.230  34.218  52.830  0.00  0.00    -0.300 OA
ATOM     16  C   UNL d   1      51.112  33.757  53.504  0.00  0.00     0.142 A 
ATOM     17  C   UNL d   1      51.707  33.267  53.796  0.00  0.00     0.107 A 
ENDBRANCH   1  12
BRANCH   1  18
ATOM     18  C   UNL d   1      53.670  33.066  54.089  0.00  0.00     0.017 A 
ATOM     19  C   UNL d   1      53.615  33.264  54.888  0.00  0.00     0.002 A 
ATOM     20  C   UNL d   1      54.272  33.585  55.282  0.00  0.00     0.000 A 
ATOM     21  C   UNL d   1      54.964  33.701  54.874  0.00  0.00     0.000 A 
ATOM     22  C   UNL d   1      55.010  33.499  54.071  0.00  0.00     0.000 A 
ATOM     23  C   UNL d   1      55.636  34.025  55.259  0.00  0.00     0.000 C 
ATOM     24  C   UNL d   1      54.370  33.186  53.689  0.00  0.00     0.002 A 
ENDBRANCH   1  18
TORSDOF 3
ENDMDL
