MODEL 1
REMARK VINA RESULT:      48.1      0.000      0.000
REMARK  6 active torsions:
REMARK  status: ('A' for Active; 'I' for Inactive)
REMARK    1  A    between atoms: C_2  and  S_1 
REMARK    2  A    between atoms: N_3  and  S_1 
REMARK    3  A    between atoms: C_5  and  C_6 
REMARK    4  A    between atoms: O_13  and  C_5 
REMARK    5  A    between atoms: C_22  and  O_13 
REMARK    6  A    between atoms: C_21  and  C_22 
ROOT
ATOM      1  C   UNL d   1      45.099 -14.343  37.679  0.00  0.00     0.104 A 
ATOM      2  C   UNL d   1      44.793 -13.823  38.243  0.00  0.00     0.018 A 
ATOM      3  C   UNL d   1      45.267 -13.218  38.547  0.00  0.00     0.064 A 
ATOM      4  C   UNL d   1      45.871 -14.254  37.424  0.00  0.00     0.012 A 
ATOM      5  C   UNL d   1      46.045 -13.132  38.287  0.00  0.00     0.005 A 
ATOM      6  C   UNL d   1      46.340 -13.654  37.725  0.00  0.00     0.001 A 
ATOM      7  C   UNL d   1      46.176 -14.773  36.860  0.00  0.00     0.001 C 
ENDROOT
BRANCH   3   8
ATOM      8  C   UNL d   1      44.962 -12.699  39.111  0.00  0.00     0.300 C 
ATOM      9  O   UNL d   1      44.347 -12.185  38.906  0.00  0.00    -0.259 OA
BRANCH   8  10
ATOM     10  O   UNL d   1      45.268 -12.691  39.875  0.00  0.00    -0.271 OA
BRANCH  10  11
ATOM     11  C   UNL d   1      44.972 -12.164  40.430  0.00  0.00     0.126 C 
BRANCH  11  12
ATOM     12  C   UNL d   1      45.159 -12.252  41.229  0.00  0.00     0.027 A 
ATOM     13  C   UNL d   1      44.568 -12.390  41.772  0.00  0.00     0.028 A 
ATOM     14  C   UNL d   1      44.749 -12.479  42.573  0.00  0.00     0.119 A 
ATOM     15  O   UNL d   1      44.278 -12.621  43.243  0.00  0.00    -0.300 OA
ATOM     16  C   UNL d   1      45.537 -12.428  42.819  0.00  0.00     0.119 A 
ATOM     17  C   UNL d   1      44.782 -12.656  43.902  0.00  0.00     0.304 A 
ATOM     18  O   UNL d   1      45.555 -12.537  43.639  0.00  0.00    -0.300 OA
ATOM     19  C   UNL d   1      46.142 -12.288  42.267  0.00  0.00     0.026 A 
ATOM     20  C   UNL d   1      45.947 -12.200  41.470  0.00  0.00     0.004 A 
ENDBRANCH  11  12
ENDBRANCH  10  11
ENDBRANCH   8  10
ENDBRANCH   3   8
BRANCH   1  21
ATOM     21  S   UNL d   1      44.627 -14.945  37.376  0.00  0.00     0.271 S 
ATOM     22  O   UNL d   1      44.810 -15.421  38.037  0.00  0.00    -0.200 OA
ATOM     23  O   UNL d   1      44.420 -14.408  36.628  0.00  0.00    -0.200 OA
BRANCH  21  24
ATOM     24  N   UNL d   1      44.147 -15.513  37.031  0.00  0.00    -0.229 N 
ATOM     25  C   UNL d   1      43.341 -15.373  36.933  0.00  0.00     0.092 A 
ATOM     26  C   UNL d   1      42.863 -15.949  36.585  0.00  0.00     0.020 A 
ATOM     27  C   UNL d   1      43.191 -16.659  36.338  0.00  0.00     0.003 A 
ATOM     28  C   UNL d   1      43.993 -16.795  36.437  0.00  0.00     0.020 A 
ATOM     29  C   UNL d   1      44.469 -16.228  36.781  0.00  0.00     0.092 A 
ENDBRANCH  21  24
ENDBRANCH   1  21
TORSDOF 6
ENDMDL
MODEL 2
REMARK VINA RESULT:      50.6      1.945      5.891
REMARK  6 active torsions:
REMARK  status: ('A' for Active; 'I' for Inactive)
REMARK    1  A    between atoms: C_2  and  S_1 
REMARK    2  A    between atoms: N_3  and  S_1 
REMARK    3  A    between atoms: C_5  and  C_6 
REMARK    4  A    between atoms: O_13  and  C_5 
REMARK    5  A    between atoms: C_22  and  O_13 
REMARK    6  A    between atoms: C_21  and  C_22 
ROOT
ATOM      1  C   UNL d   1      45.022 -12.745  41.972  0.00  0.00     0.104 A 
ATOM      2  C   UNL d   1      45.471 -12.968  41.316  0.00  0.00     0.018 A 
ATOM      3  C   UNL d   1      45.234 -12.744  40.556  0.00  0.00     0.064 A 
ATOM      4  C   UNL d   1      44.342 -12.303  41.865  0.00  0.00     0.012 A 
ATOM      5  C   UNL d   1      44.548 -12.298  40.452  0.00  0.00     0.005 A 
ATOM      6  C   UNL d   1      44.107 -12.082  41.112  0.00  0.00     0.001 A 
ATOM      7  C   UNL d   1      43.894 -12.080  42.520  0.00  0.00     0.001 C 
ENDROOT
BRANCH   3   8
ATOM      8  C   UNL d   1      45.683 -12.967  39.901  0.00  0.00     0.300 C 
ATOM      9  O   UNL d   1      46.491 -12.793  39.879  0.00  0.00    -0.259 OA
BRANCH   8  10
ATOM     10  O   UNL d   1      45.328 -13.360  39.272  0.00  0.00    -0.271 OA
BRANCH  10  11
ATOM     11  C   UNL d   1      45.609 -13.249  38.508  0.00  0.00     0.126 C 
BRANCH  11  12
ATOM     12  C   UNL d   1      45.569 -13.861  37.956  0.00  0.00     0.027 A 
ATOM     13  C   UNL d   1      44.878 -14.282  37.866  0.00  0.00     0.028 A 
ATOM     14  C   UNL d   1      44.831 -14.896  37.315  0.00  0.00     0.119 A 
ATOM     15  O   UNL d   1      44.217 -15.414  37.101  0.00  0.00    -0.300 OA
ATOM     16  C   UNL d   1      45.494 -15.079  36.855  0.00  0.00     0.119 A 
ATOM     17  C   UNL d   1      44.507 -15.917  36.506  0.00  0.00     0.304 A 
ATOM     18  O   UNL d   1      45.292 -15.709  36.357  0.00  0.00    -0.300 OA
ATOM     19  C   UNL d   1      46.200 -14.651  36.945  0.00  0.00     0.026 A 
ATOM     20  C   UNL d   1      46.233 -14.041  37.499  0.00  0.00     0.004 A 
ENDBRANCH  11  12
ENDBRANCH  10  11
ENDBRANCH   8  10
ENDBRANCH   3   8
BRANCH   1  21
ATOM     21  S   UNL d   1      45.259 -12.968  42.728  0.00  0.00     0.271 S 
ATOM     22  O   UNL d   1      44.481 -13.222  42.896  0.00  0.00    -0.200 OA
ATOM     23  O   UNL d   1      46.137 -12.680  42.538  0.00  0.00    -0.200 OA
BRANCH  21  24
ATOM     24  N   UNL d   1      45.545 -13.172  43.468  0.00  0.00    -0.229 N 
ATOM     25  C   UNL d   1      45.279 -13.855  43.843  0.00  0.00     0.092 A 
ATOM     26  C   UNL d   1      45.572 -14.055  44.589  0.00  0.00     0.020 A 
ATOM     27  C   UNL d   1      46.125 -13.573  44.955  0.00  0.00     0.003 A 
ATOM     28  C   UNL d   1      46.387 -12.893  44.579  0.00  0.00     0.020 A 
ATOM     29  C   UNL d   1      46.100 -12.693  43.842  0.00  0.00     0.092 A 
ENDBRANCH  21  24
ENDBRANCH   1  21
TORSDOF 6
ENDMDL
