MODEL 1
REMARK VINA RESULT:      29.5      0.000      0.000
REMARK  2 active torsions:
REMARK  status: ('A' for Active; 'I' for Inactive)
REMARK       I    between atoms: N_2  and  C_1 
REMARK    1  A    between atoms: C_5  and  C_1 
REMARK    2  A    between atoms: C_7  and  N_2 
ROOT
ATOM      1  C   UNL d   1      57.618  49.684  50.312  0.00  0.00     0.125 A 
ATOM      2  C   UNL d   1      58.409  49.685  50.548  0.00  0.00     0.059 A 
ATOM      3  C   UNL d   1      57.418  49.693  49.511  0.00  0.00     0.123 A 
ATOM      4  C   UNL d   1      59.003  49.696  49.979  0.00  0.00     0.137 A 
ATOM      5  O   UNL d   1      57.020  49.673  50.886  0.00  0.00    -0.301 OA
ATOM      6  O   UNL d   1      56.627  49.692  49.271  0.00  0.00    -0.301 OA
ATOM      7  C   UNL d   1      58.017  49.704  48.941  0.00  0.00     0.029 A 
ATOM      8  C   UNL d   1      58.807  49.705  49.173  0.00  0.00     0.034 A 
ATOM      9  C   UNL d   1      56.230  49.672  50.654  0.00  0.00     0.149 A 
ATOM     10  C   UNL d   1      56.034  49.681  49.848  0.00  0.00     0.149 A 
ENDROOT
BRANCH   4  11
ATOM     11  N   UNL d   1      59.801  49.697  50.210  0.00  0.00    -0.365 NA
ATOM     12  C   UNL d   1      60.582  49.698  50.439  0.00  0.00     0.328 C 
ATOM     13  O   UNL d   1      61.174  49.700  49.875  0.00  0.00    -0.251 OA
BRANCH  12  14
ATOM     14  C   UNL d   1      60.771  49.698  51.234  0.00  0.00     0.070 A 
ATOM     15  C   UNL d   1      61.557  49.689  51.476  0.00  0.00     0.006 A 
ATOM     16  C   UNL d   1      61.742  49.689  52.280  0.00  0.00     0.000 A 
ATOM     17  C   UNL d   1      61.143  49.698  52.850  0.00  0.00     0.000 A 
ATOM     18  C   UNL d   1      60.357  49.707  52.612  0.00  0.00     0.000 A 
ATOM     19  C   UNL d   1      61.328  49.697  53.654  0.00  0.00     0.000 C 
ATOM     20  C   UNL d   1      60.170  49.707  51.804  0.00  0.00     0.006 A 
ENDBRANCH  12  14
ENDBRANCH   4  11
TORSDOF 2
ENDMDL
