MODEL 1
REMARK VINA RESULT:      -1.4      0.000      0.000
REMARK  4 active torsions:
REMARK  status: ('A' for Active; 'I' for Inactive)
REMARK    1  A    between atoms: C_10  and  C_3 
REMARK    2  A    between atoms: C_11  and  N_5 
REMARK    3  A    between atoms: O_17  and  C_10 
REMARK    4  A    between atoms: C_21  and  O_17 
ROOT
ATOM      1  C   UNL d   1      32.864  22.247 -20.732  0.00  0.00     0.086 A 
ATOM      2  C   UNL d   1      32.943  21.431 -20.692  0.00  0.00     0.038 A 
ATOM      3  C   UNL d   1      33.015  20.988 -21.384  0.00  0.00     0.165 A 
ATOM      4  C   UNL d   1      32.855  22.627 -21.468  0.00  0.00     0.282 A 
ATOM      5  N   UNL d   1      32.926  22.188 -22.158  0.00  0.00    -0.194 N 
ATOM      6  N   UNL d   1      33.006  21.368 -22.120  0.00  0.00    -0.157 NA
ATOM      7  C   UNL d   1      32.805  22.531 -19.958  0.00  0.00     0.137 A 
ATOM      8  C   UNL d   1      32.933  21.215 -19.895  0.00  0.00     0.039 A 
ATOM      9  S   UNL d   1      32.848  21.891 -19.447  0.00  0.00    -0.066 SA
ATOM     10  O   UNL d   1      32.775  23.454 -21.511  0.00  0.00    -0.265 OA
ATOM     11  N   UNL d   1      32.716  23.323 -19.717  0.00  0.00    -0.141 N 
ENDROOT
BRANCH   5  12
ATOM     12  C   UNL d   1      32.917  22.565 -22.889  0.00  0.00     0.086 A 
ATOM     13  C   UNL d   1      33.232  22.187 -23.552  0.00  0.00     0.019 A 
ATOM     14  C   UNL d   1      33.223  22.569 -24.290  0.00  0.00     0.002 A 
ATOM     15  C   UNL d   1      32.900  23.325 -24.360  0.00  0.00     0.000 A 
ATOM     16  C   UNL d   1      32.587  23.700 -23.699  0.00  0.00     0.002 A 
ATOM     17  C   UNL d   1      32.892  23.702 -25.091  0.00  0.00     0.000 C 
ATOM     18  C   UNL d   1      32.596  23.318 -22.960  0.00  0.00     0.019 A 
ENDBRANCH   5  12
BRANCH   3  19
ATOM     19  C   UNL d   1      33.095  20.161 -21.340  0.00  0.00     0.320 C 
ATOM     20  O   UNL d   1      33.029  19.783 -20.614  0.00  0.00    -0.257 OA
BRANCH  19  21
ATOM     21  O   UNL d   1      33.241  19.720 -22.026  0.00  0.00    -0.270 OA
BRANCH  21  22
ATOM     22  C   UNL d   1      32.965  18.948 -22.084  0.00  0.00     0.126 C 
ATOM     23  C   UNL d   1      32.856  18.601 -22.832  0.00  0.00     0.029 C 
ENDBRANCH  21  22
ENDBRANCH  19  21
ENDBRANCH   3  19
TORSDOF 4
ENDMDL
MODEL 2
REMARK VINA RESULT:      -0.2      4.647      5.753
REMARK  4 active torsions:
REMARK  status: ('A' for Active; 'I' for Inactive)
REMARK    1  A    between atoms: C_10  and  C_3 
REMARK    2  A    between atoms: C_11  and  N_5 
REMARK    3  A    between atoms: O_17  and  C_10 
REMARK    4  A    between atoms: C_21  and  O_17 
ROOT
ATOM      1  C   UNL d   1      29.813  17.159 -24.446  0.00  0.00     0.086 A 
ATOM      2  C   UNL d   1      30.060  16.520 -23.994  0.00  0.00     0.038 A 
ATOM      3  C   UNL d   1      30.837  16.483 -23.720  0.00  0.00     0.165 A 
ATOM      4  C   UNL d   1      30.344  17.767 -24.629  0.00  0.00     0.282 A 
ATOM      5  N   UNL d   1      31.119  17.732 -24.358  0.00  0.00    -0.194 N 
ATOM      6  N   UNL d   1      31.369  17.091 -23.903  0.00  0.00    -0.157 NA
ATOM      7  C   UNL d   1      29.017  17.040 -24.634  0.00  0.00     0.137 A 
ATOM      8  C   UNL d   1      29.417  16.010 -23.904  0.00  0.00     0.039 A 
ATOM      9  S   UNL d   1      28.779  16.331 -24.298  0.00  0.00    -0.066 SA
ATOM     10  O   UNL d   1      30.097  18.416 -25.088  0.00  0.00    -0.265 OA
ATOM     11  N   UNL d   1      28.525  17.539 -25.085  0.00  0.00    -0.141 N 
ENDROOT
BRANCH   5  12
ATOM     12  C   UNL d   1      31.647  18.337 -24.540  0.00  0.00     0.086 A 
ATOM     13  C   UNL d   1      31.451  19.120 -24.370  0.00  0.00     0.019 A 
ATOM     14  C   UNL d   1      31.984  19.730 -24.554  0.00  0.00     0.002 A 
ATOM     15  C   UNL d   1      32.709  19.552 -24.905  0.00  0.00     0.000 A 
ATOM     16  C   UNL d   1      32.902  18.772 -25.074  0.00  0.00     0.002 A 
ATOM     17  C   UNL d   1      33.237  20.157 -25.087  0.00  0.00     0.000 C 
ATOM     18  C   UNL d   1      32.369  18.161 -24.890  0.00  0.00     0.019 A 
ENDBRANCH   5  12
BRANCH   3  19
ATOM     19  C   UNL d   1      31.085  15.834 -23.262  0.00  0.00     0.320 C 
ATOM     20  O   UNL d   1      30.583  15.523 -22.691  0.00  0.00    -0.257 OA
BRANCH  19  21
ATOM     21  O   UNL d   1      31.834  15.503 -23.379  0.00  0.00    -0.270 OA
BRANCH  21  22
ATOM     22  C   UNL d   1      32.374  15.478 -22.761  0.00  0.00     0.126 C 
ATOM     23  C   UNL d   1      33.190  15.455 -22.921  0.00  0.00     0.029 C 
ENDBRANCH  21  22
ENDBRANCH  19  21
ENDBRANCH   3  19
TORSDOF 4
ENDMDL
MODEL 3
REMARK VINA RESULT:       0.9      2.510      3.886
REMARK  4 active torsions:
REMARK  status: ('A' for Active; 'I' for Inactive)
REMARK    1  A    between atoms: C_10  and  C_3 
REMARK    2  A    between atoms: C_11  and  N_5 
REMARK    3  A    between atoms: O_17  and  C_10 
REMARK    4  A    between atoms: C_21  and  O_17 
ROOT
ATOM      1  C   UNL d   1      33.161  19.715 -23.896  0.00  0.00     0.086 A 
ATOM      2  C   UNL d   1      33.128  18.901 -23.789  0.00  0.00     0.038 A 
ATOM      3  C   UNL d   1      33.085  18.586 -23.028  0.00  0.00     0.165 A 
ATOM      4  C   UNL d   1      33.150  20.220 -23.240  0.00  0.00     0.282 A 
ATOM      5  N   UNL d   1      33.108  19.908 -22.481  0.00  0.00    -0.194 N 
ATOM      6  N   UNL d   1      33.075  19.091 -22.372  0.00  0.00    -0.157 NA
ATOM      7  C   UNL d   1      33.200  19.859 -24.709  0.00  0.00     0.137 A 
ATOM      8  C   UNL d   1      33.148  18.548 -24.535  0.00  0.00     0.039 A 
ATOM      9  S   UNL d   1      33.191  19.136 -25.097  0.00  0.00    -0.066 SA
ATOM     10  O   UNL d   1      33.183  21.045 -23.345  0.00  0.00    -0.265 OA
ATOM     11  N   UNL d   1      33.241  20.599 -25.089  0.00  0.00    -0.141 N 
ENDROOT
BRANCH   5  12
ATOM     12  C   UNL d   1      33.097  20.410 -21.829  0.00  0.00     0.086 A 
ATOM     13  C   UNL d   1      32.942  21.214 -21.931  0.00  0.00     0.019 A 
ATOM     14  C   UNL d   1      32.932  21.720 -21.272  0.00  0.00     0.002 A 
ATOM     15  C   UNL d   1      33.076  21.419 -20.518  0.00  0.00     0.000 A 
ATOM     16  C   UNL d   1      33.231  20.618 -20.419  0.00  0.00     0.002 A 
ATOM     17  C   UNL d   1      33.066  21.921 -19.866  0.00  0.00     0.000 C 
ATOM     18  C   UNL d   1      33.241  20.111 -21.077  0.00  0.00     0.019 A 
ENDBRANCH   5  12
BRANCH   3  19
ATOM     19  C   UNL d   1      33.053  17.761 -22.923  0.00  0.00     0.320 C 
ATOM     20  O   UNL d   1      33.237  17.436 -22.191  0.00  0.00    -0.257 OA
BRANCH  19  21
ATOM     21  O   UNL d   1      32.835  17.269 -23.552  0.00  0.00    -0.270 OA
BRANCH  21  22
ATOM     22  C   UNL d   1      32.629  16.487 -23.409  0.00  0.00     0.126 C 
ATOM     23  C   UNL d   1      31.828  16.272 -23.347  0.00  0.00     0.029 C 
ENDBRANCH  21  22
ENDBRANCH  19  21
ENDBRANCH   3  19
TORSDOF 4
ENDMDL
