MODEL 1
REMARK VINA RESULT:      -9.1      0.000      0.000
REMARK  1 active torsions:
REMARK  status: ('A' for Active; 'I' for Inactive)
REMARK    1  A    between atoms: C_13  and  N_5 
ROOT
ATOM      1  C   UNL d   1      52.448  33.168  53.395  0.00  0.00     0.170 A 
ATOM      2  C   UNL d   1      51.769  32.903  53.070  0.00  0.00     0.093 A 
ATOM      3  C   UNL d   1      51.172  33.407  52.908  0.00  0.00     0.172 A 
ATOM      4  N   UNL d   1      51.258  34.183  53.073  0.00  0.00    -0.190 N 
ATOM      5  N   UNL d   1      53.049  32.656  53.558  0.00  0.00    -0.212 N 
ATOM      6  N   UNL d   1      52.533  33.949  53.561  0.00  0.00    -0.205 NA
ATOM      7  N   UNL d   1      50.491  33.136  52.581  0.00  0.00    -0.206 NA
ATOM      8  N   UNL d   1      52.951  31.876  53.387  0.00  0.00    -0.162 NA
ATOM      9  N   UNL d   1      50.664  34.689  52.912  0.00  0.00    -0.143 NA
ATOM     10  C   UNL d   1      51.937  34.449  53.399  0.00  0.00     0.203 A 
ATOM     11  C   UNL d   1      52.275  31.615  53.063  0.00  0.00     0.127 A 
ATOM     12  C   UNL d   1      49.991  34.422  52.589  0.00  0.00     0.184 A 
ATOM     13  C   UNL d   1      49.246  34.783  52.342  0.00  0.00     0.044 C 
ENDROOT
BRANCH   5  14
ATOM     14  C   UNL d   1      53.744  32.933  53.892  0.00  0.00     0.085 A 
ATOM     15  C   UNL d   1      53.800  33.017  54.696  0.00  0.00     0.019 A 
ATOM     16  C   UNL d   1      54.506  33.298  55.035  0.00  0.00     0.002 A 
ATOM     17  C   UNL d   1      54.579  33.393  55.889  0.00  0.00     0.000 C 
ATOM     18  C   UNL d   1      55.153  33.492  54.549  0.00  0.00     0.000 A 
ATOM     19  C   UNL d   1      55.078  33.399  53.727  0.00  0.00     0.002 A 
ATOM     20  C   UNL d   1      55.883  33.781  54.886  0.00  0.00     0.000 C 
ATOM     21  C   UNL d   1      54.380  33.122  53.401  0.00  0.00     0.019 A 
ENDBRANCH   5  14
TORSDOF 1
ENDMDL
MODEL 2
REMARK VINA RESULT:      -8.5      1.045      4.074
REMARK  1 active torsions:
REMARK  status: ('A' for Active; 'I' for Inactive)
REMARK    1  A    between atoms: C_13  and  N_5 
ROOT
ATOM      1  C   UNL d   1      52.697  33.257  53.531  0.00  0.00     0.170 A 
ATOM      2  C   UNL d   1      53.342  32.833  53.732  0.00  0.00     0.093 A 
ATOM      3  C   UNL d   1      53.906  33.146  54.202  0.00  0.00     0.172 A 
ATOM      4  N   UNL d   1      53.820  33.892  54.473  0.00  0.00    -0.190 N 
ATOM      5  N   UNL d   1      52.130  32.937  53.056  0.00  0.00    -0.212 N 
ATOM      6  N   UNL d   1      52.613  34.007  53.804  0.00  0.00    -0.205 NA
ATOM      7  N   UNL d   1      54.553  32.716  54.401  0.00  0.00    -0.206 NA
ATOM      8  N   UNL d   1      52.227  32.184  52.789  0.00  0.00    -0.162 NA
ATOM      9  N   UNL d   1      54.380  34.208  54.943  0.00  0.00    -0.143 NA
ATOM     10  C   UNL d   1      53.175  34.317  54.272  0.00  0.00     0.203 A 
ATOM     11  C   UNL d   1      52.870  31.764  52.990  0.00  0.00     0.127 A 
ATOM     12  C   UNL d   1      55.020  33.783  55.139  0.00  0.00     0.184 A 
ATOM     13  C   UNL d   1      55.724  33.925  55.619  0.00  0.00     0.044 C 
ENDROOT
BRANCH   5  14
ATOM     14  C   UNL d   1      51.470  33.376  52.853  0.00  0.00     0.085 A 
ATOM     15  C   UNL d   1      51.431  33.734  52.126  0.00  0.00     0.019 A 
ATOM     16  C   UNL d   1      50.760  34.180  51.919  0.00  0.00     0.002 A 
ATOM     17  C   UNL d   1      50.705  34.566  51.149  0.00  0.00     0.000 C 
ATOM     18  C   UNL d   1      50.131  34.260  52.458  0.00  0.00     0.000 A 
ATOM     19  C   UNL d   1      50.187  33.887  53.198  0.00  0.00     0.002 A 
ATOM     20  C   UNL d   1      49.436  34.716  52.257  0.00  0.00     0.000 C 
ATOM     21  C   UNL d   1      50.851  33.449  53.394  0.00  0.00     0.019 A 
ENDBRANCH   5  14
TORSDOF 1
ENDMDL
MODEL 3
REMARK VINA RESULT:      -8.5      1.399      4.153
REMARK  1 active torsions:
REMARK  status: ('A' for Active; 'I' for Inactive)
REMARK    1  A    between atoms: C_13  and  N_5 
ROOT
ATOM      1  C   UNL d   1      52.415  32.967  53.101  0.00  0.00     0.170 A 
ATOM      2  C   UNL d   1      53.100  32.716  53.424  0.00  0.00     0.093 A 
ATOM      3  C   UNL d   1      53.259  31.936  53.486  0.00  0.00     0.172 A 
ATOM      4  N   UNL d   1      52.725  31.406  53.220  0.00  0.00    -0.190 N 
ATOM      5  N   UNL d   1      52.258  33.756  53.040  0.00  0.00    -0.212 N 
ATOM      6  N   UNL d   1      51.880  32.432  52.834  0.00  0.00    -0.205 NA
ATOM      7  N   UNL d   1      53.949  31.688  53.811  0.00  0.00    -0.206 NA
ATOM      8  N   UNL d   1      52.803  34.282  53.311  0.00  0.00    -0.162 NA
ATOM      9  N   UNL d   1      52.881  30.626  53.280  0.00  0.00    -0.143 NA
ATOM     10  C   UNL d   1      52.040  31.656  52.897  0.00  0.00     0.203 A 
ATOM     11  C   UNL d   1      53.484  34.029  53.632  0.00  0.00     0.127 A 
ATOM     12  C   UNL d   1      53.563  30.381  53.602  0.00  0.00     0.184 A 
ATOM     13  C   UNL d   1      53.922  29.611  53.759  0.00  0.00     0.044 C 
ENDROOT
BRANCH   5  14
ATOM     14  C   UNL d   1      51.554  34.009  52.708  0.00  0.00     0.085 A 
ATOM     15  C   UNL d   1      50.944  34.248  53.186  0.00  0.00     0.019 A 
ATOM     16  C   UNL d   1      50.229  34.505  52.848  0.00  0.00     0.002 A 
ATOM     17  C   UNL d   1      49.572  34.762  53.346  0.00  0.00     0.000 C 
ATOM     18  C   UNL d   1      50.139  34.517  52.022  0.00  0.00     0.000 A 
ATOM     19  C   UNL d   1      50.773  34.269  51.546  0.00  0.00     0.002 A 
ATOM     20  C   UNL d   1      49.409  34.779  51.663  0.00  0.00     0.000 C 
ATOM     21  C   UNL d   1      51.475  34.017  51.886  0.00  0.00     0.019 A 
ENDBRANCH   5  14
TORSDOF 1
ENDMDL
MODEL 4
REMARK VINA RESULT:      -8.3      1.394      2.498
REMARK  1 active torsions:
REMARK  status: ('A' for Active; 'I' for Inactive)
REMARK    1  A    between atoms: C_13  and  N_5 
ROOT
ATOM      1  C   UNL d   1      52.394  32.804  53.243  0.00  0.00     0.170 A 
ATOM      2  C   UNL d   1      52.322  33.575  53.050  0.00  0.00     0.093 A 
ATOM      3  C   UNL d   1      51.603  33.914  52.987  0.00  0.00     0.172 A 
ATOM      4  N   UNL d   1      50.950  33.474  53.120  0.00  0.00    -0.190 N 
ATOM      5  N   UNL d   1      53.123  32.465  53.305  0.00  0.00    -0.212 N 
ATOM      6  N   UNL d   1      51.736  32.363  53.376  0.00  0.00    -0.205 NA
ATOM      7  N   UNL d   1      51.536  34.689  52.793  0.00  0.00    -0.206 NA
ATOM      8  N   UNL d   1      53.774  32.918  53.169  0.00  0.00    -0.162 NA
ATOM      9  N   UNL d   1      50.229  33.809  53.059  0.00  0.00    -0.143 NA
ATOM     10  C   UNL d   1      51.020  32.703  53.313  0.00  0.00     0.203 A 
ATOM     11  C   UNL d   1      53.700  33.685  52.977  0.00  0.00     0.127 A 
ATOM     12  C   UNL d   1      50.163  34.576  52.867  0.00  0.00     0.184 A 
ATOM     13  C   UNL d   1      49.504  35.122  52.750  0.00  0.00     0.044 C 
ENDROOT
BRANCH   5  14
ATOM     14  C   UNL d   1      53.191  31.673  53.503  0.00  0.00     0.085 A 
ATOM     15  C   UNL d   1      53.056  31.104  52.942  0.00  0.00     0.019 A 
ATOM     16  C   UNL d   1      53.126  30.299  53.143  0.00  0.00     0.002 A 
ATOM     17  C   UNL d   1      52.985  29.683  52.556  0.00  0.00     0.000 C 
ATOM     18  C   UNL d   1      53.333  30.081  53.918  0.00  0.00     0.000 A 
ATOM     19  C   UNL d   1      53.467  30.677  54.481  0.00  0.00     0.002 A 
ATOM     20  C   UNL d   1      53.407  29.258  54.138  0.00  0.00     0.000 C 
ATOM     21  C   UNL d   1      53.397  31.467  54.275  0.00  0.00     0.019 A 
ENDBRANCH   5  14
TORSDOF 1
ENDMDL
MODEL 5
REMARK VINA RESULT:      -8.0      1.746      3.141
REMARK  1 active torsions:
REMARK  status: ('A' for Active; 'I' for Inactive)
REMARK    1  A    between atoms: C_13  and  N_5 
ROOT
ATOM      1  C   UNL d   1      53.621  32.882  53.823  0.00  0.00     0.170 A 
ATOM      2  C   UNL d   1      54.013  33.567  53.937  0.00  0.00     0.093 A 
ATOM      3  C   UNL d   1      53.626  34.224  54.172  0.00  0.00     0.172 A 
ATOM      4  N   UNL d   1      52.838  34.192  54.293  0.00  0.00    -0.190 N 
ATOM      5  N   UNL d   1      54.016  32.221  53.585  0.00  0.00    -0.212 N 
ATOM      6  N   UNL d   1      52.828  32.851  53.945  0.00  0.00    -0.205 NA
ATOM      7  N   UNL d   1      54.025  34.911  54.286  0.00  0.00    -0.206 NA
ATOM      8  N   UNL d   1      54.811  32.265  53.467  0.00  0.00    -0.162 NA
ATOM      9  N   UNL d   1      52.447  34.846  54.528  0.00  0.00    -0.143 NA
ATOM     10  C   UNL d   1      52.444  33.507  54.179  0.00  0.00     0.203 A 
ATOM     11  C   UNL d   1      55.199  32.948  53.581  0.00  0.00     0.127 A 
ATOM     12  C   UNL d   1      52.842  35.524  54.640  0.00  0.00     0.184 A 
ATOM     13  C   UNL d   1      52.624  36.324  54.885  0.00  0.00     0.044 C 
ENDROOT
BRANCH   5  14
ATOM     14  C   UNL d   1      53.609  31.520  53.469  0.00  0.00     0.085 A 
ATOM     15  C   UNL d   1      53.692  30.912  53.999  0.00  0.00     0.019 A 
ATOM     16  C   UNL d   1      53.278  30.200  53.881  0.00  0.00     0.002 A 
ATOM     17  C   UNL d   1      53.358  29.545  54.437  0.00  0.00     0.000 C 
ATOM     18  C   UNL d   1      52.780  30.112  53.220  0.00  0.00     0.000 A 
ATOM     19  C   UNL d   1      52.706  30.745  52.688  0.00  0.00     0.002 A 
ATOM     20  C   UNL d   1      52.350  29.385  53.088  0.00  0.00     0.000 C 
ATOM     21  C   UNL d   1      53.117  31.443  52.811  0.00  0.00     0.019 A 
ENDBRANCH   5  14
TORSDOF 1
ENDMDL
MODEL 6
REMARK VINA RESULT:      -6.8      1.970      3.465
REMARK  1 active torsions:
REMARK  status: ('A' for Active; 'I' for Inactive)
REMARK    1  A    between atoms: C_13  and  N_5 
ROOT
ATOM      1  C   UNL d   1      49.620  34.766  52.511  0.00  0.00     0.170 A 
ATOM      2  C   UNL d   1      48.999  34.977  52.056  0.00  0.00     0.093 A 
ATOM      3  C   UNL d   1      48.398  35.405  52.361  0.00  0.00     0.172 A 
ATOM      4  N   UNL d   1      48.423  35.622  53.129  0.00  0.00    -0.190 N 
ATOM      5  N   UNL d   1      50.225  34.333  52.199  0.00  0.00    -0.212 N 
ATOM      6  N   UNL d   1      49.643  34.986  53.282  0.00  0.00    -0.205 NA
ATOM      7  N   UNL d   1      47.776  35.614  51.901  0.00  0.00    -0.206 NA
ATOM      8  N   UNL d   1      50.190  34.119  51.424  0.00  0.00    -0.162 NA
ATOM      9  N   UNL d   1      47.824  36.050  53.437  0.00  0.00    -0.143 NA
ATOM     10  C   UNL d   1      49.043  35.412  53.584  0.00  0.00     0.203 A 
ATOM     11  C   UNL d   1      49.571  34.331  50.974  0.00  0.00     0.127 A 
ATOM     12  C   UNL d   1      47.209  36.257  52.981  0.00  0.00     0.184 A 
ATOM     13  C   UNL d   1      46.480  36.703  53.106  0.00  0.00     0.044 C 
ENDROOT
BRANCH   5  14
ATOM     14  C   UNL d   1      50.860  34.119  52.670  0.00  0.00     0.085 A 
ATOM     15  C   UNL d   1      51.505  34.608  52.725  0.00  0.00     0.019 A 
ATOM     16  C   UNL d   1      52.150  34.391  53.203  0.00  0.00     0.002 A 
ATOM     17  C   UNL d   1      52.842  34.902  53.270  0.00  0.00     0.000 C 
ATOM     18  C   UNL d   1      52.134  33.673  53.623  0.00  0.00     0.000 A 
ATOM     19  C   UNL d   1      51.466  33.184  53.555  0.00  0.00     0.002 A 
ATOM     20  C   UNL d   1      52.791  33.439  54.117  0.00  0.00     0.000 C 
ATOM     21  C   UNL d   1      50.834  33.405  53.083  0.00  0.00     0.019 A 
ENDBRANCH   5  14
TORSDOF 1
ENDMDL
MODEL 7
REMARK VINA RESULT:      -6.6      1.601      3.168
REMARK  1 active torsions:
REMARK  status: ('A' for Active; 'I' for Inactive)
REMARK    1  A    between atoms: C_13  and  N_5 
ROOT
ATOM      1  C   UNL d   1      52.507  32.645  53.466  0.00  0.00     0.170 A 
ATOM      2  C   UNL d   1      52.145  31.960  53.274  0.00  0.00     0.093 A 
ATOM      3  C   UNL d   1      52.540  31.267  53.310  0.00  0.00     0.172 A 
ATOM      4  N   UNL d   1      53.304  31.264  53.541  0.00  0.00    -0.190 N 
ATOM      5  N   UNL d   1      52.104  33.343  53.428  0.00  0.00    -0.212 N 
ATOM      6  N   UNL d   1      53.275  32.639  53.697  0.00  0.00    -0.205 NA
ATOM      7  N   UNL d   1      52.172  30.581  53.117  0.00  0.00    -0.206 NA
ATOM      8  N   UNL d   1      51.334  33.335  53.195  0.00  0.00    -0.162 NA
ATOM      9  N   UNL d   1      53.701  30.574  53.578  0.00  0.00    -0.143 NA
ATOM     10  C   UNL d   1      53.666  31.948  53.732  0.00  0.00     0.203 A 
ATOM     11  C   UNL d   1      50.977  32.652  53.005  0.00  0.00     0.127 A 
ATOM     12  C   UNL d   1      53.337  29.896  53.387  0.00  0.00     0.184 A 
ATOM     13  C   UNL d   1      53.571  29.064  53.358  0.00  0.00     0.044 C 
ENDROOT
BRANCH   5  14
ATOM     14  C   UNL d   1      52.480  34.043  53.625  0.00  0.00     0.085 A 
ATOM     15  C   UNL d   1      52.581  34.242  54.405  0.00  0.00     0.019 A 
ATOM     16  C   UNL d   1      52.963  34.953  54.605  0.00  0.00     0.002 A 
ATOM     17  C   UNL d   1      53.077  35.176  55.431  0.00  0.00     0.000 C 
ATOM     18  C   UNL d   1      53.240  35.460  54.007  0.00  0.00     0.000 A 
ATOM     19  C   UNL d   1      53.128  35.242  53.213  0.00  0.00     0.002 A 
ATOM     20  C   UNL d   1      53.633  36.194  54.200  0.00  0.00     0.000 C 
ATOM     21  C   UNL d   1      52.751  34.540  53.024  0.00  0.00     0.019 A 
ENDBRANCH   5  14
TORSDOF 1
ENDMDL
