MODEL 1
REMARK VINA RESULT:      52.8      0.000      0.000
REMARK  4 active torsions:
REMARK  status: ('A' for Active; 'I' for Inactive)
REMARK    1  A    between atoms: C_2  and  C_1 
REMARK    2  A    between atoms: C_15  and  C_8 
REMARK    3  A    between atoms: C_9  and  C_15 
REMARK    4  A    between atoms: C_18  and  C_10 
ROOT
ATOM      1  C   UNL d   1      14.712  13.118  -1.080  0.00  0.00     0.094 A 
ATOM      2  N   UNL d   1      14.188  12.975  -1.701  0.00  0.00    -0.238 NA
ATOM      3  C   UNL d   1      14.023  12.166  -1.715  0.00  0.00     0.113 A 
ATOM      4  S   UNL d   1      14.441  11.807  -1.108  0.00  0.00    -0.066 SA
ATOM      5  C   UNL d   1      14.868  12.393  -0.712  0.00  0.00     0.056 A 
ENDROOT
BRANCH   3   6
ATOM      6  C   UNL d   1      13.522  11.786  -2.252  0.00  0.00     0.051 C 
BRANCH   6   7
ATOM      7  C   UNL d   1      13.344  12.150  -2.972  0.00  0.00     0.113 A 
ATOM      8  N   UNL d   1      13.534  12.922  -3.190  0.00  0.00    -0.238 NA
ATOM      9  C   UNL d   1      13.251  13.050  -3.953  0.00  0.00     0.088 A 
ATOM     10  C   UNL d   1      12.885  12.356  -4.208  0.00  0.00     0.056 A 
ATOM     11  S   UNL d   1      12.942  11.801  -3.603  0.00  0.00    -0.066 SA
BRANCH   9  12
ATOM     12  C   UNL d   1      13.324  13.753  -4.384  0.00  0.00     0.018 A 
ATOM     13  C   UNL d   1      13.567  13.735  -5.162  0.00  0.00     0.002 A 
ATOM     14  C   UNL d   1      13.639  14.437  -5.588  0.00  0.00     0.007 A 
ATOM     15  C   UNL d   1      13.464  15.159  -5.227  0.00  0.00     0.035 A 
ATOM     16  C   UNL d   1      13.221  15.177  -4.449  0.00  0.00     0.007 A 
ATOM     17 BR   UNL d   1      13.536  15.861  -5.654  0.00  0.00    -0.049 Br
ATOM     18  C   UNL d   1      13.148  14.474  -4.019  0.00  0.00     0.002 A 
ENDBRANCH   9  12
ENDBRANCH   6   7
ENDBRANCH   3   6
BRANCH   1  19
ATOM     19  C   UNL d   1      15.024  13.850  -0.864  0.00  0.00     0.082 A 
ATOM     20  C   UNL d   1      15.653  13.890  -0.331  0.00  0.00     0.302 A 
ATOM     21  O   UNL d   1      15.965  14.622  -0.115  0.00  0.00    -0.273 OA
ATOM     22  O   UNL d   1      15.970  13.197  -0.015  0.00  0.00    -0.259 OA
ATOM     23  C   UNL d   1      15.648  15.315  -0.432  0.00  0.00     0.103 A 
ATOM     24  C   UNL d   1      15.018  15.275  -0.965  0.00  0.00     0.023 A 
ATOM     25  C   UNL d   1      15.959  16.047  -0.216  0.00  0.00     0.025 A 
ATOM     26  C   UNL d   1      14.707  14.542  -1.180  0.00  0.00     0.009 A 
ATOM     27  C   UNL d   1      14.702  15.967  -1.281  0.00  0.00     0.002 A 
ATOM     28  C   UNL d   1      15.013  16.696  -1.065  0.00  0.00     0.000 A 
ATOM     29  C   UNL d   1      15.643  16.736  -0.532  0.00  0.00     0.002 A 
ENDBRANCH   1  19
TORSDOF 4
ENDMDL
MODEL 2
REMARK VINA RESULT:      54.1      1.614      2.586
REMARK  4 active torsions:
REMARK  status: ('A' for Active; 'I' for Inactive)
REMARK    1  A    between atoms: C_2  and  C_1 
REMARK    2  A    between atoms: C_15  and  C_8 
REMARK    3  A    between atoms: C_9  and  C_15 
REMARK    4  A    between atoms: C_18  and  C_10 
ROOT
ATOM      1  C   UNL d   1      14.924  15.164  -0.994  0.00  0.00     0.094 A 
ATOM      2  N   UNL d   1      15.053  14.405  -1.291  0.00  0.00    -0.238 NA
ATOM      3  C   UNL d   1      14.904  13.865  -0.685  0.00  0.00     0.113 A 
ATOM      4  S   UNL d   1      14.685  14.283  -0.014  0.00  0.00    -0.066 SA
ATOM      5  C   UNL d   1      14.696  15.087  -0.202  0.00  0.00     0.056 A 
ENDROOT
BRANCH   3   6
ATOM      6  C   UNL d   1      14.967  13.042  -0.746  0.00  0.00     0.051 C 
BRANCH   6   7
ATOM      7  C   UNL d   1      14.492  12.636  -1.287  0.00  0.00     0.113 A 
ATOM      8  N   UNL d   1      14.457  12.765  -2.100  0.00  0.00    -0.238 NA
ATOM      9  C   UNL d   1      13.912  12.237  -2.420  0.00  0.00     0.088 A 
ATOM     10  C   UNL d   1      13.609  11.780  -1.803  0.00  0.00     0.056 A 
ATOM     11  S   UNL d   1      13.967  12.026  -1.105  0.00  0.00    -0.066 SA
BRANCH   9  12
ATOM     12  C   UNL d   1      13.707  12.179  -3.220  0.00  0.00     0.018 A 
ATOM     13  C   UNL d   1      14.223  11.838  -3.752  0.00  0.00     0.002 A 
ATOM     14  C   UNL d   1      14.016  11.782  -4.548  0.00  0.00     0.007 A 
ATOM     15  C   UNL d   1      13.287  12.070  -4.807  0.00  0.00     0.035 A 
ATOM     16  C   UNL d   1      12.772  12.411  -4.275  0.00  0.00     0.007 A 
ATOM     17 BR   UNL d   1      13.081  12.014  -5.603  0.00  0.00    -0.049 Br
ATOM     18  C   UNL d   1      12.976  12.469  -3.475  0.00  0.00     0.002 A 
ENDBRANCH   9  12
ENDBRANCH   6   7
ENDBRANCH   3   6
BRANCH   1  19
ATOM     19  C   UNL d   1      15.008  15.870  -1.411  0.00  0.00     0.082 A 
ATOM     20  C   UNL d   1      15.218  16.562  -1.012  0.00  0.00     0.302 A 
ATOM     21  O   UNL d   1      15.301  17.269  -1.428  0.00  0.00    -0.273 OA
ATOM     22  O   UNL d   1      15.344  16.546  -0.197  0.00  0.00    -0.259 OA
ATOM     23  C   UNL d   1      15.176  17.285  -2.244  0.00  0.00     0.103 A 
ATOM     24  C   UNL d   1      14.965  16.593  -2.642  0.00  0.00     0.023 A 
ATOM     25  C   UNL d   1      15.259  17.992  -2.660  0.00  0.00     0.025 A 
ATOM     26  C   UNL d   1      14.882  15.886  -2.225  0.00  0.00     0.009 A 
ATOM     27  C   UNL d   1      14.840  16.609  -3.457  0.00  0.00     0.002 A 
ATOM     28  C   UNL d   1      14.923  17.314  -3.870  0.00  0.00     0.000 A 
ATOM     29  C   UNL d   1      15.133  18.006  -3.471  0.00  0.00     0.002 A 
ENDBRANCH   1  19
TORSDOF 4
ENDMDL
