MODEL 1
REMARK VINA RESULT:      52.8      0.000      0.000
REMARK  4 active torsions:
REMARK  status: ('A' for Active; 'I' for Inactive)
REMARK    1  A    between atoms: C_5  and  C_1 
REMARK    2  A    between atoms: O_9  and  C_5 
REMARK    3  A    between atoms: C_18  and  O_9 
REMARK       I    between atoms: C_11  and  N_14 
REMARK    4  A    between atoms: N_14  and  C_20 
ROOT
ATOM      1  C   UNL d   1     -51.035  26.118  33.341  0.00  0.00     0.127 A 
ATOM      2  C   UNL d   1     -50.547  25.459  33.336  0.00  0.00     0.305 A 
ATOM      3  O   UNL d   1     -50.882  24.706  33.328  0.00  0.00    -0.272 OA
ATOM      4  C   UNL d   1     -51.863  26.036  33.338  0.00  0.00     0.013 A 
ATOM      5  C   UNL d   1     -52.193  25.278  33.330  0.00  0.00     0.024 A 
ATOM      6  C   UNL d   1     -51.709  24.610  33.324  0.00  0.00     0.110 A 
ATOM      7  C   UNL d   1     -52.035  23.852  33.316  0.00  0.00     0.058 A 
ATOM      8  C   UNL d   1     -52.854  23.761  33.313  0.00  0.00     0.015 A 
ATOM      9  C   UNL d   1     -53.018  25.180  33.326  0.00  0.00     0.009 A 
ATOM     10  O   UNL d   1     -49.729  25.553  33.340  0.00  0.00    -0.259 OA
ATOM     11  C   UNL d   1     -53.348  24.427  33.318  0.00  0.00     0.035 A 
ATOM     12 BR   UNL d   1     -51.545  23.191  33.311  0.00  0.00    -0.047 Br
ATOM     13 BR   UNL d   1     -54.166  24.337  33.315  0.00  0.00    -0.049 Br
ENDROOT
BRANCH   1  14
ATOM     14  C   UNL d   1     -50.710  26.877  33.349  0.00  0.00     0.305 C 
ATOM     15  O   UNL d   1     -51.210  27.529  33.377  0.00  0.00    -0.259 OA
BRANCH  14  16
ATOM     16  O   UNL d   1     -49.891  26.987  33.331  0.00  0.00    -0.273 OA
BRANCH  16  17
ATOM     17  C   UNL d   1     -49.536  27.545  33.818  0.00  0.00     0.103 A 
ATOM     18  C   UNL d   1     -49.461  28.326  33.568  0.00  0.00     0.026 A 
ATOM     19  C   UNL d   1     -49.109  28.886  34.048  0.00  0.00     0.021 A 
ATOM     20  C   UNL d   1     -48.824  28.672  34.792  0.00  0.00     0.085 A 
ATOM     21  C   UNL d   1     -48.894  27.889  35.054  0.00  0.00     0.021 A 
ATOM     22  C   UNL d   1     -49.254  27.321  34.561  0.00  0.00     0.026 A 
BRANCH  20  23
ATOM     23  N   UNL d   1     -48.467  29.231  35.284  0.00  0.00    -0.208 NA
ATOM     24  C   UNL d   1     -47.641  29.297  35.293  0.00  0.00     0.279 C 
ATOM     25  O   UNL d   1     -47.176  28.807  34.812  0.00  0.00    -0.265 OA
ATOM     26  C   UNL d   1     -47.275  29.856  35.785  0.00  0.00     0.068 C 
ENDBRANCH  20  23
ENDBRANCH  16  17
ENDBRANCH  14  16
ENDBRANCH   1  14
TORSDOF 4
ENDMDL
