MODEL 1
REMARK VINA RESULT:      51.4      0.000      0.000
REMARK  5 active torsions:
REMARK  status: ('A' for Active; 'I' for Inactive)
REMARK    1  A    between atoms: C_5  and  N_1 
REMARK    2  A    between atoms: C_2  and  N_3 
REMARK    3  A    between atoms: C_7  and  C_2 
REMARK    4  A    between atoms: N_4  and  C_8 
REMARK    5  A    between atoms: N_16  and  C_11 
ROOT
ATOM      1  N   UNL d   1      13.244  13.139  -4.059  0.00  0.00    -0.293 N 
ATOM      2  N   UNL d   1      13.396  14.615  -4.767  0.00  0.00    -0.301 N 
ATOM      3  C   UNL d   1      12.920  13.810  -3.689  0.00  0.00     0.100 A 
ATOM      4  C   UNL d   1      13.636  13.204  -4.769  0.00  0.00     0.100 A 
ATOM      5  C   UNL d   1      13.716  13.947  -5.132  0.00  0.00     0.100 A 
ATOM      6  C   UNL d   1      12.996  14.539  -4.040  0.00  0.00     0.100 A 
ENDROOT
BRANCH   1   7
ATOM      7  C   UNL d   1      13.163  12.399  -3.697  0.00  0.00     0.120 C 
ATOM      8  S   UNL d   1      12.770  11.784  -4.086  0.00  0.00    -0.059 SA
BRANCH   7   9
ATOM      9  C   UNL d   1      13.477  12.277  -2.946  0.00  0.00     0.027 A 
ATOM     10  C   UNL d   1      13.031  11.902  -2.367  0.00  0.00     0.004 A 
ATOM     11  C   UNL d   1      13.345  11.779  -1.614  0.00  0.00     0.018 A 
ATOM     12  C   UNL d   1      14.117  12.040  -1.447  0.00  0.00     0.064 A 
ATOM     13  C   UNL d   1      14.559  12.416  -2.032  0.00  0.00     0.018 A 
ATOM     14  C   UNL d   1      14.243  12.535  -2.779  0.00  0.00     0.004 A 
BRANCH  12  15
ATOM     15  N   UNL d   1      14.430  11.916  -0.693  0.00  0.00    -0.301 N 
ATOM     16  C   UNL d   1      13.917  11.798  -0.054  0.00  0.00     0.100 C 
ATOM     17  C   UNL d   1      15.248  11.911  -0.579  0.00  0.00     0.100 C 
ENDBRANCH  12  15
ENDBRANCH   7   9
ENDBRANCH   1   7
BRANCH   2  18
ATOM     18  C   UNL d   1      13.474  15.355  -5.125  0.00  0.00     0.064 A 
ATOM     19  C   UNL d   1      14.107  15.833  -4.930  0.00  0.00     0.019 A 
ATOM     20  C   UNL d   1      14.185  16.573  -5.288  0.00  0.00     0.025 A 
ATOM     21  C   UNL d   1      13.625  16.825  -5.838  0.00  0.00     0.127 A 
ATOM     22  C   UNL d   1      12.984  16.341  -6.034  0.00  0.00     0.025 A 
ATOM     23  C   UNL d   1      12.912  15.608  -5.676  0.00  0.00     0.019 A 
BRANCH  21  24
ATOM     24  N   UNL d   1      13.702  17.563  -6.195  0.00  0.00    -0.114 N 
ATOM     25  O   UNL d   1      14.454  17.867  -6.361  0.00  0.00    -0.532 OA
ATOM     26  O   UNL d   1      13.034  18.005  -6.388  0.00  0.00    -0.532 OA
ENDBRANCH  21  24
ENDBRANCH   2  18
TORSDOF 5
ENDMDL
