MODEL 1
REMARK VINA RESULT:      17.8      0.000      0.000
REMARK  3 active torsions:
REMARK  status: ('A' for Active; 'I' for Inactive)
REMARK       I    between atoms: C_2  and  N_1 
REMARK    1  A    between atoms: C_5  and  C_2 
REMARK    2  A    between atoms: S_8  and  C_3 
REMARK    3  A    between atoms: O_13  and  C_11 
ROOT
ATOM      1  N   UNL d   1      57.445  49.694  50.475  0.00  0.00    -0.251 N 
ATOM      2  C   UNL d   1      58.194  49.699  50.142  0.00  0.00     0.266 C 
ATOM      3  C   UNL d   1      56.729  49.693  50.066  0.00  0.00     0.178 A 
ATOM      4  N   UNL d   1      56.128  49.688  50.619  0.00  0.00    -0.219 NA
ATOM      5  O   UNL d   1      58.285  49.703  49.323  0.00  0.00    -0.267 OA
ATOM      6  C   UNL d   1      57.278  49.690  51.286  0.00  0.00     0.106 A 
ATOM      7  C   UNL d   1      56.457  49.686  51.370  0.00  0.00     0.120 A 
ENDROOT
BRANCH   2   8
ATOM      8  C   UNL d   1      58.862  49.700  50.627  0.00  0.00     0.059 A 
ATOM      9  C   UNL d   1      59.612  49.694  50.285  0.00  0.00     0.029 A 
ATOM     10  C   UNL d   1      60.263  49.695  50.768  0.00  0.00     0.094 A 
ATOM     11  C   UNL d   1      60.178  49.702  51.597  0.00  0.00     0.024 A 
ATOM     12  C   UNL d   1      59.446  49.708  51.929  0.00  0.00     0.002 A 
ATOM     13  C   UNL d   1      58.773  49.707  51.443  0.00  0.00     0.005 A 
BRANCH  10  14
ATOM     14  O   UNL d   1      61.017  49.689  50.434  0.00  0.00    -0.328 OA
ATOM     15  C   UNL d   1      61.563  49.112  50.645  0.00  0.00     0.181 C 
ENDBRANCH  10  14
ENDBRANCH   2   8
BRANCH   3  16
ATOM     16  S   UNL d   1      56.648  49.696  49.252  0.00  0.00    -0.076 SA
ATOM     17  C   UNL d   1      56.041  49.270  48.890  0.00  0.00     0.077 C 
ENDBRANCH   3  16
TORSDOF 3
ENDMDL
