MODEL 1
REMARK VINA RESULT:      23.6      0.000      0.000
REMARK  4 active torsions:
REMARK  status: ('A' for Active; 'I' for Inactive)
REMARK    1  A    between atoms: C_8  and  N_1 
REMARK    2  A    between atoms: C_7  and  C_2 
REMARK    3  A    between atoms: C_9  and  C_7 
REMARK    4  A    between atoms: C_17  and  C_8 
ROOT
ATOM      1  N   UNL d   1      46.034 -16.271  44.010  0.00  0.00    -0.224 N 
ATOM      2  C   UNL d   1      45.329 -15.033  44.010  0.00  0.00     0.117 A 
ATOM      3  C   UNL d   1      45.915 -15.522  43.690  0.00  0.00     0.273 A 
ATOM      4  C   UNL d   1      45.582 -16.529  44.634  0.00  0.00     0.359 A 
ATOM      5  N   UNL d   1      45.005 -16.041  44.944  0.00  0.00    -0.153 NA
ATOM      6  C   UNL d   1      44.876 -15.291  44.633  0.00  0.00     0.288 A 
ATOM      7  O   UNL d   1      45.697 -17.273  44.954  0.00  0.00    -0.244 OA
ATOM      8  O   UNL d   1      46.369 -15.263  43.065  0.00  0.00    -0.266 OA
ATOM      9  O   UNL d   1      44.294 -14.811  44.954  0.00  0.00    -0.265 OA
ENDROOT
BRANCH   1  10
ATOM     10  C   UNL d   1      46.619 -16.758  43.690  0.00  0.00     0.087 C 
BRANCH  10  11
ATOM     11  C   UNL d   1      46.404 -17.479  43.348  0.00  0.00     0.018 A 
ATOM     12  C   UNL d   1      46.290 -18.135  43.812  0.00  0.00     0.002 A 
ATOM     13  C   UNL d   1      46.075 -18.856  43.470  0.00  0.00     0.000 A 
ATOM     14  C   UNL d   1      45.977 -18.902  42.650  0.00  0.00     0.000 A 
ATOM     15  C   UNL d   1      46.092 -18.246  42.186  0.00  0.00     0.000 A 
ATOM     16  C   UNL d   1      46.307 -17.525  42.529  0.00  0.00     0.002 A 
ENDBRANCH  10  11
ENDBRANCH   1  10
BRANCH   2  17
ATOM     17  C   UNL d   1      45.202 -14.272  43.690  0.00  0.00     0.034 C 
BRANCH  17  18
ATOM     18  C   UNL d   1      45.505 -13.616  44.068  0.00  0.00     0.100 A 
ATOM     19  O   UNL d   1      45.934 -13.522  44.766  0.00  0.00    -0.305 OA
ATOM     20  C   UNL d   1      46.083 -12.737  44.861  0.00  0.00     0.123 A 
ATOM     21  C   UNL d   1      45.763 -12.323  44.245  0.00  0.00     0.029 A 
ATOM     22  C   UNL d   1      45.402 -12.864  43.746  0.00  0.00     0.027 A 
ENDBRANCH  17  18
ENDBRANCH   2  17
TORSDOF 4
ENDMDL
MODEL 2
REMARK VINA RESULT:      23.9      1.657      4.366
REMARK  4 active torsions:
REMARK  status: ('A' for Active; 'I' for Inactive)
REMARK    1  A    between atoms: C_8  and  N_1 
REMARK    2  A    between atoms: C_7  and  C_2 
REMARK    3  A    between atoms: C_9  and  C_7 
REMARK    4  A    between atoms: C_17  and  C_8 
ROOT
ATOM      1  N   UNL d   1      45.288 -12.902  44.033  0.00  0.00    -0.224 N 
ATOM      2  C   UNL d   1      45.363 -14.231  44.541  0.00  0.00     0.117 A 
ATOM      3  C   UNL d   1      44.913 -13.606  44.237  0.00  0.00     0.273 A 
ATOM      4  C   UNL d   1      46.090 -12.820  44.128  0.00  0.00     0.359 A 
ATOM      5  N   UNL d   1      46.527 -13.442  44.428  0.00  0.00    -0.153 NA
ATOM      6  C   UNL d   1      46.165 -14.149  44.636  0.00  0.00     0.288 A 
ATOM      7  O   UNL d   1      46.466 -12.122  43.926  0.00  0.00    -0.244 OA
ATOM      8  O   UNL d   1      44.108 -13.688  44.142  0.00  0.00    -0.266 OA
ATOM      9  O   UNL d   1      46.615 -14.765  44.937  0.00  0.00    -0.265 OA
ENDROOT
BRANCH   1  10
ATOM     10  C   UNL d   1      44.838 -12.280  43.730  0.00  0.00     0.087 C 
BRANCH  10  11
ATOM     11  C   UNL d   1      44.735 -12.214  42.912  0.00  0.00     0.018 A 
ATOM     12  C   UNL d   1      45.379 -12.204  42.418  0.00  0.00     0.002 A 
ATOM     13  C   UNL d   1      45.278 -12.139  41.600  0.00  0.00     0.000 A 
ATOM     14  C   UNL d   1      44.513 -12.085  41.291  0.00  0.00     0.000 A 
ATOM     15  C   UNL d   1      43.868 -12.095  41.785  0.00  0.00     0.000 A 
ATOM     16  C   UNL d   1      43.971 -12.160  42.603  0.00  0.00     0.002 A 
ENDBRANCH  10  11
ENDBRANCH   1  10
BRANCH   2  17
ATOM     17  C   UNL d   1      44.989 -14.948  44.751  0.00  0.00     0.034 C 
BRANCH  17  18
ATOM     18  C   UNL d   1      45.232 -15.648  44.411  0.00  0.00     0.100 A 
ATOM     19  O   UNL d   1      45.128 -15.969  43.659  0.00  0.00    -0.305 OA
ATOM     20  C   UNL d   1      45.496 -16.685  43.642  0.00  0.00     0.123 A 
ATOM     21  C   UNL d   1      45.833 -16.833  44.362  0.00  0.00     0.029 A 
ATOM     22  C   UNL d   1      45.673 -16.192  44.846  0.00  0.00     0.027 A 
ENDBRANCH  17  18
ENDBRANCH   2  17
TORSDOF 4
ENDMDL
MODEL 3
REMARK VINA RESULT:      24.0      1.334      4.477
REMARK  4 active torsions:
REMARK  status: ('A' for Active; 'I' for Inactive)
REMARK    1  A    between atoms: C_8  and  N_1 
REMARK    2  A    between atoms: C_7  and  C_2 
REMARK    3  A    between atoms: C_9  and  C_7 
REMARK    4  A    between atoms: C_17  and  C_8 
ROOT
ATOM      1  N   UNL d   1      45.583 -16.689  44.152  0.00  0.00    -0.224 N 
ATOM      2  C   UNL d   1      46.197 -17.824  43.547  0.00  0.00     0.117 A 
ATOM      3  C   UNL d   1      46.026 -17.379  44.224  0.00  0.00     0.273 A 
ATOM      4  C   UNL d   1      45.315 -16.446  43.425  0.00  0.00     0.359 A 
ATOM      5  N   UNL d   1      45.489 -16.891  42.761  0.00  0.00    -0.153 NA
ATOM      6  C   UNL d   1      45.930 -17.581  42.820  0.00  0.00     0.288 A 
ATOM      7  O   UNL d   1      44.875 -15.761  43.348  0.00  0.00    -0.244 OA
ATOM      8  O   UNL d   1      46.294 -17.622  44.954  0.00  0.00    -0.266 OA
ATOM      9  O   UNL d   1      46.096 -18.017  42.147  0.00  0.00    -0.265 OA
ENDROOT
BRANCH   1  10
ATOM     10  C   UNL d   1      45.413 -16.246  44.827  0.00  0.00     0.087 C 
BRANCH  10  11
ATOM     11  C   UNL d   1      45.555 -15.432  44.825  0.00  0.00     0.018 A 
ATOM     12  C   UNL d   1      46.315 -15.149  44.789  0.00  0.00     0.002 A 
ATOM     13  C   UNL d   1      46.458 -14.335  44.787  0.00  0.00     0.000 A 
ATOM     14  C   UNL d   1      45.818 -13.811  44.820  0.00  0.00     0.000 A 
ATOM     15  C   UNL d   1      45.058 -14.094  44.856  0.00  0.00     0.000 A 
ATOM     16  C   UNL d   1      44.916 -14.909  44.859  0.00  0.00     0.002 A 
ENDBRANCH  10  11
ENDBRANCH   1  10
BRANCH   2  17
ATOM     17  C   UNL d   1      46.647 -18.525  43.614  0.00  0.00     0.034 C 
BRANCH  17  18
ATOM     18  C   UNL d   1      46.278 -19.229  43.795  0.00  0.00     0.100 A 
ATOM     19  O   UNL d   1      45.713 -19.682  43.401  0.00  0.00    -0.305 OA
ATOM     20  C   UNL d   1      45.556 -20.329  43.852  0.00  0.00     0.123 A 
ATOM     21  C   UNL d   1      46.003 -20.307  44.525  0.00  0.00     0.029 A 
ATOM     22  C   UNL d   1      46.456 -19.624  44.497  0.00  0.00     0.027 A 
ENDBRANCH  17  18
ENDBRANCH   2  17
TORSDOF 4
ENDMDL
