MODEL 1
REMARK VINA RESULT:      -6.8      0.000      0.000
REMARK  6 active torsions:
REMARK  status: ('A' for Active; 'I' for Inactive)
REMARK    1  A    between atoms: C_5  and  C_1 
REMARK       I    between atoms: N_10  and  C_5 
REMARK    2  A    between atoms: C_9  and  C_6 
REMARK    3  A    between atoms: C_17  and  N_7 
REMARK    4  A    between atoms: O_23  and  C_8 
REMARK    5  A    between atoms: O_25  and  C_12 
REMARK    6  A    between atoms: C_18  and  C_17 
ROOT
ATOM      1  C   UNL d   1     -43.661  12.719  21.835  0.00  0.00     0.316 C 
ATOM      2  N   UNL d   1     -41.982  13.660  21.019  0.00  0.00    -0.143 NA
ATOM      3  N   UNL d   1     -43.123  13.698  21.438  0.00  0.00    -0.104 NA
ATOM      4  O   UNL d   1     -43.262  12.005  21.827  0.00  0.00    -0.262 OA
ENDROOT
BRANCH   1   5
ATOM      5  C   UNL d   1     -44.433  12.763  22.115  0.00  0.00     0.164 A 
ATOM      6  C   UNL d   1     -44.946  13.322  21.823  0.00  0.00     0.047 A 
ATOM      7  C   UNL d   1     -45.965  12.838  22.683  0.00  0.00     0.105 A 
ATOM      8  N   UNL d   1     -45.443  12.274  22.976  0.00  0.00    -0.148 NA
ATOM      9  N   UNL d   1     -44.684  12.234  22.697  0.00  0.00    -0.143 NA
BRANCH   7  10
ATOM     10  C   UNL d   1     -46.747  13.035  22.830  0.00  0.00     0.019 A 
ATOM     11  C   UNL d   1     -46.991  13.807  22.807  0.00  0.00     0.002 A 
ATOM     12  C   UNL d   1     -47.769  14.006  22.952  0.00  0.00     0.011 A 
ATOM     13  C   UNL d   1     -48.306  13.412  23.124  0.00  0.00     0.058 A 
ATOM     14  C   UNL d   1     -48.070  12.634  23.150  0.00  0.00     0.011 A 
ATOM     15 CL   UNL d   1     -49.091  13.605  23.272  0.00  0.00    -0.082 Cl
ATOM     16  C   UNL d   1     -47.288  12.437  23.003  0.00  0.00     0.002 A 
ENDBRANCH   7  10
ENDBRANCH   1   5
BRANCH   2  17
ATOM     17  C   UNL d   1     -41.601  14.359  20.737  0.00  0.00     0.122 C 
BRANCH  17  18
ATOM     18  C   UNL d   1     -40.887  14.305  20.208  0.00  0.00     0.023 A 
ATOM     19  C   UNL d   1     -40.989  14.368  19.317  0.00  0.00     0.028 A 
ATOM     20  C   UNL d   1     -40.265  14.314  18.785  0.00  0.00     0.116 A 
ATOM     21  C   UNL d   1     -39.446  14.198  19.141  0.00  0.00     0.116 A 
ATOM     22  C   UNL d   1     -39.356  14.137  20.023  0.00  0.00     0.026 A 
ATOM     23  C   UNL d   1     -40.077  14.190  20.565  0.00  0.00     0.004 A 
BRANCH  20  24
ATOM     24  O   UNL d   1     -40.366  14.377  17.896  0.00  0.00    -0.326 OA
ATOM     25  C   UNL d   1     -40.918  14.986  17.554  0.00  0.00     0.181 C 
ENDBRANCH  20  24
BRANCH  21  26
ATOM     26  O   UNL d   1     -38.735  14.145  18.602  0.00  0.00    -0.326 OA
ATOM     27  C   UNL d   1     -37.941  13.932  18.949  0.00  0.00     0.181 C 
ENDBRANCH  21  26
ENDBRANCH  17  18
ENDBRANCH   2  17
TORSDOF 6
ENDMDL
MODEL 2
REMARK VINA RESULT:      -6.4      2.826      7.523
REMARK  6 active torsions:
REMARK  status: ('A' for Active; 'I' for Inactive)
REMARK    1  A    between atoms: C_5  and  C_1 
REMARK       I    between atoms: N_10  and  C_5 
REMARK    2  A    between atoms: C_9  and  C_6 
REMARK    3  A    between atoms: C_17  and  N_7 
REMARK    4  A    between atoms: O_23  and  C_8 
REMARK    5  A    between atoms: O_25  and  C_12 
REMARK    6  A    between atoms: C_18  and  C_17 
ROOT
ATOM      1  C   UNL d   1     -43.179  12.992  21.478  0.00  0.00     0.316 C 
ATOM      2  N   UNL d   1     -45.079  13.218  22.321  0.00  0.00    -0.143 NA
ATOM      3  N   UNL d   1     -44.088  13.685  21.792  0.00  0.00    -0.104 NA
ATOM      4  O   UNL d   1     -43.215  12.187  21.617  0.00  0.00    -0.262 OA
ENDROOT
BRANCH   1   5
ATOM      5  C   UNL d   1     -42.517  13.325  21.121  0.00  0.00     0.164 A 
ATOM      6  C   UNL d   1     -42.423  13.291  20.314  0.00  0.00     0.047 A 
ATOM      7  C   UNL d   1     -41.195  13.992  20.426  0.00  0.00     0.105 A 
ATOM      8  N   UNL d   1     -41.294  14.023  21.243  0.00  0.00    -0.148 NA
ATOM      9  N   UNL d   1     -41.946  13.694  21.589  0.00  0.00    -0.143 NA
BRANCH   7  10
ATOM     10  C   UNL d   1     -40.623  14.256  19.901  0.00  0.00     0.019 A 
ATOM     11  C   UNL d   1     -39.914  14.538  20.170  0.00  0.00     0.002 A 
ATOM     12  C   UNL d   1     -39.343  14.802  19.651  0.00  0.00     0.011 A 
ATOM     13  C   UNL d   1     -39.495  14.779  18.846  0.00  0.00     0.058 A 
ATOM     14  C   UNL d   1     -40.206  14.497  18.567  0.00  0.00     0.011 A 
ATOM     15 CL   UNL d   1     -38.925  15.043  18.316  0.00  0.00    -0.082 Cl
ATOM     16  C   UNL d   1     -40.777  14.232  19.092  0.00  0.00     0.002 A 
ENDBRANCH   7  10
ENDBRANCH   1   5
BRANCH   2  17
ATOM     17  C   UNL d   1     -45.725  13.713  22.544  0.00  0.00     0.122 C 
BRANCH  17  18
ATOM     18  C   UNL d   1     -46.503  13.361  22.796  0.00  0.00     0.023 A 
ATOM     19  C   UNL d   1     -47.261  13.829  22.678  0.00  0.00     0.028 A 
ATOM     20  C   UNL d   1     -48.045  13.470  22.933  0.00  0.00     0.116 A 
ATOM     21  C   UNL d   1     -48.072  12.649  23.303  0.00  0.00     0.116 A 
ATOM     22  C   UNL d   1     -47.316  12.195  23.415  0.00  0.00     0.026 A 
ATOM     23  C   UNL d   1     -46.523  12.547  23.162  0.00  0.00     0.004 A 
BRANCH  20  24
ATOM     24  O   UNL d   1     -48.803  13.937  22.815  0.00  0.00    -0.326 OA
ATOM     25  C   UNL d   1     -48.762  14.802  22.606  0.00  0.00     0.181 C 
ENDBRANCH  20  24
BRANCH  21  26
ATOM     26  O   UNL d   1     -48.857  12.303  23.552  0.00  0.00    -0.326 OA
ATOM     27  C   UNL d   1     -48.920  11.425  23.698  0.00  0.00     0.181 C 
ENDBRANCH  21  26
ENDBRANCH  17  18
ENDBRANCH   2  17
TORSDOF 6
ENDMDL
