MODEL 1
REMARK VINA RESULT:      36.9      0.000      0.000
REMARK  1 active torsions:
REMARK  status: ('A' for Active; 'I' for Inactive)
REMARK    1  A    between atoms: C_13  and  N_5 
ROOT
ATOM      1  C   UNL d   1     -50.602  25.973  33.334  0.00  0.00     0.170 A 
ATOM      2  C   UNL d   1     -49.959  26.446  33.328  0.00  0.00     0.093 A 
ATOM      3  C   UNL d   1     -50.038  27.241  33.329  0.00  0.00     0.172 A 
ATOM      4  N   UNL d   1     -50.769  27.561  33.336  0.00  0.00    -0.190 N 
ATOM      5  N   UNL d   1     -50.517  25.172  33.332  0.00  0.00    -0.212 N 
ATOM      6  N   UNL d   1     -51.336  26.298  33.341  0.00  0.00    -0.205 NA
ATOM      7  N   UNL d   1     -49.389  27.712  33.324  0.00  0.00    -0.206 NA
ATOM      8  N   UNL d   1     -49.776  24.859  33.325  0.00  0.00    -0.162 NA
ATOM      9  N   UNL d   1     -50.851  28.354  33.338  0.00  0.00    -0.143 NA
ATOM     10  C   UNL d   1     -51.412  27.089  33.342  0.00  0.00     0.203 A 
ATOM     11  C   UNL d   1     -49.138  25.332  33.320  0.00  0.00     0.127 A 
ATOM     12  C   UNL d   1     -50.210  28.820  33.332  0.00  0.00     0.184 A 
ATOM     13  C   UNL d   1     -50.075  29.674  33.331  0.00  0.00     0.044 C 
ENDROOT
BRANCH   5  14
ATOM     14  C   UNL d   1     -51.180  24.690  33.338  0.00  0.00     0.085 A 
ATOM     15  C   UNL d   1     -51.920  25.022  33.323  0.00  0.00     0.019 A 
ATOM     16  C   UNL d   1     -52.593  24.533  33.329  0.00  0.00     0.002 A 
ATOM     17  C   UNL d   1     -53.386  24.872  33.314  0.00  0.00     0.000 C 
ATOM     18  C   UNL d   1     -52.507  23.706  33.350  0.00  0.00     0.000 A 
ATOM     19  C   UNL d   1     -51.742  23.383  33.365  0.00  0.00     0.002 A 
ATOM     20  C   UNL d   1     -53.191  23.193  33.357  0.00  0.00     0.000 C 
ATOM     21  C   UNL d   1     -51.084  23.871  33.359  0.00  0.00     0.019 A 
ENDBRANCH   5  14
TORSDOF 1
ENDMDL
