MODEL 1
REMARK VINA RESULT:      -7.3      0.000      0.000
REMARK  0 active torsions:
REMARK  status: ('A' for Active; 'I' for Inactive)
ROOT
ATOM      1  C   UNL d   1     -46.337  12.360  23.448  0.00  0.00     0.282 A 
ATOM      2  N   UNL d   1     -46.055  13.096  23.199  0.00  0.00    -0.189 NA
ATOM      3  N   UNL d   1     -47.398  13.521  22.950  0.00  0.00    -0.227 NA
ATOM      4  C   UNL d   1     -47.145  12.207  23.448  0.00  0.00     0.076 A 
ATOM      5  C   UNL d   1     -46.586  13.677  22.950  0.00  0.00     0.166 A 
ATOM      6  C   UNL d   1     -47.676  12.787  23.199  0.00  0.00     0.088 A 
ATOM      7  O   UNL d   1     -45.806  11.779  23.696  0.00  0.00    -0.265 OA
ATOM      8  C   UNL d   1     -47.424  11.473  23.696  0.00  0.00     0.006 A 
ATOM      9  C   UNL d   1     -46.301  14.417  22.700  0.00  0.00     0.042 C 
ATOM     10  C   UNL d   1     -48.485  12.634  23.199  0.00  0.00     0.019 A 
ATOM     11  C   UNL d   1     -48.238  11.314  23.697  0.00  0.00     0.000 A 
ATOM     12  C   UNL d   1     -48.769  11.895  23.449  0.00  0.00     0.002 A 
ENDROOT
TORSDOF 0
ENDMDL
MODEL 2
REMARK VINA RESULT:      -7.1      0.862      2.224
REMARK  0 active torsions:
REMARK  status: ('A' for Active; 'I' for Inactive)
ROOT
ATOM      1  C   UNL d   1     -46.606  12.319  23.436  0.00  0.00     0.282 A 
ATOM      2  N   UNL d   1     -47.192  11.761  23.609  0.00  0.00    -0.189 NA
ATOM      3  N   UNL d   1     -48.198  12.719  23.266  0.00  0.00    -0.227 NA
ATOM      4  C   UNL d   1     -46.817  13.071  23.180  0.00  0.00     0.076 A 
ATOM      5  C   UNL d   1     -47.988  11.961  23.524  0.00  0.00     0.166 A 
ATOM      6  C   UNL d   1     -47.613  13.272  23.095  0.00  0.00     0.088 A 
ATOM      7  O   UNL d   1     -45.810  12.118  23.521  0.00  0.00    -0.265 OA
ATOM      8  C   UNL d   1     -46.232  13.625  23.009  0.00  0.00     0.006 A 
ATOM      9  C   UNL d   1     -48.576  11.400  23.697  0.00  0.00     0.042 C 
ATOM     10  C   UNL d   1     -47.824  14.026  22.839  0.00  0.00     0.019 A 
ATOM     11  C   UNL d   1     -46.440  14.386  22.750  0.00  0.00     0.000 A 
ATOM     12  C   UNL d   1     -47.236  14.586  22.665  0.00  0.00     0.002 A 
ENDROOT
TORSDOF 0
ENDMDL
MODEL 3
REMARK VINA RESULT:      -6.8      1.431      2.387
REMARK  0 active torsions:
REMARK  status: ('A' for Active; 'I' for Inactive)
ROOT
ATOM      1  C   UNL d   1     -48.422  11.590  23.059  0.00  0.00     0.282 A 
ATOM      2  N   UNL d   1     -49.090  11.687  22.580  0.00  0.00    -0.189 NA
ATOM      3  N   UNL d   1     -48.538  12.903  22.065  0.00  0.00    -0.227 NA
ATOM      4  C   UNL d   1     -47.817  12.147  23.039  0.00  0.00     0.076 A 
ATOM      5  C   UNL d   1     -49.148  12.344  22.084  0.00  0.00     0.166 A 
ATOM      6  C   UNL d   1     -47.875  12.804  22.543  0.00  0.00     0.088 A 
ATOM      7  O   UNL d   1     -48.364  10.934  23.555  0.00  0.00    -0.265 OA
ATOM      8  C   UNL d   1     -47.153  12.049  23.516  0.00  0.00     0.006 A 
ATOM      9  C   UNL d   1     -49.819  12.440  21.603  0.00  0.00     0.042 C 
ATOM     10  C   UNL d   1     -47.269  13.362  22.523  0.00  0.00     0.019 A 
ATOM     11  C   UNL d   1     -46.541  12.609  23.500  0.00  0.00     0.000 A 
ATOM     12  C   UNL d   1     -46.599  13.265  23.003  0.00  0.00     0.002 A 
ENDROOT
TORSDOF 0
ENDMDL
MODEL 4
REMARK VINA RESULT:      -6.6      1.547      2.086
REMARK  0 active torsions:
REMARK  status: ('A' for Active; 'I' for Inactive)
ROOT
ATOM      1  C   UNL d   1     -48.422  11.707  23.239  0.00  0.00     0.282 A 
ATOM      2  N   UNL d   1     -47.646  11.879  23.468  0.00  0.00    -0.189 NA
ATOM      3  N   UNL d   1     -47.571  12.876  22.445  0.00  0.00    -0.227 NA
ATOM      4  C   UNL d   1     -48.769  12.118  22.617  0.00  0.00     0.076 A 
ATOM      5  C   UNL d   1     -47.221  12.463  23.071  0.00  0.00     0.166 A 
ATOM      6  C   UNL d   1     -48.344  12.702  22.220  0.00  0.00     0.088 A 
ATOM      7  O   UNL d   1     -48.847  11.122  23.637  0.00  0.00    -0.265 OA
ATOM      8  C   UNL d   1     -49.542  11.945  22.391  0.00  0.00     0.006 A 
ATOM      9  C   UNL d   1     -46.441  12.635  23.301  0.00  0.00     0.042 C 
ATOM     10  C   UNL d   1     -48.691  13.114  21.597  0.00  0.00     0.019 A 
ATOM     11  C   UNL d   1     -49.895  12.357  21.764  0.00  0.00     0.000 A 
ATOM     12  C   UNL d   1     -49.470  12.942  21.367  0.00  0.00     0.002 A 
ENDROOT
TORSDOF 0
ENDMDL
MODEL 5
REMARK VINA RESULT:      -6.4      1.545      2.101
REMARK  0 active torsions:
REMARK  status: ('A' for Active; 'I' for Inactive)
ROOT
ATOM      1  C   UNL d   1     -48.305  12.744  21.882  0.00  0.00     0.282 A 
ATOM      2  N   UNL d   1     -47.527  12.868  22.135  0.00  0.00    -0.189 NA
ATOM      3  N   UNL d   1     -47.865  12.331  23.418  0.00  0.00    -0.227 NA
ATOM      4  C   UNL d   1     -48.858  12.416  22.395  0.00  0.00     0.076 A 
ATOM      5  C   UNL d   1     -47.307  12.661  22.903  0.00  0.00     0.166 A 
ATOM      6  C   UNL d   1     -48.638  12.209  23.162  0.00  0.00     0.088 A 
ATOM      7  O   UNL d   1     -48.525  12.951  21.114  0.00  0.00    -0.265 OA
ATOM      8  C   UNL d   1     -49.632  12.294  22.141  0.00  0.00     0.006 A 
ATOM      9  C   UNL d   1     -46.526  12.786  23.156  0.00  0.00     0.042 C 
ATOM     10  C   UNL d   1     -49.192  11.880  23.676  0.00  0.00     0.019 A 
ATOM     11  C   UNL d   1     -50.192  11.963  22.655  0.00  0.00     0.000 A 
ATOM     12  C   UNL d   1     -49.972  11.756  23.423  0.00  0.00     0.002 A 
ENDROOT
TORSDOF 0
ENDMDL
MODEL 6
REMARK VINA RESULT:      -6.3      2.003      2.599
REMARK  0 active torsions:
REMARK  status: ('A' for Active; 'I' for Inactive)
ROOT
ATOM      1  C   UNL d   1     -48.192  13.206  21.891  0.00  0.00     0.282 A 
ATOM      2  N   UNL d   1     -47.415  13.170  22.171  0.00  0.00    -0.189 NA
ATOM      3  N   UNL d   1     -47.632  14.372  22.915  0.00  0.00    -0.227 NA
ATOM      4  C   UNL d   1     -48.685  13.823  22.123  0.00  0.00     0.076 A 
ATOM      5  C   UNL d   1     -47.135  13.753  22.683  0.00  0.00     0.166 A 
ATOM      6  C   UNL d   1     -48.405  14.406  22.634  0.00  0.00     0.088 A 
ATOM      7  O   UNL d   1     -48.472  12.623  21.379  0.00  0.00    -0.265 OA
ATOM      8  C   UNL d   1     -49.459  13.857  21.843  0.00  0.00     0.006 A 
ATOM      9  C   UNL d   1     -46.353  13.715  22.963  0.00  0.00     0.042 C 
ATOM     10  C   UNL d   1     -48.898  15.023  22.867  0.00  0.00     0.019 A 
ATOM     11  C   UNL d   1     -49.959  14.477  22.074  0.00  0.00     0.000 A 
ATOM     12  C   UNL d   1     -49.678  15.060  22.586  0.00  0.00     0.002 A 
ENDROOT
TORSDOF 0
ENDMDL
MODEL 7
REMARK VINA RESULT:      -6.1      2.522      3.028
REMARK  0 active torsions:
REMARK  status: ('A' for Active; 'I' for Inactive)
ROOT
ATOM      1  C   UNL d   1     -48.388  14.539  22.667  0.00  0.00     0.282 A 
ATOM      2  N   UNL d   1     -48.802  15.125  23.079  0.00  0.00    -0.189 NA
ATOM      3  N   UNL d   1     -50.036  14.588  22.594  0.00  0.00    -0.227 NA
ATOM      4  C   UNL d   1     -48.798  13.982  22.222  0.00  0.00     0.076 A 
ATOM      5  C   UNL d   1     -49.626  15.149  23.043  0.00  0.00     0.166 A 
ATOM      6  C   UNL d   1     -49.622  14.006  22.185  0.00  0.00     0.088 A 
ATOM      7  O   UNL d   1     -47.565  14.515  22.704  0.00  0.00    -0.265 OA
ATOM      8  C   UNL d   1     -48.385  13.399  21.812  0.00  0.00     0.006 A 
ATOM      9  C   UNL d   1     -50.040  15.738  23.457  0.00  0.00     0.042 C 
ATOM     10  C   UNL d   1     -50.032  13.448  21.739  0.00  0.00     0.019 A 
ATOM     11  C   UNL d   1     -48.794  12.835  21.362  0.00  0.00     0.000 A 
ATOM     12  C   UNL d   1     -49.618  12.860  21.325  0.00  0.00     0.002 A 
ENDROOT
TORSDOF 0
ENDMDL
MODEL 8
REMARK VINA RESULT:      -5.7      8.732      9.772
REMARK  0 active torsions:
REMARK  status: ('A' for Active; 'I' for Inactive)
ROOT
ATOM      1  C   UNL d   1     -40.535  14.281  17.958  0.00  0.00     0.282 A 
ATOM      2  N   UNL d   1     -41.032  14.878  17.676  0.00  0.00    -0.189 NA
ATOM      3  N   UNL d   1     -40.093  15.160  16.634  0.00  0.00    -0.227 NA
ATOM      4  C   UNL d   1     -39.822  14.125  17.579  0.00  0.00     0.076 A 
ATOM      5  C   UNL d   1     -40.811  15.318  17.014  0.00  0.00     0.166 A 
ATOM      6  C   UNL d   1     -39.601  14.564  16.917  0.00  0.00     0.088 A 
ATOM      7  O   UNL d   1     -40.756  13.841  18.620  0.00  0.00    -0.265 OA
ATOM      8  C   UNL d   1     -39.328  13.529  17.862  0.00  0.00     0.006 A 
ATOM      9  C   UNL d   1     -41.311  15.919  16.731  0.00  0.00     0.042 C 
ATOM     10  C   UNL d   1     -38.886  14.408  16.537  0.00  0.00     0.019 A 
ATOM     11  C   UNL d   1     -38.608  13.369  17.482  0.00  0.00     0.000 A 
ATOM     12  C   UNL d   1     -38.387  13.808  16.820  0.00  0.00     0.002 A 
ENDROOT
TORSDOF 0
ENDMDL
MODEL 9
REMARK VINA RESULT:      -5.6      2.167      3.093
REMARK  0 active torsions:
REMARK  status: ('A' for Active; 'I' for Inactive)
ROOT
ATOM      1  C   UNL d   1     -48.929  11.664  23.220  0.00  0.00     0.282 A 
ATOM      2  N   UNL d   1     -49.655  11.534  23.593  0.00  0.00    -0.189 NA
ATOM      3  N   UNL d   1     -50.281  12.441  22.679  0.00  0.00    -0.227 NA
ATOM      4  C   UNL d   1     -48.880  12.179  22.580  0.00  0.00     0.076 A 
ATOM      5  C   UNL d   1     -50.331  11.922  23.323  0.00  0.00     0.166 A 
ATOM      6  C   UNL d   1     -49.556  12.568  22.310  0.00  0.00     0.088 A 
ATOM      7  O   UNL d   1     -48.253  11.275  23.490  0.00  0.00    -0.265 OA
ATOM      8  C   UNL d   1     -48.156  12.307  22.210  0.00  0.00     0.006 A 
ATOM      9  C   UNL d   1     -51.061  11.791  23.698  0.00  0.00     0.042 C 
ATOM     10  C   UNL d   1     -49.508  13.084  21.670  0.00  0.00     0.019 A 
ATOM     11  C   UNL d   1     -48.103  12.826  21.565  0.00  0.00     0.000 A 
ATOM     12  C   UNL d   1     -48.779  13.215  21.295  0.00  0.00     0.002 A 
ENDROOT
TORSDOF 0
ENDMDL
