MODEL 1
REMARK VINA RESULT:      55.2      0.000      0.000
REMARK  6 active torsions:
REMARK  status: ('A' for Active; 'I' for Inactive)
REMARK    1  A    between atoms: N_5  and  C_1 
REMARK    2  A    between atoms: N_7  and  C_2 
REMARK    3  A    between atoms: C_8  and  N_3 
REMARK    4  A    between atoms: C_18  and  C_8 
REMARK    5  A    between atoms: C_14  and  N_9 
REMARK    6  A    between atoms: C_19  and  C_14 
ROOT
ATOM      1  C   UNL d   1      14.480  12.340  -1.728  0.00  0.00     0.242 A 
ATOM      2  C   UNL d   1      14.171  13.083  -1.910  0.00  0.00     0.175 A 
ATOM      3  N   UNL d   1      13.631  12.985  -2.541  0.00  0.00    -0.274 N 
ATOM      4  N   UNL d   1      14.135  11.779  -2.242  0.00  0.00    -0.203 NA
ATOM      5  C   UNL d   1      13.615  12.189  -2.737  0.00  0.00     0.151 A 
ATOM      6  C   UNL d   1      13.153  11.852  -3.332  0.00  0.00     0.041 C 
ENDROOT
BRANCH   2   7
ATOM      7  N   UNL d   1      14.455  13.703  -1.451  0.00  0.00    -0.285 N 
ATOM      8  C   UNL d   1      14.308  13.723  -0.637  0.00  0.00     0.101 A 
ATOM      9  C   UNL d   1      14.600  14.353  -0.184  0.00  0.00     0.100 A 
ATOM     10  N   UNL d   1      15.030  14.952  -0.538  0.00  0.00    -0.300 N 
ATOM     11  C   UNL d   1      15.177  14.931  -1.353  0.00  0.00     0.100 A 
ATOM     12  C   UNL d   1      14.891  14.312  -1.804  0.00  0.00     0.101 A 
BRANCH  10  13
ATOM     13  C   UNL d   1      15.321  15.582  -0.082  0.00  0.00     0.080 C 
BRANCH  13  14
ATOM     14  C   UNL d   1      15.399  16.327  -0.413  0.00  0.00     0.018 A 
ATOM     15  C   UNL d   1      15.881  16.893  -0.051  0.00  0.00     0.002 A 
ATOM     16  C   UNL d   1      15.963  17.643  -0.379  0.00  0.00     0.000 A 
ATOM     17  C   UNL d   1      15.558  17.831  -1.080  0.00  0.00     0.000 A 
ATOM     18  C   UNL d   1      15.076  17.264  -1.442  0.00  0.00     0.000 A 
ATOM     19  C   UNL d   1      14.999  16.509  -1.103  0.00  0.00     0.002 A 
ENDBRANCH  13  14
ENDBRANCH  10  13
ENDBRANCH   2   7
BRANCH   1  20
ATOM     20  N   UNL d   1      15.038  12.167  -1.137  0.00  0.00    -0.092 N 
ATOM     21  O   UNL d   1      15.839  12.170  -1.310  0.00  0.00    -0.530 OA
ATOM     22  O   UNL d   1      14.777  11.993  -0.372  0.00  0.00    -0.530 OA
ENDBRANCH   1  20
BRANCH   3  23
ATOM     23  C   UNL d   1      13.197  13.592  -2.895  0.00  0.00     0.083 C 
BRANCH  23  24
ATOM     24  C   UNL d   1      13.140  13.647  -3.715  0.00  0.00     0.018 A 
ATOM     25  C   UNL d   1      13.027  14.390  -4.066  0.00  0.00     0.002 A 
ATOM     26  C   UNL d   1      12.969  14.452  -4.891  0.00  0.00     0.000 A 
ATOM     27  C   UNL d   1      13.023  13.776  -5.354  0.00  0.00     0.000 A 
ATOM     28  C   UNL d   1      13.134  13.040  -5.008  0.00  0.00     0.000 A 
ATOM     29  C   UNL d   1      13.192  12.978  -4.183  0.00  0.00     0.002 A 
ENDBRANCH  23  24
ENDBRANCH   3  23
TORSDOF 6
ENDMDL
MODEL 2
REMARK VINA RESULT:      56.8      2.239      4.198
REMARK  6 active torsions:
REMARK  status: ('A' for Active; 'I' for Inactive)
REMARK    1  A    between atoms: N_5  and  C_1 
REMARK    2  A    between atoms: N_7  and  C_2 
REMARK    3  A    between atoms: C_8  and  N_3 
REMARK    4  A    between atoms: C_18  and  C_8 
REMARK    5  A    between atoms: C_14  and  N_9 
REMARK    6  A    between atoms: C_19  and  C_14 
ROOT
ATOM      1  C   UNL d   1      13.515  13.747  -5.226  0.00  0.00     0.242 A 
ATOM      2  C   UNL d   1      13.579  14.047  -4.460  0.00  0.00     0.175 A 
ATOM      3  N   UNL d   1      13.672  14.876  -4.520  0.00  0.00    -0.274 N 
ATOM      4  N   UNL d   1      13.568  14.383  -5.763  0.00  0.00    -0.203 NA
ATOM      5  C   UNL d   1      13.665  15.073  -5.316  0.00  0.00     0.151 A 
ATOM      6  C   UNL d   1      13.741  15.835  -5.621  0.00  0.00     0.041 C 
ENDROOT
BRANCH   2   7
ATOM      7  N   UNL d   1      13.537  13.488  -3.859  0.00  0.00    -0.285 N 
ATOM      8  C   UNL d   1      13.765  13.683  -3.088  0.00  0.00     0.101 A 
ATOM      9  C   UNL d   1      13.719  13.110  -2.490  0.00  0.00     0.100 A 
ATOM     10  N   UNL d   1      13.449  12.357  -2.660  0.00  0.00    -0.300 N 
ATOM     11  C   UNL d   1      13.220  12.163  -3.431  0.00  0.00     0.100 A 
ATOM     12  C   UNL d   1      13.264  12.724  -4.024  0.00  0.00     0.101 A 
BRANCH  10  13
ATOM     13  C   UNL d   1      13.403  11.786  -2.058  0.00  0.00     0.080 C 
BRANCH  13  14
ATOM     14  C   UNL d   1      13.941  11.797  -1.441  0.00  0.00     0.018 A 
ATOM     15  C   UNL d   1      14.753  11.779  -1.598  0.00  0.00     0.002 A 
ATOM     16  C   UNL d   1      15.297  11.790  -0.981  0.00  0.00     0.000 A 
ATOM     17  C   UNL d   1      15.028  11.820  -0.195  0.00  0.00     0.000 A 
ATOM     18  C   UNL d   1      14.216  11.838  -0.039  0.00  0.00     0.000 A 
ATOM     19  C   UNL d   1      13.673  11.826  -0.668  0.00  0.00     0.002 A 
ENDBRANCH  13  14
ENDBRANCH  10  13
ENDBRANCH   2   7
BRANCH   1  20
ATOM     20  N   UNL d   1      13.415  12.950  -5.437  0.00  0.00    -0.092 N 
ATOM     21  O   UNL d   1      12.779  12.521  -5.148  0.00  0.00    -0.530 OA
ATOM     22  O   UNL d   1      13.964  12.592  -5.943  0.00  0.00    -0.530 OA
ENDBRANCH   1  20
BRANCH   3  23
ATOM     23  C   UNL d   1      13.756  15.393  -3.882  0.00  0.00     0.083 C 
BRANCH  23  24
ATOM     24  C   UNL d   1      14.411  15.890  -3.825  0.00  0.00     0.018 A 
ATOM     25  C   UNL d   1      14.648  16.167  -3.081  0.00  0.00     0.002 A 
ATOM     26  C   UNL d   1      15.306  16.668  -3.017  0.00  0.00     0.000 A 
ATOM     27  C   UNL d   1      15.718  16.886  -3.693  0.00  0.00     0.000 A 
ATOM     28  C   UNL d   1      15.484  16.613  -4.431  0.00  0.00     0.000 A 
ATOM     29  C   UNL d   1      14.826  16.112  -4.494  0.00  0.00     0.002 A 
ENDBRANCH  23  24
ENDBRANCH   3  23
TORSDOF 6
ENDMDL
