MODEL 1
REMARK VINA RESULT:      21.7      0.000      0.000
REMARK  3 active torsions:
REMARK  status: ('A' for Active; 'I' for Inactive)
REMARK    1  A    between atoms: C_10  and  N_2 
REMARK       I    between atoms: N_3  and  C_6 
REMARK    2  A    between atoms: C_6  and  C_11 
REMARK    3  A    between atoms: C_11  and  C_10 
ROOT
ATOM      1  N   UNL d   1      46.070 -17.489  43.547  0.00  0.00    -0.275 N 
ATOM      2  C   UNL d   1      46.166 -17.163  42.796  0.00  0.00     0.067 A 
ATOM      3  C   UNL d   1      45.895 -17.077  44.235  0.00  0.00     0.266 C 
ATOM      4  C   UNL d   1      46.185 -18.305  43.475  0.00  0.00     0.067 A 
ATOM      5  C   UNL d   1      46.347 -18.476  42.695  0.00  0.00     0.018 A 
ATOM      6  C   UNL d   1      46.336 -17.765  42.268  0.00  0.00     0.019 A 
ATOM      7  O   UNL d   1      45.816 -17.485  44.949  0.00  0.00    -0.267 OA
ATOM      8  C   UNL d   1      46.099 -16.351  42.606  0.00  0.00     0.019 C 
ATOM      9  C   UNL d   1      46.159 -18.914  44.035  0.00  0.00     0.018 A 
ATOM     10  C   UNL d   1      46.487 -19.242  42.448  0.00  0.00     0.002 A 
ATOM     11  C   UNL d   1      46.297 -19.687  43.805  0.00  0.00     0.002 A 
ATOM     12  C   UNL d   1      46.463 -19.864  43.008  0.00  0.00     0.000 A 
ENDROOT
BRANCH   3  13
ATOM     13  C   UNL d   1      45.796 -16.259  44.220  0.00  0.00     0.080 C 
BRANCH  13  14
ATOM     14  C   UNL d   1      45.555 -15.854  44.893  0.00  0.00     0.088 C 
BRANCH  14  15
ATOM     15  N   UNL d   1      45.203 -15.113  44.829  0.00  0.00    -0.268 N 
ATOM     16  C   UNL d   1      44.397 -14.954  44.854  0.00  0.00     0.296 A 
ATOM     17  S   UNL d   1      44.312 -14.105  44.763  0.00  0.00    -0.025 SA
ATOM     18  O   UNL d   1      43.797 -15.513  44.948  0.00  0.00    -0.259 OA
ATOM     19  C   UNL d   1      45.039 -13.796  44.690  0.00  0.00     0.050 A 
ATOM     20  C   UNL d   1      45.278 -13.009  44.589  0.00  0.00     0.008 A 
ATOM     21  C   UNL d   1      45.604 -14.397  44.727  0.00  0.00     0.073 A 
ATOM     22  C   UNL d   1      46.085 -12.824  44.525  0.00  0.00     0.001 A 
ATOM     23  C   UNL d   1      46.640 -13.433  44.564  0.00  0.00     0.002 A 
ATOM     24  C   UNL d   1      46.398 -14.219  44.665  0.00  0.00     0.018 A 
ENDBRANCH  14  15
ENDBRANCH  13  14
ENDBRANCH   3  13
TORSDOF 3
ENDMDL
