MODEL 1
REMARK VINA RESULT:      -9.7      0.000      0.000
REMARK  3 active torsions:
REMARK  status: ('A' for Active; 'I' for Inactive)
REMARK    1  A    between atoms: N_7  and  C_1 
REMARK       I    between atoms: C_11  and  N_6 
REMARK       I    between atoms: C_10  and  N_7 
REMARK    2  A    between atoms: C_17  and  C_10 
REMARK    3  A    between atoms: C_14  and  C_17 
ROOT
ATOM      1  C   UNL d   1      53.362  33.154  53.359  0.00  0.00     0.124 A 
ATOM      2  C   UNL d   1      53.714  32.887  54.054  0.00  0.00     0.093 A 
ATOM      3  C   UNL d   1      53.221  31.819  53.423  0.00  0.00     0.049 A 
ATOM      4  C   UNL d   1      53.627  32.064  54.095  0.00  0.00     0.021 A 
ATOM      5  S   UNL d   1      53.051  32.493  52.958  0.00  0.00    -0.066 SA
ATOM      6  N   UNL d   1      53.291  30.461  53.873  0.00  0.00    -0.272 N 
ATOM      7  C   UNL d   1      53.051  31.021  53.309  0.00  0.00     0.089 A 
ATOM      8  C   UNL d   1      54.089  33.362  54.614  0.00  0.00     0.103 C 
ATOM      9  C   UNL d   1      53.121  29.656  53.761  0.00  0.00     0.265 C 
ATOM     10  N   UNL d   1      54.465  33.840  55.174  0.00  0.00    -0.191 NA
ATOM     11  C   UNL d   1      53.868  31.513  54.658  0.00  0.00     0.020 A 
ATOM     12  C   UNL d   1      53.699  30.708  54.547  0.00  0.00     0.083 A 
ATOM     13  O   UNL d   1      52.713  29.409  53.086  0.00  0.00    -0.267 OA
ATOM     14  C   UNL d   1      53.361  29.097  54.324  0.00  0.00     0.066 C 
ENDROOT
BRANCH   1  15
ATOM     15  N   UNL d   1      53.317  33.927  53.094  0.00  0.00    -0.201 NA
ATOM     16  C   UNL d   1      52.583  34.246  52.910  0.00  0.00     0.280 C 
ATOM     17  O   UNL d   1      52.533  35.035  52.639  0.00  0.00    -0.265 OA
BRANCH  16  18
ATOM     18  C   UNL d   1      51.894  33.805  52.986  0.00  0.00     0.062 C 
BRANCH  18  19
ATOM     19  C   UNL d   1      51.201  34.036  52.605  0.00  0.00     0.005 A 
ATOM     20  C   UNL d   1      50.497  34.133  53.041  0.00  0.00     0.000 A 
ATOM     21  C   UNL d   1      49.806  34.365  52.647  0.00  0.00     0.000 A 
ATOM     22  C   UNL d   1      50.501  33.997  53.854  0.00  0.00     0.000 C 
ATOM     23  C   UNL d   1      49.803  34.500  51.838  0.00  0.00     0.000 A 
ATOM     24  C   UNL d   1      50.501  34.403  51.406  0.00  0.00     0.000 A 
ATOM     25  C   UNL d   1      49.117  34.730  51.452  0.00  0.00     0.000 C 
ATOM     26  C   UNL d   1      51.201  34.172  51.784  0.00  0.00     0.000 A 
ENDBRANCH  18  19
ENDBRANCH  16  18
ENDBRANCH   1  15
TORSDOF 3
ENDMDL
MODEL 2
REMARK VINA RESULT:      -9.6      1.275      4.396
REMARK  3 active torsions:
REMARK  status: ('A' for Active; 'I' for Inactive)
REMARK    1  A    between atoms: N_7  and  C_1 
REMARK       I    between atoms: C_11  and  N_6 
REMARK       I    between atoms: C_10  and  N_7 
REMARK    2  A    between atoms: C_17  and  C_10 
REMARK    3  A    between atoms: C_14  and  C_17 
ROOT
ATOM      1  C   UNL d   1      53.148  33.508  53.341  0.00  0.00     0.124 A 
ATOM      2  C   UNL d   1      52.803  34.060  53.847  0.00  0.00     0.093 A 
ATOM      3  C   UNL d   1      51.925  33.813  52.872  0.00  0.00     0.049 A 
ATOM      4  C   UNL d   1      52.049  34.248  53.558  0.00  0.00     0.021 A 
ATOM      5  S   UNL d   1      52.605  33.348  52.728  0.00  0.00    -0.066 SA
ATOM      6  N   UNL d   1      50.625  34.397  52.732  0.00  0.00    -0.272 N 
ATOM      7  C   UNL d   1      51.216  33.885  52.457  0.00  0.00     0.089 A 
ATOM      8  C   UNL d   1      53.152  34.371  54.526  0.00  0.00     0.103 C 
ATOM      9  C   UNL d   1      49.910  34.472  52.316  0.00  0.00     0.265 C 
ATOM     10  N   UNL d   1      53.504  34.681  55.206  0.00  0.00    -0.191 NA
ATOM     11  C   UNL d   1      51.466  34.759  53.836  0.00  0.00     0.020 A 
ATOM     12  C   UNL d   1      50.750  34.835  53.422  0.00  0.00     0.083 A 
ATOM     13  O   UNL d   1      49.785  34.035  51.627  0.00  0.00    -0.267 OA
ATOM     14  C   UNL d   1      49.319  34.985  52.591  0.00  0.00     0.066 C 
ENDROOT
BRANCH   1  15
ATOM     15  N   UNL d   1      53.888  33.169  53.412  0.00  0.00    -0.201 NA
ATOM     16  C   UNL d   1      53.957  32.351  53.416  0.00  0.00     0.280 C 
ATOM     17  O   UNL d   1      54.711  32.001  53.488  0.00  0.00    -0.265 OA
BRANCH  16  18
ATOM     18  C   UNL d   1      53.296  31.867  53.349  0.00  0.00     0.062 C 
BRANCH  18  19
ATOM     19  C   UNL d   1      53.302  31.100  53.650  0.00  0.00     0.005 A 
ATOM     20  C   UNL d   1      53.073  30.459  53.168  0.00  0.00     0.000 A 
ATOM     21  C   UNL d   1      53.083  29.693  53.481  0.00  0.00     0.000 A 
ATOM     22  C   UNL d   1      52.840  30.601  52.390  0.00  0.00     0.000 C 
ATOM     23  C   UNL d   1      53.315  29.554  54.256  0.00  0.00     0.000 A 
ATOM     24  C   UNL d   1      53.542  30.188  54.733  0.00  0.00     0.000 A 
ATOM     25  C   UNL d   1      53.324  28.793  54.562  0.00  0.00     0.000 C 
ATOM     26  C   UNL d   1      53.538  30.962  54.436  0.00  0.00     0.000 A 
ENDBRANCH  18  19
ENDBRANCH  16  18
ENDBRANCH   1  15
TORSDOF 3
ENDMDL
