MODEL 1
REMARK VINA RESULT:      -3.2      0.000      0.000
REMARK  5 active torsions:
REMARK  status: ('A' for Active; 'I' for Inactive)
REMARK    1  A    between atoms: C_12  and  C_1 
REMARK    2  A    between atoms: C_4  and  O_8 
REMARK       I    between atoms: N_11  and  C_4 
REMARK    3  A    between atoms: O_8  and  C_13 
REMARK    4  A    between atoms: C_17  and  N_11 
REMARK    5  A    between atoms: C_18  and  N_11 
ROOT
ATOM      1  C   UNL d   1      32.813  21.393 -21.411  0.00  0.00     0.064 A 
ATOM      2  C   UNL d   1      32.964  21.309 -22.220  0.00  0.00     0.199 A 
ATOM      3  C   UNL d   1      33.024  20.553 -22.543  0.00  0.00     0.062 A 
ATOM      4  C   UNL d   1      32.723  20.729 -20.929  0.00  0.00     0.126 A 
ATOM      5  C   UNL d   1      32.935  19.888 -22.065  0.00  0.00     0.105 A 
ATOM      6  O   UNL d   1      32.784  19.972 -21.255  0.00  0.00    -0.305 OA
ATOM      7  C   UNL d   1      32.997  19.127 -22.395  0.00  0.00     0.050 A 
ATOM      8  C   UNL d   1      33.176  20.459 -23.360  0.00  0.00     0.007 A 
ATOM      9  C   UNL d   1      33.147  19.037 -23.199  0.00  0.00     0.107 A 
ATOM     10  O   UNL d   1      33.053  21.973 -22.701  0.00  0.00    -0.286 OA
ATOM     11  C   UNL d   1      33.237  19.704 -23.683  0.00  0.00     0.025 A 
ENDROOT
BRANCH   9  12
ATOM     12  O   UNL d   1      33.208  18.285 -23.524  0.00  0.00    -0.259 OA
BRANCH  12  13
ATOM     13  C   UNL d   1      32.545  17.913 -23.834  0.00  0.00     0.377 C 
ATOM     14  N   UNL d   1      32.550  17.092 -23.943  0.00  0.00    -0.252 N 
ATOM     15  O   UNL d   1      31.879  18.354 -24.036  0.00  0.00    -0.237 OA
BRANCH  14  16
ATOM     16  C   UNL d   1      33.215  16.647 -23.742  0.00  0.00     0.085 C 
ATOM     17  C   UNL d   1      33.115  15.883 -23.441  0.00  0.00     0.021 C 
ENDBRANCH  14  16
BRANCH  14  18
ATOM     18  C   UNL d   1      31.882  16.718 -24.254  0.00  0.00     0.085 C 
ATOM     19  C   UNL d   1      31.938  16.268 -24.943  0.00  0.00     0.021 C 
ENDBRANCH  14  18
ENDBRANCH  12  13
ENDBRANCH   9  12
BRANCH   1  20
ATOM     20  C   UNL d   1      32.751  22.153 -21.081  0.00  0.00     0.005 A 
ATOM     21  C   UNL d   1      32.241  22.702 -21.426  0.00  0.00     0.000 A 
ATOM     22  C   UNL d   1      32.180  23.461 -21.096  0.00  0.00     0.000 A 
ATOM     23  C   UNL d   1      32.624  23.661 -20.434  0.00  0.00     0.000 A 
ATOM     24  C   UNL d   1      33.133  23.099 -20.098  0.00  0.00     0.000 A 
ATOM     25  C   UNL d   1      33.194  22.347 -20.423  0.00  0.00     0.000 A 
ENDBRANCH   1  20
TORSDOF 5
ENDMDL
MODEL 2
REMARK VINA RESULT:      -2.6      1.349      5.364
REMARK  5 active torsions:
REMARK  status: ('A' for Active; 'I' for Inactive)
REMARK    1  A    between atoms: C_12  and  C_1 
REMARK    2  A    between atoms: C_4  and  O_8 
REMARK       I    between atoms: N_11  and  C_4 
REMARK    3  A    between atoms: O_8  and  C_13 
REMARK    4  A    between atoms: C_17  and  N_11 
REMARK    5  A    between atoms: C_18  and  N_11 
ROOT
ATOM      1  C   UNL d   1      32.737  17.512 -23.655  0.00  0.00     0.064 A 
ATOM      2  C   UNL d   1      32.693  18.258 -24.008  0.00  0.00     0.199 A 
ATOM      3  C   UNL d   1      32.830  18.930 -23.550  0.00  0.00     0.062 A 
ATOM      4  C   UNL d   1      32.917  17.436 -22.853  0.00  0.00     0.126 A 
ATOM      5  C   UNL d   1      33.010  18.859 -22.750  0.00  0.00     0.105 A 
ATOM      6  O   UNL d   1      33.054  18.111 -22.397  0.00  0.00    -0.305 OA
ATOM      7  C   UNL d   1      33.147  19.538 -22.291  0.00  0.00     0.050 A 
ATOM      8  C   UNL d   1      32.787  19.689 -23.899  0.00  0.00     0.007 A 
ATOM      9  C   UNL d   1      33.104  20.284 -22.637  0.00  0.00     0.107 A 
ATOM     10  O   UNL d   1      32.513  18.334 -24.810  0.00  0.00    -0.286 OA
ATOM     11  C   UNL d   1      32.923  20.360 -23.442  0.00  0.00     0.025 A 
ENDROOT
BRANCH   9  12
ATOM     12  O   UNL d   1      33.240  20.956 -22.183  0.00  0.00    -0.259 OA
BRANCH  12  13
ATOM     13  C   UNL d   1      32.688  21.198 -21.626  0.00  0.00     0.377 C 
ATOM     14  N   UNL d   1      32.690  21.984 -21.364  0.00  0.00    -0.252 N 
ATOM     15  O   UNL d   1      32.137  20.663 -21.330  0.00  0.00    -0.237 OA
BRANCH  14  16
ATOM     16  C   UNL d   1      33.240  22.523 -21.659  0.00  0.00     0.085 C 
ATOM     17  C   UNL d   1      32.978  23.252 -21.949  0.00  0.00     0.021 C 
ENDBRANCH  14  16
BRANCH  14  18
ATOM     18  C   UNL d   1      32.134  22.227 -20.804  0.00  0.00     0.085 C 
ATOM     19  C   UNL d   1      32.357  22.714 -20.176  0.00  0.00     0.021 C 
ENDBRANCH  14  18
ENDBRANCH  12  13
ENDBRANCH   9  12
BRANCH   1  20
ATOM     20  C   UNL d   1      32.600  16.832 -24.113  0.00  0.00     0.005 A 
ATOM     21  C   UNL d   1      31.848  16.493 -24.114  0.00  0.00     0.000 A 
ATOM     22  C   UNL d   1      31.711  15.814 -24.573  0.00  0.00     0.000 A 
ATOM     23  C   UNL d   1      32.320  15.486 -25.018  0.00  0.00     0.000 A 
ATOM     24  C   UNL d   1      33.070  15.838 -25.007  0.00  0.00     0.000 A 
ATOM     25  C   UNL d   1      33.207  16.510 -24.554  0.00  0.00     0.000 A 
ENDBRANCH   1  20
TORSDOF 5
ENDMDL
MODEL 3
REMARK VINA RESULT:      -0.9      2.461      5.694
REMARK  5 active torsions:
REMARK  status: ('A' for Active; 'I' for Inactive)
REMARK    1  A    between atoms: C_12  and  C_1 
REMARK    2  A    between atoms: C_4  and  O_8 
REMARK       I    between atoms: N_11  and  C_4 
REMARK    3  A    between atoms: O_8  and  C_13 
REMARK    4  A    between atoms: C_17  and  N_11 
REMARK    5  A    between atoms: C_18  and  N_11 
ROOT
ATOM      1  C   UNL d   1      33.014  20.319 -21.726  0.00  0.00     0.064 A 
ATOM      2  C   UNL d   1      32.908  21.130 -21.844  0.00  0.00     0.199 A 
ATOM      3  C   UNL d   1      32.969  21.643 -21.202  0.00  0.00     0.062 A 
ATOM      4  C   UNL d   1      33.180  20.022 -20.974  0.00  0.00     0.126 A 
ATOM      5  C   UNL d   1      33.135  21.351 -20.450  0.00  0.00     0.105 A 
ATOM      6  O   UNL d   1      33.241  20.538 -20.332  0.00  0.00    -0.305 OA
ATOM      7  C   UNL d   1      33.196  21.871 -19.805  0.00  0.00     0.050 A 
ATOM      8  C   UNL d   1      32.863  22.466 -21.312  0.00  0.00     0.007 A 
ATOM      9  C   UNL d   1      33.091  22.680 -19.916  0.00  0.00     0.107 A 
ATOM     10  O   UNL d   1      32.742  21.427 -22.596  0.00  0.00    -0.286 OA
ATOM     11  C   UNL d   1      32.924  22.978 -20.671  0.00  0.00     0.025 A 
ENDROOT
BRANCH   9  12
ATOM     12  O   UNL d   1      33.151  23.194 -19.278  0.00  0.00    -0.259 OA
BRANCH  12  13
ATOM     13  C   UNL d   1      32.481  23.413 -18.857  0.00  0.00     0.377 C 
ATOM     14  N   UNL d   1      32.519  23.479 -18.033  0.00  0.00    -0.252 N 
ATOM     15  O   UNL d   1      31.775  23.567 -19.254  0.00  0.00    -0.237 OA
BRANCH  14  16
ATOM     16  C   UNL d   1      33.223  23.326 -17.632  0.00  0.00     0.085 C 
ATOM     17  C   UNL d   1      33.237  23.370 -16.806  0.00  0.00     0.021 C 
ENDBRANCH  14  16
BRANCH  14  18
ATOM     18  C   UNL d   1      31.844  23.699 -17.610  0.00  0.00     0.085 C 
ATOM     19  C   UNL d   1      31.581  23.245 -16.973  0.00  0.00     0.021 C 
ENDBRANCH  14  18
ENDBRANCH  12  13
ENDBRANCH   9  12
BRANCH   1  20
ATOM     20  C   UNL d   1      32.953  19.798 -22.371  0.00  0.00     0.005 A 
ATOM     21  C   UNL d   1      32.637  19.045 -22.253  0.00  0.00     0.000 A 
ATOM     22  C   UNL d   1      32.577  18.526 -22.898  0.00  0.00     0.000 A 
ATOM     23  C   UNL d   1      32.829  18.762 -23.644  0.00  0.00     0.000 A 
ATOM     24  C   UNL d   1      33.144  19.522 -23.747  0.00  0.00     0.000 A 
ATOM     25  C   UNL d   1      33.205  20.037 -23.110  0.00  0.00     0.000 A 
ENDBRANCH   1  20
TORSDOF 5
ENDMDL
