MODEL 1
REMARK VINA RESULT:      -9.7      0.000      0.000
REMARK  4 active torsions:
REMARK  status: ('A' for Active; 'I' for Inactive)
REMARK    1  A    between atoms: C_7  and  C_1 
REMARK    2  A    between atoms: N_6  and  C_3 
REMARK       I    between atoms: C_8  and  N_6 
REMARK    3  A    between atoms: C_12  and  C_8 
REMARK    4  A    between atoms: C_15  and  C_12 
ROOT
ATOM      1  C   UNL d   1      53.614  31.302  53.820  0.00  0.00     0.206 A 
ATOM      2  O   UNL d   1      53.222  31.916  54.202  0.00  0.00    -0.253 OA
ATOM      3  C   UNL d   1      53.615  32.638  54.013  0.00  0.00     0.297 A 
ATOM      4  N   UNL d   1      54.253  31.634  53.391  0.00  0.00    -0.119 NA
ATOM      5  N   UNL d   1      54.244  32.451  53.516  0.00  0.00    -0.101 NA
ENDROOT
BRANCH   3   6
ATOM      6  N   UNL d   1      53.405  33.369  54.276  0.00  0.00    -0.165 NA
ATOM      7  C   UNL d   1      52.809  33.777  53.891  0.00  0.00     0.282 C 
ATOM      8  O   UNL d   1      52.589  34.535  54.161  0.00  0.00    -0.265 OA
BRANCH   7   9
ATOM      9  C   UNL d   1      52.423  33.455  53.242  0.00  0.00     0.063 C 
BRANCH   9  10
ATOM     10  C   UNL d   1      51.706  33.766  52.982  0.00  0.00     0.005 A 
ATOM     11  C   UNL d   1      51.674  34.212  52.279  0.00  0.00     0.003 A 
ATOM     12  C   UNL d   1      50.951  34.519  52.027  0.00  0.00     0.030 A 
ATOM     13  C   UNL d   1      50.264  34.393  52.456  0.00  0.00     0.140 A 
ATOM     14  C   UNL d   1      50.295  33.951  53.152  0.00  0.00     0.030 A 
ATOM     15  F   UNL d   1      49.548  34.699  52.203  0.00  0.00    -0.204 F 
ATOM     16  C   UNL d   1      51.012  33.636  53.419  0.00  0.00     0.003 A 
ENDBRANCH   9  10
ENDBRANCH   7   9
ENDBRANCH   3   6
BRANCH   1  17
ATOM     17  C   UNL d   1      53.417  30.515  53.853  0.00  0.00     0.043 A 
ATOM     18  C   UNL d   1      53.102  30.137  53.170  0.00  0.00     0.004 A 
ATOM     19  C   UNL d   1      52.900  29.340  53.196  0.00  0.00     0.000 A 
ATOM     20  C   UNL d   1      52.997  30.561  52.478  0.00  0.00     0.000 C 
ATOM     21  C   UNL d   1      53.005  28.905  53.895  0.00  0.00     0.000 A 
ATOM     22  C   UNL d   1      53.318  29.290  54.568  0.00  0.00     0.000 A 
ATOM     23  C   UNL d   1      53.519  30.094  54.532  0.00  0.00     0.004 A 
ATOM     24  C   UNL d   1      53.431  28.879  55.274  0.00  0.00     0.000 C 
ENDBRANCH   1  17
TORSDOF 4
ENDMDL
MODEL 2
REMARK VINA RESULT:      -8.9      2.122      4.793
REMARK  4 active torsions:
REMARK  status: ('A' for Active; 'I' for Inactive)
REMARK    1  A    between atoms: C_7  and  C_1 
REMARK    2  A    between atoms: N_6  and  C_3 
REMARK       I    between atoms: C_8  and  N_6 
REMARK    3  A    between atoms: C_12  and  C_8 
REMARK    4  A    between atoms: C_15  and  C_12 
ROOT
ATOM      1  C   UNL d   1      53.077  33.117  53.333  0.00  0.00     0.206 A 
ATOM      2  O   UNL d   1      52.488  32.545  53.284  0.00  0.00    -0.253 OA
ATOM      3  C   UNL d   1      52.791  31.889  52.848  0.00  0.00     0.297 A 
ATOM      4  N   UNL d   1      53.751  32.825  52.929  0.00  0.00    -0.119 NA
ATOM      5  N   UNL d   1      53.565  32.074  52.637  0.00  0.00    -0.101 NA
ENDROOT
BRANCH   3   6
ATOM      6  N   UNL d   1      52.389  31.214  52.677  0.00  0.00    -0.165 NA
ATOM      7  C   UNL d   1      52.581  30.523  53.071  0.00  0.00     0.282 C 
ATOM      8  O   UNL d   1      52.167  29.821  52.896  0.00  0.00    -0.265 OA
BRANCH   7   9
ATOM      9  C   UNL d   1      53.175  30.506  53.637  0.00  0.00     0.063 C 
BRANCH   9  10
ATOM     10  C   UNL d   1      53.273  29.850  54.125  0.00  0.00     0.005 A 
ATOM     11  C   UNL d   1      52.957  29.852  54.896  0.00  0.00     0.003 A 
ATOM     12  C   UNL d   1      53.061  29.189  55.377  0.00  0.00     0.030 A 
ATOM     13  C   UNL d   1      53.469  28.531  55.110  0.00  0.00     0.140 A 
ATOM     14  C   UNL d   1      53.783  28.529  54.347  0.00  0.00     0.030 A 
ATOM     15  F   UNL d   1      53.571  27.875  55.590  0.00  0.00    -0.204 F 
ATOM     16  C   UNL d   1      53.688  29.185  53.851  0.00  0.00     0.003 A 
ENDBRANCH   9  10
ENDBRANCH   7   9
ENDBRANCH   3   6
BRANCH   1  17
ATOM     17  C   UNL d   1      53.016  33.836  53.706  0.00  0.00     0.043 A 
ATOM     18  C   UNL d   1      52.607  34.467  53.327  0.00  0.00     0.004 A 
ATOM     19  C   UNL d   1      52.541  35.198  53.698  0.00  0.00     0.000 A 
ATOM     20  C   UNL d   1      52.275  34.354  52.588  0.00  0.00     0.000 C 
ATOM     21  C   UNL d   1      52.876  35.317  54.448  0.00  0.00     0.000 A 
ATOM     22  C   UNL d   1      53.280  34.683  54.816  0.00  0.00     0.000 A 
ATOM     23  C   UNL d   1      53.341  33.950  54.433  0.00  0.00     0.004 A 
ATOM     24  C   UNL d   1      53.622  34.778  55.561  0.00  0.00     0.000 C 
ENDBRANCH   1  17
TORSDOF 4
ENDMDL
MODEL 3
REMARK VINA RESULT:      -8.9      0.764      1.460
REMARK  4 active torsions:
REMARK  status: ('A' for Active; 'I' for Inactive)
REMARK    1  A    between atoms: C_7  and  C_1 
REMARK    2  A    between atoms: N_6  and  C_3 
REMARK       I    between atoms: C_8  and  N_6 
REMARK    3  A    between atoms: C_12  and  C_8 
REMARK    4  A    between atoms: C_15  and  C_12 
ROOT
ATOM      1  C   UNL d   1      53.492  32.207  53.587  0.00  0.00     0.206 A 
ATOM      2  O   UNL d   1      52.969  32.782  53.859  0.00  0.00    -0.253 OA
ATOM      3  C   UNL d   1      53.286  33.539  53.664  0.00  0.00     0.297 A 
ATOM      4  N   UNL d   1      54.136  32.599  53.223  0.00  0.00    -0.119 NA
ATOM      5  N   UNL d   1      54.000  33.413  53.275  0.00  0.00    -0.101 NA
ENDROOT
BRANCH   3   6
ATOM      6  N   UNL d   1      52.944  34.247  53.833  0.00  0.00    -0.165 NA
ATOM      7  C   UNL d   1      52.270  34.473  53.426  0.00  0.00     0.282 C 
ATOM      8  O   UNL d   1      51.912  35.207  53.598  0.00  0.00    -0.265 OA
BRANCH   7   9
ATOM      9  C   UNL d   1      51.937  33.991  52.851  0.00  0.00     0.063 C 
BRANCH   9  10
ATOM     10  C   UNL d   1      51.194  34.160  52.537  0.00  0.00     0.005 A 
ATOM     11  C   UNL d   1      50.532  34.218  53.040  0.00  0.00     0.003 A 
ATOM     12  C   UNL d   1      49.792  34.388  52.715  0.00  0.00     0.030 A 
ATOM     13  C   UNL d   1      49.699  34.500  51.909  0.00  0.00     0.140 A 
ATOM     14  C   UNL d   1      50.354  34.443  51.411  0.00  0.00     0.030 A 
ATOM     15  F   UNL d   1      48.963  34.668  51.591  0.00  0.00    -0.204 F 
ATOM     16  C   UNL d   1      51.103  34.273  51.720  0.00  0.00     0.003 A 
ENDBRANCH   9  10
ENDBRANCH   7   9
ENDBRANCH   3   6
BRANCH   1  17
ATOM     17  C   UNL d   1      53.399  31.403  53.660  0.00  0.00     0.043 A 
ATOM     18  C   UNL d   1      53.583  31.029  54.391  0.00  0.00     0.004 A 
ATOM     19  C   UNL d   1      53.491  30.215  54.473  0.00  0.00     0.000 A 
ATOM     20  C   UNL d   1      53.854  31.473  55.022  0.00  0.00     0.000 C 
ATOM     21  C   UNL d   1      53.216  29.760  53.836  0.00  0.00     0.000 A 
ATOM     22  C   UNL d   1      53.036  30.142  53.113  0.00  0.00     0.000 A 
ATOM     23  C   UNL d   1      53.132  30.963  53.041  0.00  0.00     0.004 A 
ATOM     24  C   UNL d   1      52.762  29.711  52.466  0.00  0.00     0.000 C 
ENDBRANCH   1  17
TORSDOF 4
ENDMDL
MODEL 4
REMARK VINA RESULT:      -8.5      2.607      5.007
REMARK  4 active torsions:
REMARK  status: ('A' for Active; 'I' for Inactive)
REMARK    1  A    between atoms: C_7  and  C_1 
REMARK    2  A    between atoms: N_6  and  C_3 
REMARK       I    between atoms: C_8  and  N_6 
REMARK    3  A    between atoms: C_12  and  C_8 
REMARK    4  A    between atoms: C_15  and  C_12 
ROOT
ATOM      1  C   UNL d   1      50.613  34.149  52.357  0.00  0.00     0.206 A 
ATOM      2  O   UNL d   1      50.780  33.428  52.718  0.00  0.00    -0.253 OA
ATOM      3  C   UNL d   1      51.573  33.215  52.527  0.00  0.00     0.297 A 
ATOM      4  N   UNL d   1      51.299  34.390  51.940  0.00  0.00    -0.119 NA
ATOM      5  N   UNL d   1      51.880  33.812  52.051  0.00  0.00    -0.101 NA
ENDROOT
BRANCH   3   6
ATOM      6  N   UNL d   1      51.950  32.548  52.772  0.00  0.00    -0.165 NA
ATOM      7  C   UNL d   1      52.610  32.614  53.252  0.00  0.00     0.282 C 
ATOM      8  O   UNL d   1      53.004  31.925  53.507  0.00  0.00    -0.265 OA
BRANCH   7   9
ATOM      9  C   UNL d   1      52.894  33.348  53.487  0.00  0.00     0.063 C 
BRANCH   9  10
ATOM     10  C   UNL d   1      53.534  33.406  54.003  0.00  0.00     0.005 A 
ATOM     11  C   UNL d   1      53.415  33.651  54.790  0.00  0.00     0.003 A 
ATOM     12  C   UNL d   1      54.063  33.706  55.298  0.00  0.00     0.030 A 
ATOM     13  C   UNL d   1      54.820  33.525  55.042  0.00  0.00     0.140 A 
ATOM     14  C   UNL d   1      54.938  33.282  54.263  0.00  0.00     0.030 A 
ATOM     15  F   UNL d   1      55.460  33.581  55.549  0.00  0.00    -0.204 F 
ATOM     16  C   UNL d   1      54.299  33.221  53.739  0.00  0.00     0.003 A 
ENDBRANCH   9  10
ENDBRANCH   7   9
ENDBRANCH   3   6
BRANCH   1  17
ATOM     17  C   UNL d   1      49.910  34.554  52.398  0.00  0.00     0.043 A 
ATOM     18  C   UNL d   1      49.398  34.565  51.730  0.00  0.00     0.004 A 
ATOM     19  C   UNL d   1      48.684  34.972  51.764  0.00  0.00     0.000 A 
ATOM     20  C   UNL d   1      49.609  34.171  51.045  0.00  0.00     0.000 C 
ATOM     21  C   UNL d   1      48.466  35.374  52.457  0.00  0.00     0.000 A 
ATOM     22  C   UNL d   1      48.982  35.357  53.115  0.00  0.00     0.000 A 
ATOM     23  C   UNL d   1      49.699  34.943  53.070  0.00  0.00     0.004 A 
ATOM     24  C   UNL d   1      48.786  35.748  53.814  0.00  0.00     0.000 C 
ENDBRANCH   1  17
TORSDOF 4
ENDMDL
MODEL 5
REMARK VINA RESULT:      -8.3      1.753      4.617
REMARK  4 active torsions:
REMARK  status: ('A' for Active; 'I' for Inactive)
REMARK    1  A    between atoms: C_7  and  C_1 
REMARK    2  A    between atoms: N_6  and  C_3 
REMARK       I    between atoms: C_8  and  N_6 
REMARK    3  A    between atoms: C_12  and  C_8 
REMARK    4  A    between atoms: C_15  and  C_12 
ROOT
ATOM      1  C   UNL d   1      51.538  34.394  53.064  0.00  0.00     0.206 A 
ATOM      2  O   UNL d   1      51.739  33.928  53.713  0.00  0.00    -0.253 OA
ATOM      3  C   UNL d   1      52.577  33.948  53.803  0.00  0.00     0.297 A 
ATOM      4  N   UNL d   1      52.247  34.707  52.746  0.00  0.00    -0.119 NA
ATOM      5  N   UNL d   1      52.876  34.428  53.205  0.00  0.00    -0.101 NA
ENDROOT
BRANCH   3   6
ATOM      6  N   UNL d   1      52.996  33.565  54.372  0.00  0.00    -0.165 NA
ATOM      7  C   UNL d   1      53.274  32.809  54.224  0.00  0.00     0.282 C 
ATOM      8  O   UNL d   1      53.709  32.408  54.812  0.00  0.00    -0.265 OA
BRANCH   7   9
ATOM      9  C   UNL d   1      53.134  32.436  53.506  0.00  0.00     0.063 C 
BRANCH   9  10
ATOM     10  C   UNL d   1      53.164  31.615  53.445  0.00  0.00     0.005 A 
ATOM     11  C   UNL d   1      52.478  31.185  53.251  0.00  0.00     0.003 A 
ATOM     12  C   UNL d   1      52.519  30.363  53.192  0.00  0.00     0.030 A 
ATOM     13  C   UNL d   1      53.223  29.963  53.320  0.00  0.00     0.140 A 
ATOM     14  C   UNL d   1      53.903  30.389  53.512  0.00  0.00     0.030 A 
ATOM     15  F   UNL d   1      53.260  29.148  53.261  0.00  0.00    -0.204 F 
ATOM     16  C   UNL d   1      53.879  31.215  53.575  0.00  0.00     0.003 A 
ENDBRANCH   9  10
ENDBRANCH   7   9
ENDBRANCH   3   6
BRANCH   1  17
ATOM     17  C   UNL d   1      50.787  34.526  52.784  0.00  0.00     0.043 A 
ATOM     18  C   UNL d   1      50.594  34.307  51.995  0.00  0.00     0.004 A 
ATOM     19  C   UNL d   1      49.836  34.437  51.705  0.00  0.00     0.000 A 
ATOM     20  C   UNL d   1      51.161  33.963  51.515  0.00  0.00     0.000 C 
ATOM     21  C   UNL d   1      49.258  34.785  52.188  0.00  0.00     0.000 A 
ATOM     22  C   UNL d   1      49.460  35.000  52.971  0.00  0.00     0.000 A 
ATOM     23  C   UNL d   1      50.228  34.864  53.254  0.00  0.00     0.004 A 
ATOM     24  C   UNL d   1      48.902  35.347  53.469  0.00  0.00     0.000 C 
ENDBRANCH   1  17
TORSDOF 4
ENDMDL
MODEL 6
REMARK VINA RESULT:      -7.6      1.864      3.134
REMARK  4 active torsions:
REMARK  status: ('A' for Active; 'I' for Inactive)
REMARK    1  A    between atoms: C_7  and  C_1 
REMARK    2  A    between atoms: N_6  and  C_3 
REMARK       I    between atoms: C_8  and  N_6 
REMARK    3  A    between atoms: C_12  and  C_8 
REMARK    4  A    between atoms: C_15  and  C_12 
ROOT
ATOM      1  C   UNL d   1      52.641  33.194  53.546  0.00  0.00     0.206 A 
ATOM      2  O   UNL d   1      52.531  33.664  52.879  0.00  0.00    -0.253 OA
ATOM      3  C   UNL d   1      51.809  33.433  52.509  0.00  0.00     0.297 A 
ATOM      4  N   UNL d   1      51.990  32.668  53.597  0.00  0.00    -0.119 NA
ATOM      5  N   UNL d   1      51.488  32.823  52.958  0.00  0.00    -0.101 NA
ENDROOT
BRANCH   3   6
ATOM      6  N   UNL d   1      51.501  33.757  51.840  0.00  0.00    -0.165 NA
ATOM      7  C   UNL d   1      50.789  34.159  51.881  0.00  0.00     0.282 C 
ATOM      8  O   UNL d   1      50.466  34.496  51.190  0.00  0.00    -0.265 OA
BRANCH   7   9
ATOM      9  C   UNL d   1      50.384  34.238  52.591  0.00  0.00     0.063 C 
BRANCH   9  10
ATOM     10  C   UNL d   1      49.683  34.668  52.631  0.00  0.00     0.005 A 
ATOM     11  C   UNL d   1      49.540  35.175  53.276  0.00  0.00     0.003 A 
ATOM     12  C   UNL d   1      48.834  35.602  53.307  0.00  0.00     0.030 A 
ATOM     13  C   UNL d   1      48.273  35.536  52.713  0.00  0.00     0.140 A 
ATOM     14  C   UNL d   1      48.414  35.034  52.074  0.00  0.00     0.030 A 
ATOM     15  F   UNL d   1      47.574  35.961  52.746  0.00  0.00    -0.204 F 
ATOM     16  C   UNL d   1      49.117  34.598  52.028  0.00  0.00     0.003 A 
ENDBRANCH   9  10
ENDBRANCH   7   9
ENDBRANCH   3   6
BRANCH   1  17
ATOM     17  C   UNL d   1      53.267  33.234  54.061  0.00  0.00     0.043 A 
ATOM     18  C   UNL d   1      53.809  32.592  54.106  0.00  0.00     0.004 A 
ATOM     19  C   UNL d   1      54.446  32.625  54.625  0.00  0.00     0.000 A 
ATOM     20  C   UNL d   1      53.704  31.933  53.633  0.00  0.00     0.000 C 
ATOM     21  C   UNL d   1      54.557  33.291  55.107  0.00  0.00     0.000 A 
ATOM     22  C   UNL d   1      54.013  33.924  55.055  0.00  0.00     0.000 A 
ATOM     23  C   UNL d   1      53.374  33.881  54.528  0.00  0.00     0.004 A 
ATOM     24  C   UNL d   1      54.103  34.596  55.524  0.00  0.00     0.000 C 
ENDBRANCH   1  17
TORSDOF 4
ENDMDL
