MODEL 1
REMARK VINA RESULT:      -7.4      0.000      0.000
REMARK  6 active torsions:
REMARK  status: ('A' for Active; 'I' for Inactive)
REMARK    1  A    between atoms: C_2  and  S_1 
REMARK    2  A    between atoms: N_4  and  S_1 
REMARK    3  A    between atoms: C_18  and  N_4 
REMARK    4  A    between atoms: O_20  and  C_6 
REMARK    5  A    between atoms: C_19  and  C_18 
REMARK    6  A    between atoms: C_24  and  O_20 
ROOT
ATOM      1  S   UNL d   1     -46.832  13.553  22.815  0.00  0.00     0.327 S 
ATOM      2  O   UNL d   1     -46.487  13.944  23.464  0.00  0.00    -0.186 OA
ATOM      3  O   UNL d   1     -47.176  13.168  22.170  0.00  0.00    -0.186 OA
ENDROOT
BRANCH   1   4
ATOM      4  C   UNL d   1     -46.352  12.901  22.948  0.00  0.00     0.118 A 
ATOM      5  C   UNL d   1     -45.578  12.881  22.653  0.00  0.00     0.039 A 
ATOM      6  C   UNL d   1     -45.094  12.226  22.786  0.00  0.00     0.101 A 
ATOM      7  C   UNL d   1     -45.386  11.579  23.219  0.00  0.00     0.023 A 
ATOM      8  C   UNL d   1     -46.156  11.596  23.514  0.00  0.00     0.003 A 
ATOM      9  C   UNL d   1     -44.911  10.924  23.355  0.00  0.00     0.002 C 
ATOM     10  C   UNL d   1     -46.644  12.254  23.382  0.00  0.00     0.013 A 
ATOM     11  C   UNL d   1     -47.411  12.266  23.678  0.00  0.00     0.001 C 
BRANCH   6  12
ATOM     12  O   UNL d   1     -44.331  12.212  22.492  0.00  0.00    -0.305 OA
BRANCH  12  13
ATOM     13  C   UNL d   1     -44.168  12.580  21.778  0.00  0.00     0.123 C 
ATOM     14  C   UNL d   1     -43.388  12.609  21.510  0.00  0.00     0.029 C 
ENDBRANCH  12  13
ENDBRANCH   6  12
ENDBRANCH   1   4
BRANCH   1  15
ATOM     15  N   UNL d   1     -47.311  14.203  22.680  0.00  0.00    -0.314 NA
BRANCH  15  16
ATOM     16  C   UNL d   1     -47.797  14.855  22.544  0.00  0.00     0.176 C 
BRANCH  16  17
ATOM     17  C   UNL d   1     -48.621  14.767  22.506  0.00  0.00     0.035 A 
ATOM     18  C   UNL d   1     -48.969  14.384  21.870  0.00  0.00     0.029 A 
ATOM     19  C   UNL d   1     -49.790  14.297  21.834  0.00  0.00     0.119 A 
ATOM     20  O   UNL d   1     -50.285  13.944  21.272  0.00  0.00    -0.300 OA
ATOM     21  C   UNL d   1     -50.264  14.600  22.447  0.00  0.00     0.119 A 
ATOM     22  C   UNL d   1     -51.063  14.029  21.538  0.00  0.00     0.304 A 
ATOM     23  O   UNL d   1     -51.049  14.432  22.260  0.00  0.00    -0.300 OA
ATOM     24  C   UNL d   1     -49.911  14.985  23.087  0.00  0.00     0.026 A 
ATOM     25  C   UNL d   1     -49.095  15.070  23.119  0.00  0.00     0.005 A 
ENDBRANCH  16  17
ENDBRANCH  15  16
ENDBRANCH   1  15
TORSDOF 6
ENDMDL
MODEL 2
REMARK VINA RESULT:      -7.0      1.074      5.015
REMARK  6 active torsions:
REMARK  status: ('A' for Active; 'I' for Inactive)
REMARK    1  A    between atoms: C_2  and  S_1 
REMARK    2  A    between atoms: N_4  and  S_1 
REMARK    3  A    between atoms: C_18  and  N_4 
REMARK    4  A    between atoms: O_20  and  C_6 
REMARK    5  A    between atoms: C_19  and  C_18 
REMARK    6  A    between atoms: C_24  and  O_20 
ROOT
ATOM      1  S   UNL d   1     -48.193  13.215  22.905  0.00  0.00     0.327 S 
ATOM      2  O   UNL d   1     -48.537  12.584  23.325  0.00  0.00    -0.186 OA
ATOM      3  O   UNL d   1     -47.849  13.840  22.488  0.00  0.00    -0.186 OA
ENDROOT
BRANCH   1   4
ATOM      4  C   UNL d   1     -48.907  13.357  22.527  0.00  0.00     0.118 A 
ATOM      5  C   UNL d   1     -49.364  14.019  22.726  0.00  0.00     0.039 A 
ATOM      6  C   UNL d   1     -50.082  14.164  22.348  0.00  0.00     0.101 A 
ATOM      7  C   UNL d   1     -50.351  13.641  21.759  0.00  0.00     0.023 A 
ATOM      8  C   UNL d   1     -49.898  12.981  21.559  0.00  0.00     0.003 A 
ATOM      9  C   UNL d   1     -51.064  13.778  21.378  0.00  0.00     0.002 C 
ATOM     10  C   UNL d   1     -49.176  12.834  21.939  0.00  0.00     0.013 A 
ATOM     11  C   UNL d   1     -48.728  12.174  21.735  0.00  0.00     0.001 C 
BRANCH   6  12
ATOM     12  O   UNL d   1     -50.529  14.818  22.549  0.00  0.00    -0.305 OA
BRANCH  12  13
ATOM     13  C   UNL d   1     -50.740  14.936  23.332  0.00  0.00     0.123 C 
ATOM     14  C   UNL d   1     -50.983  15.687  23.575  0.00  0.00     0.029 C 
ENDBRANCH  12  13
ENDBRANCH   6  12
ENDBRANCH   1   4
BRANCH   1  15
ATOM     15  N   UNL d   1     -47.479  13.075  23.281  0.00  0.00    -0.314 NA
BRANCH  15  16
ATOM     16  C   UNL d   1     -46.761  12.937  23.661  0.00  0.00     0.176 C 
BRANCH  16  17
ATOM     17  C   UNL d   1     -46.091  12.709  23.229  0.00  0.00     0.035 A 
ATOM     18  C   UNL d   1     -45.693  13.254  22.761  0.00  0.00     0.029 A 
ATOM     19  C   UNL d   1     -45.027  13.025  22.330  0.00  0.00     0.119 A 
ATOM     20  O   UNL d   1     -44.525  13.445  21.823  0.00  0.00    -0.300 OA
ATOM     21  C   UNL d   1     -44.757  12.239  22.373  0.00  0.00     0.119 A 
ATOM     22  C   UNL d   1     -43.948  12.918  21.552  0.00  0.00     0.304 A 
ATOM     23  O   UNL d   1     -44.092  12.178  21.891  0.00  0.00    -0.300 OA
ATOM     24  C   UNL d   1     -45.159  11.693  22.845  0.00  0.00     0.026 A 
ATOM     25  C   UNL d   1     -45.822  11.923  23.271  0.00  0.00     0.005 A 
ENDBRANCH  16  17
ENDBRANCH  15  16
ENDBRANCH   1  15
TORSDOF 6
ENDMDL
MODEL 3
REMARK VINA RESULT:      -5.9      7.762      9.428
REMARK  6 active torsions:
REMARK  status: ('A' for Active; 'I' for Inactive)
REMARK    1  A    between atoms: C_2  and  S_1 
REMARK    2  A    between atoms: N_4  and  S_1 
REMARK    3  A    between atoms: C_18  and  N_4 
REMARK    4  A    between atoms: O_20  and  C_6 
REMARK    5  A    between atoms: C_19  and  C_18 
REMARK    6  A    between atoms: C_24  and  O_20 
ROOT
ATOM      1  S   UNL d   1     -40.083  14.902  19.613  0.00  0.00     0.327 S 
ATOM      2  O   UNL d   1     -39.702  15.610  19.397  0.00  0.00    -0.186 OA
ATOM      3  O   UNL d   1     -40.462  14.199  19.826  0.00  0.00    -0.186 OA
ENDROOT
BRANCH   1   4
ATOM      4  C   UNL d   1     -39.866  15.020  20.395  0.00  0.00     0.118 A 
ATOM      5  C   UNL d   1     -39.199  14.641  20.709  0.00  0.00     0.039 A 
ATOM      6  C   UNL d   1     -38.979  14.758  21.495  0.00  0.00     0.101 A 
ATOM      7  C   UNL d   1     -39.430  15.263  21.979  0.00  0.00     0.023 A 
ATOM      8  C   UNL d   1     -40.094  15.643  21.669  0.00  0.00     0.003 A 
ATOM      9  C   UNL d   1     -39.217  15.385  22.761  0.00  0.00     0.002 C 
ATOM     10  C   UNL d   1     -40.317  15.525  20.879  0.00  0.00     0.013 A 
ATOM     11  C   UNL d   1     -40.980  15.906  20.576  0.00  0.00     0.001 C 
BRANCH   6  12
ATOM     12  O   UNL d   1     -38.320  14.381  21.799  0.00  0.00    -0.305 OA
BRANCH  12  13
ATOM     13  C   UNL d   1     -38.332  13.567  21.895  0.00  0.00     0.123 C 
ATOM     14  C   UNL d   1     -37.940  13.232  22.540  0.00  0.00     0.029 C 
ENDBRANCH  12  13
ENDBRANCH   6  12
ENDBRANCH   1   4
BRANCH   1  15
ATOM     15  N   UNL d   1     -40.301  14.782  18.834  0.00  0.00    -0.314 NA
BRANCH  15  16
ATOM     16  C   UNL d   1     -40.524  14.663  18.048  0.00  0.00     0.176 C 
BRANCH  16  17
ATOM     17  C   UNL d   1     -39.951  14.551  17.459  0.00  0.00     0.035 A 
ATOM     18  C   UNL d   1     -39.553  13.836  17.397  0.00  0.00     0.029 A 
ATOM     19  C   UNL d   1     -38.982  13.727  16.810  0.00  0.00     0.119 A 
ATOM     20  O   UNL d   1     -38.503  13.080  16.618  0.00  0.00    -0.300 OA
ATOM     21  C   UNL d   1     -38.811  14.346  16.280  0.00  0.00     0.119 A 
ATOM     22  C   UNL d   1     -38.037  13.299  15.971  0.00  0.00     0.304 A 
ATOM     23  O   UNL d   1     -38.227  14.077  15.764  0.00  0.00    -0.300 OA
ATOM     24  C   UNL d   1     -39.213  15.064  16.345  0.00  0.00     0.026 A 
ATOM     25  C   UNL d   1     -39.780  15.170  16.930  0.00  0.00     0.005 A 
ENDBRANCH  16  17
ENDBRANCH  15  16
ENDBRANCH   1  15
TORSDOF 6
ENDMDL
MODEL 4
REMARK VINA RESULT:      -4.9      5.907      8.772
REMARK  6 active torsions:
REMARK  status: ('A' for Active; 'I' for Inactive)
REMARK    1  A    between atoms: C_2  and  S_1 
REMARK    2  A    between atoms: N_4  and  S_1 
REMARK    3  A    between atoms: C_18  and  N_4 
REMARK    4  A    between atoms: O_20  and  C_6 
REMARK    5  A    between atoms: C_19  and  C_18 
REMARK    6  A    between atoms: C_24  and  O_20 
ROOT
ATOM      1  S   UNL d   1     -39.749  14.479  18.328  0.00  0.00     0.327 S 
ATOM      2  O   UNL d   1     -40.427  14.115  18.009  0.00  0.00    -0.186 OA
ATOM      3  O   UNL d   1     -39.078  14.841  18.647  0.00  0.00    -0.186 OA
ENDROOT
BRANCH   1   4
ATOM      4  C   UNL d   1     -39.299  14.195  17.704  0.00  0.00     0.118 A 
ATOM      5  C   UNL d   1     -38.894  13.475  17.770  0.00  0.00     0.039 A 
ATOM      6  C   UNL d   1     -38.441  13.188  17.144  0.00  0.00     0.101 A 
ATOM      7  C   UNL d   1     -38.388  13.625  16.438  0.00  0.00     0.023 A 
ATOM      8  C   UNL d   1     -38.790  14.342  16.369  0.00  0.00     0.003 A 
ATOM      9  C   UNL d   1     -37.940  13.346  15.811  0.00  0.00     0.002 C 
ATOM     10  C   UNL d   1     -39.246  14.632  16.998  0.00  0.00     0.013 A 
ATOM     11  C   UNL d   1     -39.645  15.349  16.924  0.00  0.00     0.001 C 
BRANCH   6  12
ATOM     12  O   UNL d   1     -38.044  12.476  17.215  0.00  0.00    -0.305 OA
BRANCH  12  13
ATOM     13  C   UNL d   1     -38.428  11.833  17.547  0.00  0.00     0.123 C 
ATOM     14  C   UNL d   1     -37.984  11.183  17.794  0.00  0.00     0.029 C 
ENDBRANCH  12  13
ENDBRANCH   6  12
ENDBRANCH   1   4
BRANCH   1  15
ATOM     15  N   UNL d   1     -40.197  14.763  18.951  0.00  0.00    -0.314 NA
BRANCH  15  16
ATOM     16  C   UNL d   1     -40.645  15.052  19.580  0.00  0.00     0.176 C 
BRANCH  16  17
ATOM     17  C   UNL d   1     -40.925  14.541  20.170  0.00  0.00     0.035 A 
ATOM     18  C   UNL d   1     -41.650  14.166  20.085  0.00  0.00     0.029 A 
ATOM     19  C   UNL d   1     -41.927  13.657  20.673  0.00  0.00     0.119 A 
ATOM     20  O   UNL d   1     -42.623  13.212  20.736  0.00  0.00    -0.300 OA
ATOM     21  C   UNL d   1     -41.468  13.524  21.354  0.00  0.00     0.119 A 
ATOM     22  C   UNL d   1     -42.593  12.805  21.456  0.00  0.00     0.304 A 
ATOM     23  O   UNL d   1     -41.883  12.997  21.834  0.00  0.00    -0.300 OA
ATOM     24  C   UNL d   1     -40.739  13.902  21.437  0.00  0.00     0.026 A 
ATOM     25  C   UNL d   1     -40.466  14.408  20.851  0.00  0.00     0.005 A 
ENDBRANCH  16  17
ENDBRANCH  15  16
ENDBRANCH   1  15
TORSDOF 6
ENDMDL
MODEL 5
REMARK VINA RESULT:      -4.7      6.647      8.775
REMARK  6 active torsions:
REMARK  status: ('A' for Active; 'I' for Inactive)
REMARK    1  A    between atoms: C_2  and  S_1 
REMARK    2  A    between atoms: N_4  and  S_1 
REMARK    3  A    between atoms: C_18  and  N_4 
REMARK    4  A    between atoms: O_20  and  C_6 
REMARK    5  A    between atoms: C_19  and  C_18 
REMARK    6  A    between atoms: C_24  and  O_20 
ROOT
ATOM      1  S   UNL d   1     -39.234  15.182  19.669  0.00  0.00     0.327 S 
ATOM      2  O   UNL d   1     -39.467  15.917  19.984  0.00  0.00    -0.186 OA
ATOM      3  O   UNL d   1     -39.003  14.454  19.353  0.00  0.00    -0.186 OA
ENDROOT
BRANCH   1   4
ATOM      4  C   UNL d   1     -39.295  14.840  20.412  0.00  0.00     0.118 A 
ATOM      5  C   UNL d   1     -39.974  14.415  20.625  0.00  0.00     0.039 A 
ATOM      6  C   UNL d   1     -40.037  14.070  21.372  0.00  0.00     0.101 A 
ATOM      7  C   UNL d   1     -39.414  14.149  21.917  0.00  0.00     0.023 A 
ATOM      8  C   UNL d   1     -38.736  14.571  21.707  0.00  0.00     0.003 A 
ATOM      9  C   UNL d   1     -39.469  13.809  22.661  0.00  0.00     0.002 C 
ATOM     10  C   UNL d   1     -38.671  14.918  20.957  0.00  0.00     0.013 A 
ATOM     11  C   UNL d   1     -37.994  15.338  20.753  0.00  0.00     0.001 C 
BRANCH   6  12
ATOM     12  O   UNL d   1     -40.710  13.653  21.577  0.00  0.00    -0.305 OA
BRANCH  12  13
ATOM     13  C   UNL d   1     -41.446  13.951  21.373  0.00  0.00     0.123 C 
ATOM     14  C   UNL d   1     -42.047  13.427  21.161  0.00  0.00     0.029 C 
ENDBRANCH  12  13
ENDBRANCH   6  12
ENDBRANCH   1   4
BRANCH   1  15
ATOM     15  N   UNL d   1     -39.173  15.521  18.927  0.00  0.00    -0.314 NA
BRANCH  15  16
ATOM     16  C   UNL d   1     -39.108  15.861  18.178  0.00  0.00     0.176 C 
BRANCH  16  17
ATOM     17  C   UNL d   1     -39.658  15.681  17.583  0.00  0.00     0.035 A 
ATOM     18  C   UNL d   1     -40.440  15.919  17.655  0.00  0.00     0.029 A 
ATOM     19  C   UNL d   1     -40.986  15.739  17.062  0.00  0.00     0.119 A 
ATOM     20  O   UNL d   1     -41.794  15.904  16.986  0.00  0.00    -0.300 OA
ATOM     21  C   UNL d   1     -40.741  15.313  16.390  0.00  0.00     0.119 A 
ATOM     22  C   UNL d   1     -42.046  15.581  16.267  0.00  0.00     0.304 A 
ATOM     23  O   UNL d   1     -41.399  15.219  15.903  0.00  0.00    -0.300 OA
ATOM     24  C   UNL d   1     -39.953  15.075  16.321  0.00  0.00     0.026 A 
ATOM     25  C   UNL d   1     -39.412  15.256  16.911  0.00  0.00     0.005 A 
ENDBRANCH  16  17
ENDBRANCH  15  16
ENDBRANCH   1  15
TORSDOF 6
ENDMDL
