MODEL 1
REMARK VINA RESULT:      85.3      0.000      0.000
REMARK  8 active torsions:
REMARK  status: ('A' for Active; 'I' for Inactive)
REMARK    1  A    between atoms: N_7  and  N_1 
REMARK    2  A    between atoms: S_9  and  C_2 
REMARK       I    between atoms: C_8  and  N_7 
REMARK    3  A    between atoms: C_16  and  C_8 
REMARK    4  A    between atoms: C_15  and  S_9 
REMARK    5  A    between atoms: C_10  and  C_15 
REMARK       I    between atoms: N_12  and  C_10 
REMARK    6  A    between atoms: C_17  and  N_12 
REMARK    7  A    between atoms: C_19  and  C_16 
REMARK    8  A    between atoms: C_20  and  C_17 
ROOT
ATOM      1  N   UNL d   1     -49.609  27.427  36.185  0.00  0.00    -0.168 N 
ATOM      2  C   UNL d   1     -50.210  27.090  35.761  0.00  0.00     0.199 A 
ATOM      3  C   UNL d   1     -49.677  27.513  37.006  0.00  0.00     0.283 A 
ATOM      4  N   UNL d   1     -50.909  26.823  36.143  0.00  0.00    -0.221 NA
ATOM      5  C   UNL d   1     -50.372  27.249  37.392  0.00  0.00     0.076 A 
ATOM      6  C   UNL d   1     -50.985  26.906  36.959  0.00  0.00     0.088 A 
ATOM      7  O   UNL d   1     -49.067  27.856  37.443  0.00  0.00    -0.265 OA
ATOM      8  C   UNL d   1     -50.434  27.338  38.214  0.00  0.00     0.006 A 
ATOM      9  C   UNL d   1     -51.660  26.650  37.345  0.00  0.00     0.019 A 
ATOM     10  C   UNL d   1     -51.122  27.076  38.591  0.00  0.00     0.000 A 
ATOM     11  C   UNL d   1     -51.735  26.733  38.159  0.00  0.00     0.002 A 
ENDROOT
BRANCH   2  12
ATOM     12  S   UNL d   1     -50.143  27.005  34.954  0.00  0.00    -0.043 SA
BRANCH  12  13
ATOM     13  C   UNL d   1     -50.262  26.269  34.604  0.00  0.00     0.101 C 
BRANCH  13  14
ATOM     14  C   UNL d   1     -50.866  26.166  34.062  0.00  0.00     0.286 C 
ATOM     15  N   UNL d   1     -51.104  25.410  33.849  0.00  0.00    -0.206 NA
ATOM     16  O   UNL d   1     -51.238  26.823  33.729  0.00  0.00    -0.265 OA
BRANCH  15  17
ATOM     17  C   UNL d   1     -51.709  25.307  33.306  0.00  0.00     0.102 C 
BRANCH  17  18
ATOM     18  C   UNL d   1     -52.155  24.619  33.314  0.00  0.00     0.019 A 
ATOM     19  C   UNL d   1     -51.785  23.881  33.306  0.00  0.00     0.002 A 
ATOM     20  C   UNL d   1     -52.232  23.193  33.313  0.00  0.00     0.000 A 
ATOM     21  C   UNL d   1     -53.055  23.237  33.329  0.00  0.00     0.000 A 
ATOM     22  C   UNL d   1     -53.424  23.977  33.337  0.00  0.00     0.000 A 
ATOM     23  C   UNL d   1     -52.978  24.663  33.329  0.00  0.00     0.002 A 
ENDBRANCH  17  18
ENDBRANCH  15  17
ENDBRANCH  13  14
ENDBRANCH  12  13
ENDBRANCH   2  12
BRANCH   1  24
ATOM     24  N   UNL d   1     -48.931  27.685  35.809  0.00  0.00    -0.119 NA
ATOM     25  C   UNL d   1     -48.692  28.461  35.893  0.00  0.00     0.296 C 
ATOM     26  O   UNL d   1     -49.128  28.989  36.354  0.00  0.00    -0.264 OA
BRANCH  25  27
ATOM     27  C   UNL d   1     -48.005  28.719  35.512  0.00  0.00     0.064 C 
BRANCH  27  28
ATOM     28  C   UNL d   1     -47.833  29.512  35.488  0.00  0.00     0.005 A 
ATOM     29  C   UNL d   1     -47.185  29.798  35.911  0.00  0.00     0.000 A 
ATOM     30  C   UNL d   1     -47.010  30.604  35.887  0.00  0.00     0.000 A 
ATOM     31  C   UNL d   1     -47.472  31.111  35.450  0.00  0.00     0.000 A 
ATOM     32  C   UNL d   1     -48.122  30.814  35.028  0.00  0.00     0.000 A 
ATOM     33  C   UNL d   1     -48.294  30.019  35.052  0.00  0.00     0.000 A 
ENDBRANCH  27  28
ENDBRANCH  25  27
ENDBRANCH   1  24
TORSDOF 8
ENDMDL
