MODEL 1
REMARK VINA RESULT:      -1.5      0.000      0.000
REMARK  6 active torsions:
REMARK  status: ('A' for Active; 'I' for Inactive)
REMARK    1  A    between atoms: S_5  and  C_3 
REMARK    2  A    between atoms: C_16  and  S_5 
REMARK    3  A    between atoms: C_20  and  N_6 
REMARK    4  A    between atoms: N_19  and  C_25 
REMARK    5  A    between atoms: C_24  and  C_20 
REMARK    6  A    between atoms: C_25  and  C_24 
ROOT
ATOM      1  C   UNL d   1      33.105  21.001 -22.879  0.00  0.00     0.155 A 
ATOM      2  C   UNL d   1      32.998  20.683 -23.633  0.00  0.00     0.092 A 
ATOM      3  C   UNL d   1      32.944  19.370 -23.067  0.00  0.00     0.124 A 
ATOM      4  N   UNL d   1      33.186  21.821 -22.785  0.00  0.00    -0.210 NA
ATOM      5  N   UNL d   1      33.132  20.511 -22.226  0.00  0.00    -0.273 N 
ATOM      6  C   UNL d   1      33.052  19.688 -22.314  0.00  0.00     0.181 A 
ATOM      7  C   UNL d   1      32.970  21.182 -24.300  0.00  0.00     0.269 A 
ATOM      8  N   UNL d   1      33.050  21.996 -24.204  0.00  0.00    -0.258 N 
ATOM      9  C   UNL d   1      32.916  19.862 -23.736  0.00  0.00     0.022 A 
ATOM     10  C   UNL d   1      33.159  22.321 -23.443  0.00  0.00     0.152 A 
ATOM     11  N   UNL d   1      33.080  19.196 -21.650  0.00  0.00    -0.128 N 
ATOM     12  C   UNL d   1      33.023  22.494 -24.866  0.00  0.00     0.084 A 
ATOM     13  O   UNL d   1      32.861  20.856 -25.054  0.00  0.00    -0.266 OA
ATOM     14  C   UNL d   1      33.239  23.131 -23.354  0.00  0.00     0.038 A 
ATOM     15  C   UNL d   1      33.104  23.306 -24.763  0.00  0.00     0.019 A 
ATOM     16  C   UNL d   1      33.213  23.627 -24.001  0.00  0.00     0.005 A 
ENDROOT
BRANCH   3  17
ATOM     17  S   UNL d   1      32.864  18.553 -23.155  0.00  0.00     0.213 S 
ATOM     18  O   UNL d   1      32.516  18.465 -22.419  0.00  0.00    -0.217 OA
ATOM     19  O   UNL d   1      33.213  18.601 -23.904  0.00  0.00    -0.217 OA
BRANCH  17  20
ATOM     20  C   UNL d   1      32.786  17.737 -23.246  0.00  0.00     0.088 A 
ATOM     21  C   UNL d   1      33.240  17.231 -22.775  0.00  0.00     0.011 A 
ATOM     22  C   UNL d   1      33.167  16.418 -22.861  0.00  0.00     0.001 A 
ATOM     23  C   UNL d   1      32.641  16.106 -23.415  0.00  0.00     0.000 A 
ATOM     24  C   UNL d   1      32.187  16.616 -23.887  0.00  0.00     0.001 A 
ATOM     25  C   UNL d   1      32.266  17.432 -23.795  0.00  0.00     0.011 A 
ENDBRANCH  17  20
ENDBRANCH   3  17
BRANCH   5  26
ATOM     26  C   UNL d   1      33.240  20.831 -21.468  0.00  0.00     0.085 C 
BRANCH  26  27
ATOM     27  C   UNL d   1      32.602  21.175 -21.074  0.00  0.00     0.038 C 
BRANCH  27  28
ATOM     28  C   UNL d   1      32.622  21.273 -20.265  0.00  0.00     0.082 C 
BRANCH  28  29
ATOM     29  N   UNL d   1      32.538  22.021 -19.930  0.00  0.00    -0.299 N 
ATOM     30  C   UNL d   1      32.226  22.637 -20.377  0.00  0.00     0.107 A 
ATOM     31  C   UNL d   1      32.138  23.383 -20.055  0.00  0.00     0.142 A 
ATOM     32  O   UNL d   1      32.363  23.525 -19.274  0.00  0.00    -0.300 OA
ATOM     33  C   UNL d   1      32.678  22.911 -18.814  0.00  0.00     0.142 A 
ATOM     34  C   UNL d   1      32.766  22.152 -19.148  0.00  0.00     0.107 A 
ENDBRANCH  28  29
ENDBRANCH  27  28
ENDBRANCH  26  27
ENDBRANCH   5  26
TORSDOF 6
ENDMDL
