MODEL 1
REMARK VINA RESULT:      -4.5      0.000      0.000
REMARK  5 active torsions:
REMARK  status: ('A' for Active; 'I' for Inactive)
REMARK    1  A    between atoms: C_11  and  C_1 
REMARK    2  A    between atoms: C_2  and  N_5 
REMARK    3  A    between atoms: N_3  and  C_7 
REMARK       I    between atoms: N_5  and  C_6 
REMARK    4  A    between atoms: C_6  and  C_9 
REMARK    5  A    between atoms: C_16  and  C_8 
ROOT
ATOM      1  N   UNL d   1      58.767  -0.236  30.257  0.00  0.00    -0.183 NA
ATOM      2  C   UNL d   1      58.736  -0.798  29.581  0.00  0.00     0.281 C 
ATOM      3  O   UNL d   1      57.992  -1.031  29.276  0.00  0.00    -0.265 OA
ENDROOT
BRANCH   2   4
ATOM      4  C   UNL d   1      59.492  -1.093  29.251  0.00  0.00     0.065 A 
ATOM      5  C   UNL d   1      59.551  -1.911  29.152  0.00  0.00     0.091 A 
ATOM      6  C   UNL d   1      60.265  -2.210  28.838  0.00  0.00     0.133 A 
ATOM      7  C   UNL d   1      60.886  -1.706  28.636  0.00  0.00     0.024 A 
ATOM      8  C   UNL d   1      60.820  -0.879  28.738  0.00  0.00     0.002 A 
ATOM      9  C   UNL d   1      60.112  -0.589  29.048  0.00  0.00     0.005 A 
BRANCH   5  10
ATOM     10  C   UNL d   1      58.940  -2.407  29.352  0.00  0.00     0.213 C 
ATOM     11  O   UNL d   1      58.347  -2.606  28.797  0.00  0.00    -0.644 OA
ATOM     12  O   UNL d   1      58.971  -2.668  30.094  0.00  0.00    -0.644 OA
ENDBRANCH   5  10
BRANCH   6  13
ATOM     13  N   UNL d   1      60.363  -3.011  28.726  0.00  0.00    -0.114 N 
ATOM     14  O   UNL d   1      59.773  -3.522  28.456  0.00  0.00    -0.532 OA
ATOM     15  O   UNL d   1      61.057  -3.413  28.866  0.00  0.00    -0.532 OA
ENDBRANCH   6  13
ENDBRANCH   2   4
BRANCH   1  16
ATOM     16  C   UNL d   1      58.062   0.048  30.576  0.00  0.00     0.197 A 
ATOM     17  N   UNL d   1      57.769  -0.292  31.230  0.00  0.00    -0.221 NA
ATOM     18  C   UNL d   1      57.084   0.092  31.418  0.00  0.00     0.090 A 
ATOM     19  C   UNL d   1      56.969   0.626  30.916  0.00  0.00     0.058 A 
ATOM     20  S   UNL d   1      57.543   0.677  30.333  0.00  0.00    -0.046 SA
BRANCH  18  21
ATOM     21  C   UNL d   1      56.561  -0.035  32.040  0.00  0.00     0.018 A 
ATOM     22  C   UNL d   1      56.284  -0.802  32.185  0.00  0.00     0.002 A 
ATOM     23  C   UNL d   1      55.752  -0.942  32.816  0.00  0.00     0.000 A 
ATOM     24  C   UNL d   1      55.506  -0.304  33.293  0.00  0.00     0.000 A 
ATOM     25  C   UNL d   1      55.782   0.450  33.146  0.00  0.00     0.000 A 
ATOM     26  C   UNL d   1      56.314   0.591  32.516  0.00  0.00     0.002 A 
ENDBRANCH  18  21
ENDBRANCH   1  16
TORSDOF 5
ENDMDL
