MODEL 1
REMARK VINA RESULT:     113.9      0.000      0.000
REMARK  7 active torsions:
REMARK  status: ('A' for Active; 'I' for Inactive)
REMARK    1  A    between atoms: C_11  and  C_3 
REMARK    2  A    between atoms: C_10  and  C_5 
REMARK    3  A    between atoms: O_22  and  C_13 
REMARK    4  A    between atoms: O_25  and  C_14 
REMARK    5  A    between atoms: O_24  and  C_15 
REMARK    6  A    between atoms: O_26  and  C_21 
REMARK    7  A    between atoms: C_30  and  O_26 
ROOT
ATOM      1  N   UNL d   1      58.963  49.280  52.021  0.00  0.00    -0.208 N 
ATOM      2  N   UNL d   1      58.158  49.244  51.856  0.00  0.00    -0.162 NA
ATOM      3  C   UNL d   1      59.372  49.335  52.734  0.00  0.00     0.184 A 
ATOM      4  C   UNL d   1      59.379  49.253  51.309  0.00  0.00     0.088 A 
ATOM      5  C   UNL d   1      58.074  49.194  51.031  0.00  0.00     0.126 A 
ATOM      6  O   UNL d   1      60.195  49.363  52.737  0.00  0.00    -0.287 OA
ATOM      7  C   UNL d   1      60.205  49.281  51.311  0.00  0.00     0.043 A 
ATOM      8  C   UNL d   1      60.611  49.335  52.025  0.00  0.00     0.126 A 
ATOM      9  C   UNL d   1      58.831  49.199  50.694  0.00  0.00     0.042 A 
ATOM     10  C   UNL d   1      61.429  49.363  52.035  0.00  0.00     0.123 A 
ATOM     11  C   UNL d   1      60.617  49.253  50.599  0.00  0.00     0.004 A 
ATOM     12  C   UNL d   1      61.436  49.280  50.602  0.00  0.00     0.002 A 
ATOM     13  C   UNL d   1      61.845  49.336  51.323  0.00  0.00     0.027 A 
ENDROOT
BRANCH   3  14
ATOM     14  C   UNL d   1      58.956  49.363  53.446  0.00  0.00     0.045 A 
ATOM     15  C   UNL d   1      59.357  49.522  54.157  0.00  0.00     0.030 A 
ATOM     16  C   UNL d   1      58.941  49.549  54.868  0.00  0.00     0.118 A 
ATOM     17  C   UNL d   1      58.130  49.420  54.881  0.00  0.00     0.138 A 
ATOM     18  C   UNL d   1      57.728  49.260  54.167  0.00  0.00     0.118 A 
ATOM     19  C   UNL d   1      58.144  49.233  53.455  0.00  0.00     0.030 A 
BRANCH  16  20
ATOM     20  O   UNL d   1      59.341  49.707  55.570  0.00  0.00    -0.326 OA
ATOM     21  C   UNL d   1      59.060  49.400  56.284  0.00  0.00     0.181 C 
ENDBRANCH  16  20
BRANCH  17  22
ATOM     22  O   UNL d   1      57.715  49.448  55.593  0.00  0.00    -0.324 OA
ATOM     23  C   UNL d   1      57.309  48.779  55.858  0.00  0.00     0.182 C 
ENDBRANCH  17  22
BRANCH  18  24
ATOM     24  O   UNL d   1      56.913  49.130  54.172  0.00  0.00    -0.326 OA
ATOM     25  C   UNL d   1      56.422  49.558  53.663  0.00  0.00     0.181 C 
ENDBRANCH  18  24
ENDBRANCH   3  14
BRANCH   5  26
ATOM     26  C   UNL d   1      57.354  49.146  50.616  0.00  0.00     0.119 A 
ATOM     27  O   UNL d   1      57.261  49.212  49.799  0.00  0.00    -0.306 OA
ATOM     28  C   UNL d   1      56.447  49.129  49.637  0.00  0.00     0.100 A 
ATOM     29  C   UNL d   1      56.107  49.159  48.888  0.00  0.00     0.027 C 
ATOM     30  C   UNL d   1      56.052  49.012  50.357  0.00  0.00     0.027 A 
ATOM     31  C   UNL d   1      56.598  49.020  50.966  0.00  0.00     0.028 A 
ENDBRANCH   5  26
BRANCH  10  32
ATOM     32  O   UNL d   1      61.839  49.418  52.749  0.00  0.00    -0.303 OA
BRANCH  32  33
ATOM     33  C   UNL d   1      62.327  48.800  53.000  0.00  0.00     0.123 C 
ATOM     34  C   UNL d   1      62.821  48.901  53.649  0.00  0.00     0.029 C 
ENDBRANCH  32  33
ENDBRANCH  10  32
TORSDOF 7
ENDMDL
