MODEL 1
REMARK VINA RESULT:      -1.5      0.000      0.000
REMARK  6 active torsions:
REMARK  status: ('A' for Active; 'I' for Inactive)
REMARK    1  A    between atoms: C_2  and  S_1 
REMARK    2  A    between atoms: N_3  and  S_1 
REMARK    3  A    between atoms: C_9  and  N_3 
REMARK    4  A    between atoms: C_13  and  C_7 
REMARK    5  A    between atoms: O_14  and  C_8 
REMARK    6  A    between atoms: C_20  and  O_14 
ROOT
ATOM      1  C   UNL d   1      57.840  -0.034  31.055  0.00  0.00     0.128 A 
ATOM      2  C   UNL d   1      57.102  -0.162  31.404  0.00  0.00     0.015 A 
ATOM      3  C   UNL d   1      56.976   0.043  32.193  0.00  0.00     0.001 A 
ATOM      4  C   UNL d   1      58.445   0.298  31.499  0.00  0.00     0.112 A 
ATOM      5  C   UNL d   1      57.589   0.377  32.633  0.00  0.00     0.002 A 
ATOM      6  C   UNL d   1      58.327   0.505  32.284  0.00  0.00     0.025 A 
ENDROOT
BRANCH   1   7
ATOM      7  S   UNL d   1      57.958  -0.241  30.269  0.00  0.00     0.287 S 
ATOM      8  O   UNL d   1      57.930  -1.035  30.462  0.00  0.00    -0.198 OA
ATOM      9  O   UNL d   1      57.986   0.559  30.070  0.00  0.00    -0.198 OA
BRANCH   7  10
ATOM     10  N   UNL d   1      58.077  -0.442  29.478  0.00  0.00    -0.157 NA
BRANCH  10  11
ATOM     11  C   UNL d   1      58.532  -1.103  29.286  0.00  0.00     0.113 A 
ATOM     12  C   UNL d   1      59.266  -1.008  28.936  0.00  0.00     0.119 A 
ATOM     13  N   UNL d   1      59.720  -1.670  28.745  0.00  0.00    -0.241 NA
ATOM     14  C   UNL d   1      59.435  -2.434  28.907  0.00  0.00     0.099 A 
ATOM     15  C   UNL d   1      58.693  -2.521  29.261  0.00  0.00     0.022 A 
ATOM     16  C   UNL d   1      58.238  -1.860  29.452  0.00  0.00     0.023 A 
ENDBRANCH  10  11
ENDBRANCH   7  10
ENDBRANCH   1   7
BRANCH   4  17
ATOM     17  O   UNL d   1      59.184   0.426  31.150  0.00  0.00    -0.304 OA
BRANCH  17  18
ATOM     18  C   UNL d   1      59.819   0.682  31.610  0.00  0.00     0.123 C 
ATOM     19  C   UNL d   1      60.584   0.682  31.296  0.00  0.00     0.029 C 
ENDBRANCH  17  18
ENDBRANCH   4  17
BRANCH   3  20
ATOM     20  C   UNL d   1      56.237  -0.085  32.542  0.00  0.00     0.000 C 
ATOM     21  C   UNL d   1      56.016  -0.845  32.774  0.00  0.00     0.000 C 
ATOM     22  C   UNL d   1      55.718   0.555  32.657  0.00  0.00     0.000 C 
ENDBRANCH   3  20
TORSDOF 6
ENDMDL
MODEL 2
REMARK VINA RESULT:       0.5      1.273      3.762
REMARK  6 active torsions:
REMARK  status: ('A' for Active; 'I' for Inactive)
REMARK    1  A    between atoms: C_2  and  S_1 
REMARK    2  A    between atoms: N_3  and  S_1 
REMARK    3  A    between atoms: C_9  and  N_3 
REMARK    4  A    between atoms: C_13  and  C_7 
REMARK    5  A    between atoms: O_14  and  C_8 
REMARK    6  A    between atoms: C_20  and  O_14 
ROOT
ATOM      1  C   UNL d   1      59.033  -1.151  29.184  0.00  0.00     0.128 A 
ATOM      2  C   UNL d   1      58.858  -1.958  29.168  0.00  0.00     0.015 A 
ATOM      3  C   UNL d   1      59.400  -2.493  28.850  0.00  0.00     0.001 A 
ATOM      4  C   UNL d   1      59.749  -0.886  28.883  0.00  0.00     0.112 A 
ATOM      5  C   UNL d   1      60.118  -2.219  28.549  0.00  0.00     0.002 A 
ATOM      6  C   UNL d   1      60.293  -1.412  28.566  0.00  0.00     0.025 A 
ENDROOT
BRANCH   1   7
ATOM      7  S   UNL d   1      58.488  -0.625  29.501  0.00  0.00     0.287 S 
ATOM      8  O   UNL d   1      58.841  -0.685  30.235  0.00  0.00    -0.198 OA
ATOM      9  O   UNL d   1      58.129  -0.562  28.761  0.00  0.00    -0.198 OA
BRANCH   7  10
ATOM     10  N   UNL d   1      57.937  -0.096  29.812  0.00  0.00    -0.157 NA
BRANCH  10  11
ATOM     11  C   UNL d   1      57.599  -0.243  30.551  0.00  0.00     0.113 A 
ATOM     12  C   UNL d   1      57.256  -0.968  30.708  0.00  0.00     0.119 A 
ATOM     13  N   UNL d   1      56.918  -1.115  31.446  0.00  0.00    -0.241 NA
ATOM     14  C   UNL d   1      56.926  -0.526  32.033  0.00  0.00     0.099 A 
ATOM     15  C   UNL d   1      57.275   0.206  31.867  0.00  0.00     0.022 A 
ATOM     16  C   UNL d   1      57.612   0.352  31.129  0.00  0.00     0.023 A 
ENDBRANCH  10  11
ENDBRANCH   7  10
ENDBRANCH   1   7
BRANCH   4  17
ATOM     17  O   UNL d   1      59.924  -0.078  28.899  0.00  0.00    -0.304 OA
BRANCH  17  18
ATOM     18  C   UNL d   1      60.553   0.218  28.455  0.00  0.00     0.123 C 
ATOM     19  C   UNL d   1      61.133   0.682  28.818  0.00  0.00     0.029 C 
ENDBRANCH  17  18
ENDBRANCH   4  17
BRANCH   3  20
ATOM     20  C   UNL d   1      59.225  -3.301  28.834  0.00  0.00     0.000 C 
ATOM     21  C   UNL d   1      59.827  -3.856  28.935  0.00  0.00     0.000 C 
ATOM     22  C   UNL d   1      58.441  -3.552  28.716  0.00  0.00     0.000 C 
ENDBRANCH   3  20
TORSDOF 6
ENDMDL
MODEL 3
REMARK VINA RESULT:       0.8      0.972      1.384
REMARK  6 active torsions:
REMARK  status: ('A' for Active; 'I' for Inactive)
REMARK    1  A    between atoms: C_2  and  S_1 
REMARK    2  A    between atoms: N_3  and  S_1 
REMARK    3  A    between atoms: C_9  and  N_3 
REMARK    4  A    between atoms: C_13  and  C_7 
REMARK    5  A    between atoms: O_14  and  C_8 
REMARK    6  A    between atoms: C_20  and  O_14 
ROOT
ATOM      1  C   UNL d   1      57.233   0.338  31.817  0.00  0.00     0.128 A 
ATOM      2  C   UNL d   1      56.461   0.173  32.059  0.00  0.00     0.015 A 
ATOM      3  C   UNL d   1      56.270   0.170  32.862  0.00  0.00     0.001 A 
ATOM      4  C   UNL d   1      57.808   0.499  32.380  0.00  0.00     0.112 A 
ATOM      5  C   UNL d   1      56.854   0.333  33.423  0.00  0.00     0.002 A 
ATOM      6  C   UNL d   1      57.626   0.498  33.180  0.00  0.00     0.025 A 
ENDROOT
BRANCH   1   7
ATOM      7  S   UNL d   1      57.415   0.339  31.016  0.00  0.00     0.287 S 
ATOM      8  O   UNL d   1      56.675   0.636  30.837  0.00  0.00    -0.198 OA
ATOM      9  O   UNL d   1      58.163   0.039  31.193  0.00  0.00    -0.198 OA
BRANCH   7  10
ATOM     10  N   UNL d   1      57.605   0.337  30.213  0.00  0.00    -0.157 NA
BRANCH  10  11
ATOM     11  C   UNL d   1      57.984  -0.318  29.883  0.00  0.00     0.113 A 
ATOM     12  C   UNL d   1      57.666  -1.066  29.976  0.00  0.00     0.119 A 
ATOM     13  N   UNL d   1      58.045  -1.720  29.646  0.00  0.00    -0.241 NA
ATOM     14  C   UNL d   1      58.752  -1.621  29.218  0.00  0.00     0.099 A 
ATOM     15  C   UNL d   1      59.067  -0.862  29.129  0.00  0.00     0.022 A 
ATOM     16  C   UNL d   1      58.688  -0.208  29.459  0.00  0.00     0.023 A 
ENDBRANCH  10  11
ENDBRANCH   7  10
ENDBRANCH   1   7
BRANCH   4  17
ATOM     17  O   UNL d   1      58.581   0.665  32.137  0.00  0.00    -0.304 OA
BRANCH  17  18
ATOM     18  C   UNL d   1      59.193   0.682  32.691  0.00  0.00     0.123 C 
ATOM     19  C   UNL d   1      59.977   0.594  32.444  0.00  0.00     0.029 C 
ENDBRANCH  17  18
ENDBRANCH   4  17
BRANCH   3  20
ATOM     20  C   UNL d   1      55.497   0.004  33.105  0.00  0.00     0.000 C 
ATOM     21  C   UNL d   1      54.996   0.618  33.332  0.00  0.00     0.000 C 
ATOM     22  C   UNL d   1      55.228  -0.782  33.118  0.00  0.00     0.000 C 
ENDBRANCH   3  20
TORSDOF 6
ENDMDL
