MODEL 1
REMARK VINA RESULT:      -5.9      0.000      0.000
REMARK  6 active torsions:
REMARK  status: ('A' for Active; 'I' for Inactive)
REMARK    1  A    between atoms: S_2  and  N_1 
REMARK    2  A    between atoms: C_11  and  S_2 
REMARK    3  A    between atoms: C_6  and  C_4 
REMARK    4  A    between atoms: C_12  and  C_5 
REMARK    5  A    between atoms: O_14  and  C_8 
REMARK    6  A    between atoms: O_16  and  C_13 
ROOT
ATOM      1  N   UNL d   1     -47.571  13.602  22.195  0.00  0.00    -0.152 N 
ATOM      2  N   UNL d   1     -46.743  13.740  22.201  0.00  0.00    -0.155 NA
ATOM      3  C   UNL d   1     -47.712  12.795  22.091  0.00  0.00     0.098 A 
ATOM      4  C   UNL d   1     -46.371  13.012  22.100  0.00  0.00     0.104 A 
ATOM      5  C   UNL d   1     -46.976  12.436  22.033  0.00  0.00     0.041 A 
ENDROOT
BRANCH   3   6
ATOM      6  C   UNL d   1     -48.448  12.424  22.052  0.00  0.00     0.043 A 
ATOM      7  C   UNL d   1     -48.716  11.972  22.689  0.00  0.00     0.118 A 
ATOM      8  C   UNL d   1     -49.452  11.601  22.651  0.00  0.00     0.116 A 
ATOM      9  C   UNL d   1     -49.896  11.695  21.977  0.00  0.00     0.026 A 
ATOM     10  C   UNL d   1     -49.653  12.136  21.333  0.00  0.00     0.002 A 
ATOM     11  C   UNL d   1     -48.917  12.507  21.371  0.00  0.00     0.004 A 
BRANCH   7  12
ATOM     12  O   UNL d   1     -48.248  11.892  23.364  0.00  0.00    -0.326 OA
ATOM     13  C   UNL d   1     -48.067  11.140  23.652  0.00  0.00     0.181 C 
ENDBRANCH   7  12
BRANCH   8  14
ATOM     14  O   UNL d   1     -49.696  11.162  23.288  0.00  0.00    -0.326 OA
ATOM     15  C   UNL d   1     -50.380  11.313  23.698  0.00  0.00     0.181 C 
ENDBRANCH   8  14
ENDBRANCH   3   6
BRANCH   1  16
ATOM     16  S   UNL d   1     -48.148  14.193  22.281  0.00  0.00     0.286 S 
ATOM     17  O   UNL d   1     -48.658  14.561  21.747  0.00  0.00    -0.198 OA
ATOM     18  O   UNL d   1     -48.219  14.461  23.062  0.00  0.00    -0.198 OA
BRANCH  16  19
ATOM     19  C   UNL d   1     -48.671  14.775  22.543  0.00  0.00     0.105 A 
ATOM     20  C   UNL d   1     -48.485  15.195  23.199  0.00  0.00     0.013 A 
ATOM     21  C   UNL d   1     -49.009  15.780  23.464  0.00  0.00     0.001 A 
ATOM     22  C   UNL d   1     -49.710  15.922  23.053  0.00  0.00     0.000 A 
ATOM     23  C   UNL d   1     -49.887  15.478  22.376  0.00  0.00     0.001 A 
ATOM     24  C   UNL d   1     -49.372  14.917  22.132  0.00  0.00     0.013 A 
ENDBRANCH  16  19
ENDBRANCH   1  16
BRANCH   4  25
ATOM     25  C   UNL d   1     -45.574  12.897  22.074  0.00  0.00     0.019 A 
ATOM     26  C   UNL d   1     -45.221  12.363  22.601  0.00  0.00     0.002 A 
ATOM     27  C   UNL d   1     -44.404  12.229  22.593  0.00  0.00     0.000 A 
ATOM     28  C   UNL d   1     -43.943  12.630  22.055  0.00  0.00     0.000 A 
ATOM     29  C   UNL d   1     -44.276  13.169  21.517  0.00  0.00     0.000 A 
ATOM     30  C   UNL d   1     -45.113  13.295  21.540  0.00  0.00     0.002 A 
ENDBRANCH   4  25
TORSDOF 6
ENDMDL
MODEL 2
REMARK VINA RESULT:      -5.6      6.171      8.888
REMARK  6 active torsions:
REMARK  status: ('A' for Active; 'I' for Inactive)
REMARK    1  A    between atoms: S_2  and  N_1 
REMARK    2  A    between atoms: C_11  and  S_2 
REMARK    3  A    between atoms: C_6  and  C_4 
REMARK    4  A    between atoms: C_12  and  C_5 
REMARK    5  A    between atoms: O_14  and  C_8 
REMARK    6  A    between atoms: O_16  and  C_13 
ROOT
ATOM      1  N   UNL d   1     -40.290  14.574  19.810  0.00  0.00    -0.152 N 
ATOM      2  N   UNL d   1     -40.281  14.504  18.973  0.00  0.00    -0.155 NA
ATOM      3  C   UNL d   1     -39.541  14.806  20.072  0.00  0.00     0.098 A 
ATOM      4  C   UNL d   1     -39.521  14.695  18.719  0.00  0.00     0.104 A 
ATOM      5  C   UNL d   1     -39.073  14.879  19.402  0.00  0.00     0.041 A 
ENDROOT
BRANCH   3   6
ATOM      6  C   UNL d   1     -39.312  14.937  20.854  0.00  0.00     0.043 A 
ATOM      7  C   UNL d   1     -38.873  14.366  21.257  0.00  0.00     0.118 A 
ATOM      8  C   UNL d   1     -38.644  14.497  22.038  0.00  0.00     0.116 A 
ATOM      9  C   UNL d   1     -38.862  15.196  22.391  0.00  0.00     0.026 A 
ATOM     10  C   UNL d   1     -39.296  15.778  22.014  0.00  0.00     0.002 A 
ATOM     11  C   UNL d   1     -39.525  15.646  21.233  0.00  0.00     0.004 A 
BRANCH   7  12
ATOM     12  O   UNL d   1     -38.664  13.664  20.878  0.00  0.00    -0.326 OA
ATOM     13  C   UNL d   1     -37.940  13.307  21.044  0.00  0.00     0.181 C 
ENDBRANCH   7  12
BRANCH   8  14
ATOM     14  O   UNL d   1     -38.214  13.922  22.415  0.00  0.00    -0.326 OA
ATOM     15  C   UNL d   1     -38.185  13.843  23.222  0.00  0.00     0.181 C 
ENDBRANCH   8  14
ENDBRANCH   3   6
BRANCH   1  16
ATOM     16  S   UNL d   1     -40.953  14.429  20.287  0.00  0.00     0.286 S 
ATOM     17  O   UNL d   1     -41.322  14.865  20.883  0.00  0.00    -0.198 OA
ATOM     18  O   UNL d   1     -41.311  13.699  20.127  0.00  0.00    -0.198 OA
BRANCH  16  19
ATOM     19  C   UNL d   1     -41.621  14.127  20.667  0.00  0.00     0.105 A 
ATOM     20  C   UNL d   1     -42.174  14.636  20.941  0.00  0.00     0.013 A 
ATOM     21  C   UNL d   1     -42.845  14.334  21.323  0.00  0.00     0.001 A 
ATOM     22  C   UNL d   1     -42.934  13.519  21.415  0.00  0.00     0.000 A 
ATOM     23  C   UNL d   1     -42.351  13.006  21.126  0.00  0.00     0.001 A 
ATOM     24  C   UNL d   1     -41.710  13.312  20.760  0.00  0.00     0.013 A 
ENDBRANCH  16  19
ENDBRANCH   1  16
BRANCH   4  25
ATOM     25  C   UNL d   1     -39.274  14.698  17.951  0.00  0.00     0.019 A 
ATOM     26  C   UNL d   1     -38.978  14.000  17.615  0.00  0.00     0.002 A 
ATOM     27  C   UNL d   1     -38.720  13.980  16.828  0.00  0.00     0.000 A 
ATOM     28  C   UNL d   1     -38.758  14.659  16.381  0.00  0.00     0.000 A 
ATOM     29  C   UNL d   1     -39.052  15.370  16.699  0.00  0.00     0.000 A 
ATOM     30  C   UNL d   1     -39.312  15.373  17.505  0.00  0.00     0.002 A 
ENDBRANCH   4  25
TORSDOF 6
ENDMDL
MODEL 3
REMARK VINA RESULT:      -5.2      5.591      8.622
REMARK  6 active torsions:
REMARK  status: ('A' for Active; 'I' for Inactive)
REMARK    1  A    between atoms: S_2  and  N_1 
REMARK    2  A    between atoms: C_11  and  S_2 
REMARK    3  A    between atoms: C_6  and  C_4 
REMARK    4  A    between atoms: C_12  and  C_5 
REMARK    5  A    between atoms: O_14  and  C_8 
REMARK    6  A    between atoms: O_16  and  C_13 
ROOT
ATOM      1  N   UNL d   1     -40.972  14.065  20.079  0.00  0.00    -0.152 N 
ATOM      2  N   UNL d   1     -41.701  13.649  20.107  0.00  0.00    -0.155 NA
ATOM      3  C   UNL d   1     -40.769  14.311  20.841  0.00  0.00     0.098 A 
ATOM      4  C   UNL d   1     -41.949  13.639  20.893  0.00  0.00     0.104 A 
ATOM      5  C   UNL d   1     -41.369  14.049  21.337  0.00  0.00     0.041 A 
ENDROOT
BRANCH   3   6
ATOM      6  C   UNL d   1     -40.096  14.736  21.058  0.00  0.00     0.043 A 
ATOM      7  C   UNL d   1     -39.552  14.406  21.585  0.00  0.00     0.118 A 
ATOM      8  C   UNL d   1     -38.879  14.831  21.802  0.00  0.00     0.116 A 
ATOM      9  C   UNL d   1     -38.773  15.572  21.486  0.00  0.00     0.026 A 
ATOM     10  C   UNL d   1     -39.296  15.921  20.962  0.00  0.00     0.002 A 
ATOM     11  C   UNL d   1     -39.969  15.496  20.745  0.00  0.00     0.004 A 
BRANCH   7  12
ATOM     12  O   UNL d   1     -39.682  13.652  21.893  0.00  0.00    -0.326 OA
ATOM     13  C   UNL d   1     -39.092  13.282  22.335  0.00  0.00     0.181 C 
ENDBRANCH   7  12
BRANCH   8  14
ATOM     14  O   UNL d   1     -38.358  14.489  22.321  0.00  0.00    -0.326 OA
ATOM     15  C   UNL d   1     -37.940  14.908  22.874  0.00  0.00     0.181 C 
ENDBRANCH   8  14
ENDBRANCH   3   6
BRANCH   1  16
ATOM     16  S   UNL d   1     -40.534  14.200  19.387  0.00  0.00     0.286 S 
ATOM     17  O   UNL d   1     -39.887  14.684  19.218  0.00  0.00    -0.198 OA
ATOM     18  O   UNL d   1     -40.808  13.757  18.742  0.00  0.00    -0.198 OA
BRANCH  16  19
ATOM     19  C   UNL d   1     -40.216  14.213  18.625  0.00  0.00     0.105 A 
ATOM     20  C   UNL d   1     -40.499  14.742  18.096  0.00  0.00     0.013 A 
ATOM     21  C   UNL d   1     -40.181  14.756  17.331  0.00  0.00     0.001 A 
ATOM     22  C   UNL d   1     -39.580  14.229  17.126  0.00  0.00     0.000 A 
ATOM     23  C   UNL d   1     -39.298  13.687  17.687  0.00  0.00     0.001 A 
ATOM     24  C   UNL d   1     -39.615  13.686  18.420  0.00  0.00     0.013 A 
ENDBRANCH  16  19
ENDBRANCH   1  16
BRANCH   4  25
ATOM     25  C   UNL d   1     -42.625  13.295  21.163  0.00  0.00     0.019 A 
ATOM     26  C   UNL d   1     -42.591  12.539  21.502  0.00  0.00     0.002 A 
ATOM     27  C   UNL d   1     -43.273  12.165  21.786  0.00  0.00     0.000 A 
ATOM     28  C   UNL d   1     -43.988  12.550  21.730  0.00  0.00     0.000 A 
ATOM     29  C   UNL d   1     -44.045  13.309  21.394  0.00  0.00     0.000 A 
ATOM     30  C   UNL d   1     -43.337  13.676  21.108  0.00  0.00     0.002 A 
ENDBRANCH   4  25
TORSDOF 6
ENDMDL
MODEL 4
REMARK VINA RESULT:      -4.0      1.174      1.765
REMARK  6 active torsions:
REMARK  status: ('A' for Active; 'I' for Inactive)
REMARK    1  A    between atoms: S_2  and  N_1 
REMARK    2  A    between atoms: C_11  and  S_2 
REMARK    3  A    between atoms: C_6  and  C_4 
REMARK    4  A    between atoms: C_12  and  C_5 
REMARK    5  A    between atoms: O_14  and  C_8 
REMARK    6  A    between atoms: O_16  and  C_13 
ROOT
ATOM      1  N   UNL d   1     -47.534  12.868  23.012  0.00  0.00    -0.152 N 
ATOM      2  N   UNL d   1     -46.710  12.720  23.066  0.00  0.00    -0.155 NA
ATOM      3  C   UNL d   1     -47.942  12.151  23.040  0.00  0.00     0.098 A 
ATOM      4  C   UNL d   1     -46.610  11.904  23.127  0.00  0.00     0.104 A 
ATOM      5  C   UNL d   1     -47.374  11.563  23.110  0.00  0.00     0.041 A 
ENDROOT
BRANCH   3   6
ATOM      6  C   UNL d   1     -48.760  12.047  23.003  0.00  0.00     0.043 A 
ATOM      7  C   UNL d   1     -49.125  11.891  22.279  0.00  0.00     0.118 A 
ATOM      8  C   UNL d   1     -49.942  11.788  22.242  0.00  0.00     0.116 A 
ATOM      9  C   UNL d   1     -50.369  11.845  22.931  0.00  0.00     0.026 A 
ATOM     10  C   UNL d   1     -50.032  11.999  23.661  0.00  0.00     0.002 A 
ATOM     11  C   UNL d   1     -49.214  12.102  23.698  0.00  0.00     0.004 A 
BRANCH   7  12
ATOM     12  O   UNL d   1     -48.671  11.838  21.592  0.00  0.00    -0.326 OA
ATOM     13  C   UNL d   1     -48.884  11.307  20.998  0.00  0.00     0.181 C 
ENDBRANCH   7  12
BRANCH   8  14
ATOM     14  O   UNL d   1     -50.279  11.636  21.521  0.00  0.00    -0.326 OA
ATOM     15  C   UNL d   1     -50.658  12.200  21.077  0.00  0.00     0.181 C 
ENDBRANCH   8  14
ENDBRANCH   3   6
BRANCH   1  16
ATOM     16  S   UNL d   1     -47.873  13.623  22.942  0.00  0.00     0.286 S 
ATOM     17  O   UNL d   1     -48.498  13.996  23.332  0.00  0.00    -0.198 OA
ATOM     18  O   UNL d   1     -47.505  14.088  22.363  0.00  0.00    -0.198 OA
BRANCH  16  19
ATOM     19  C   UNL d   1     -48.082  14.396  22.742  0.00  0.00     0.105 A 
ATOM     20  C   UNL d   1     -48.647  14.767  23.170  0.00  0.00     0.013 A 
ATOM     21  C   UNL d   1     -48.859  15.543  22.970  0.00  0.00     0.001 A 
ATOM     22  C   UNL d   1     -48.486  15.921  22.338  0.00  0.00     0.000 A 
ATOM     23  C   UNL d   1     -47.903  15.522  21.906  0.00  0.00     0.001 A 
ATOM     24  C   UNL d   1     -47.710  14.774  22.110  0.00  0.00     0.013 A 
ENDBRANCH  16  19
ENDBRANCH   1  16
BRANCH   4  25
ATOM     25  C   UNL d   1     -45.901  11.526  23.191  0.00  0.00     0.019 A 
ATOM     26  C   UNL d   1     -45.238  11.831  22.797  0.00  0.00     0.002 A 
ATOM     27  C   UNL d   1     -44.500  11.460  22.848  0.00  0.00     0.000 A 
ATOM     28  C   UNL d   1     -44.428  10.783  23.294  0.00  0.00     0.000 A 
ATOM     29  C   UNL d   1     -45.079  10.459  23.698  0.00  0.00     0.000 A 
ATOM     30  C   UNL d   1     -45.827  10.853  23.634  0.00  0.00     0.002 A 
ENDBRANCH   4  25
TORSDOF 6
ENDMDL
MODEL 5
REMARK VINA RESULT:      -3.8      5.820      8.857
REMARK  6 active torsions:
REMARK  status: ('A' for Active; 'I' for Inactive)
REMARK    1  A    between atoms: S_2  and  N_1 
REMARK    2  A    between atoms: C_11  and  S_2 
REMARK    3  A    between atoms: C_6  and  C_4 
REMARK    4  A    between atoms: C_12  and  C_5 
REMARK    5  A    between atoms: O_14  and  C_8 
REMARK    6  A    between atoms: O_16  and  C_13 
ROOT
ATOM      1  N   UNL d   1     -40.275  14.002  21.350  0.00  0.00    -0.152 N 
ATOM      2  N   UNL d   1     -40.966  13.730  21.741  0.00  0.00    -0.155 NA
ATOM      3  C   UNL d   1     -40.375  13.922  20.534  0.00  0.00     0.098 A 
ATOM      4  C   UNL d   1     -41.496  13.481  21.161  0.00  0.00     0.104 A 
ATOM      5  C   UNL d   1     -41.122  13.603  20.421  0.00  0.00     0.041 A 
ENDROOT
BRANCH   3   6
ATOM      6  C   UNL d   1     -39.829  14.124  19.949  0.00  0.00     0.043 A 
ATOM      7  C   UNL d   1     -39.990  14.747  19.432  0.00  0.00     0.118 A 
ATOM      8  C   UNL d   1     -39.444  14.949  18.847  0.00  0.00     0.116 A 
ATOM      9  C   UNL d   1     -38.755  14.522  18.799  0.00  0.00     0.026 A 
ATOM     10  C   UNL d   1     -38.572  13.900  19.298  0.00  0.00     0.002 A 
ATOM     11  C   UNL d   1     -39.118  13.698  19.883  0.00  0.00     0.004 A 
BRANCH   7  12
ATOM     12  O   UNL d   1     -40.696  15.168  19.500  0.00  0.00    -0.326 OA
ATOM     13  C   UNL d   1     -40.810  15.855  19.058  0.00  0.00     0.181 C 
ENDBRANCH   7  12
BRANCH   8  14
ATOM     14  O   UNL d   1     -39.622  15.565  18.350  0.00  0.00    -0.326 OA
ATOM     15  C   UNL d   1     -39.102  15.861  17.803  0.00  0.00     0.181 C 
ENDBRANCH   8  14
ENDBRANCH   3   6
BRANCH   1  16
ATOM     16  S   UNL d   1     -39.604  14.303  21.735  0.00  0.00     0.286 S 
ATOM     17  O   UNL d   1     -38.800  14.122  21.685  0.00  0.00    -0.198 OA
ATOM     18  O   UNL d   1     -39.786  14.904  22.275  0.00  0.00    -0.198 OA
BRANCH  16  19
ATOM     19  C   UNL d   1     -39.059  14.710  22.202  0.00  0.00     0.105 A 
ATOM     20  C   UNL d   1     -39.110  15.507  22.250  0.00  0.00     0.013 A 
ATOM     21  C   UNL d   1     -38.563  15.918  22.718  0.00  0.00     0.001 A 
ATOM     22  C   UNL d   1     -37.978  15.504  23.126  0.00  0.00     0.000 A 
ATOM     23  C   UNL d   1     -37.939  14.678  23.066  0.00  0.00     0.001 A 
ATOM     24  C   UNL d   1     -38.473  14.296  22.610  0.00  0.00     0.013 A 
ENDBRANCH  16  19
ENDBRANCH   1  16
BRANCH   4  25
ATOM     25  C   UNL d   1     -42.230  13.179  21.300  0.00  0.00     0.019 A 
ATOM     26  C   UNL d   1     -42.304  12.423  21.632  0.00  0.00     0.002 A 
ATOM     27  C   UNL d   1     -43.048  12.092  21.784  0.00  0.00     0.000 A 
ATOM     28  C   UNL d   1     -43.716  12.521  21.602  0.00  0.00     0.000 A 
ATOM     29  C   UNL d   1     -43.664  13.281  21.268  0.00  0.00     0.000 A 
ATOM     30  C   UNL d   1     -42.895  13.603  21.120  0.00  0.00     0.002 A 
ENDBRANCH   4  25
TORSDOF 6
ENDMDL
MODEL 6
REMARK VINA RESULT:      -3.8      8.475      9.937
REMARK  6 active torsions:
REMARK  status: ('A' for Active; 'I' for Inactive)
REMARK    1  A    between atoms: S_2  and  N_1 
REMARK    2  A    between atoms: C_11  and  S_2 
REMARK    3  A    between atoms: C_6  and  C_4 
REMARK    4  A    between atoms: C_12  and  C_5 
REMARK    5  A    between atoms: O_14  and  C_8 
REMARK    6  A    between atoms: O_16  and  C_13 
ROOT
ATOM      1  N   UNL d   1     -38.935  13.870  18.680  0.00  0.00    -0.152 N 
ATOM      2  N   UNL d   1     -38.630  13.100  18.813  0.00  0.00    -0.155 NA
ATOM      3  C   UNL d   1     -39.159  13.942  17.888  0.00  0.00     0.098 A 
ATOM      4  C   UNL d   1     -38.667  12.693  18.097  0.00  0.00     0.104 A 
ATOM      5  C   UNL d   1     -38.994  13.220  17.534  0.00  0.00     0.041 A 
ENDROOT
BRANCH   3   6
ATOM      6  C   UNL d   1     -39.485  14.608  17.527  0.00  0.00     0.043 A 
ATOM      7  C   UNL d   1     -40.295  14.640  17.374  0.00  0.00     0.118 A 
ATOM      8  C   UNL d   1     -40.621  15.307  17.012  0.00  0.00     0.116 A 
ATOM      9  C   UNL d   1     -40.125  15.919  16.816  0.00  0.00     0.026 A 
ATOM     10  C   UNL d   1     -39.319  15.912  16.957  0.00  0.00     0.002 A 
ATOM     11  C   UNL d   1     -38.993  15.246  17.318  0.00  0.00     0.004 A 
BRANCH   7  12
ATOM     12  O   UNL d   1     -40.779  14.006  17.582  0.00  0.00    -0.326 OA
ATOM     13  C   UNL d   1     -41.510  14.146  17.938  0.00  0.00     0.181 C 
ENDBRANCH   7  12
BRANCH   8  14
ATOM     14  O   UNL d   1     -41.419  15.317  16.871  0.00  0.00    -0.326 OA
ATOM     15  C   UNL d   1     -41.779  15.856  16.384  0.00  0.00     0.181 C 
ENDBRANCH   8  14
ENDBRANCH   3   6
BRANCH   1  16
ATOM     16  S   UNL d   1     -38.997  14.459  19.262  0.00  0.00     0.286 S 
ATOM     17  O   UNL d   1     -39.479  15.125  19.339  0.00  0.00    -0.198 OA
ATOM     18  O   UNL d   1     -38.464  14.349  19.888  0.00  0.00    -0.198 OA
BRANCH  16  19
ATOM     19  C   UNL d   1     -38.923  14.949  19.922  0.00  0.00     0.105 A 
ATOM     20  C   UNL d   1     -38.222  15.309  20.060  0.00  0.00     0.013 A 
ATOM     21  C   UNL d   1     -38.145  15.802  20.723  0.00  0.00     0.001 A 
ATOM     22  C   UNL d   1     -38.788  15.914  21.228  0.00  0.00     0.000 A 
ATOM     23  C   UNL d   1     -39.507  15.533  21.070  0.00  0.00     0.001 A 
ATOM     24  C   UNL d   1     -39.565  15.061  20.428  0.00  0.00     0.013 A 
ENDBRANCH  16  19
ENDBRANCH   1  16
BRANCH   4  25
ATOM     25  C   UNL d   1     -38.428  11.933  17.982  0.00  0.00     0.019 A 
ATOM     26  C   UNL d   1     -38.333  11.648  17.209  0.00  0.00     0.002 A 
ATOM     27  C   UNL d   1     -38.088  10.869  17.066  0.00  0.00     0.000 A 
ATOM     28  C   UNL d   1     -37.940  10.378  17.698  0.00  0.00     0.000 A 
ATOM     29  C   UNL d   1     -38.029  10.644  18.481  0.00  0.00     0.000 A 
ATOM     30  C   UNL d   1     -38.280  11.443  18.609  0.00  0.00     0.002 A 
ENDBRANCH   4  25
TORSDOF 6
ENDMDL
