MODEL 1
REMARK VINA RESULT:      -4.0      0.000      0.000
REMARK  7 active torsions:
REMARK  status: ('A' for Active; 'I' for Inactive)
REMARK    1  A    between atoms: C_11  and  C_3 
REMARK    2  A    between atoms: C_10  and  C_5 
REMARK    3  A    between atoms: O_22  and  C_13 
REMARK    4  A    between atoms: O_25  and  C_14 
REMARK    5  A    between atoms: O_24  and  C_15 
REMARK    6  A    between atoms: O_26  and  C_21 
REMARK    7  A    between atoms: C_30  and  O_26 
ROOT
ATOM      1  N   UNL d   1      52.668  32.291  53.436  0.00  0.00    -0.208 N 
ATOM      2  N   UNL d   1      52.394  33.044  53.250  0.00  0.00    -0.162 NA
ATOM      3  C   UNL d   1      53.345  32.038  53.834  0.00  0.00     0.184 A 
ATOM      4  C   UNL d   1      52.129  31.737  53.148  0.00  0.00     0.088 A 
ATOM      5  C   UNL d   1      51.676  32.955  52.842  0.00  0.00     0.126 A 
ATOM      6  O   UNL d   1      53.482  31.235  53.944  0.00  0.00    -0.287 OA
ATOM      7  C   UNL d   1      52.267  30.929  53.259  0.00  0.00     0.043 A 
ATOM      8  C   UNL d   1      52.943  30.680  53.656  0.00  0.00     0.126 A 
ATOM      9  C   UNL d   1      51.514  32.145  52.780  0.00  0.00     0.042 A 
ATOM     10  C   UNL d   1      53.087  29.882  53.770  0.00  0.00     0.123 A 
ATOM     11  C   UNL d   1      51.727  30.379  52.971  0.00  0.00     0.004 A 
ATOM     12  C   UNL d   1      51.864  29.579  53.081  0.00  0.00     0.002 A 
ATOM     13  C   UNL d   1      52.548  29.328  53.482  0.00  0.00     0.027 A 
ENDROOT
BRANCH   3  14
ATOM     14  C   UNL d   1      53.884  32.593  54.121  0.00  0.00     0.045 A 
ATOM     15  C   UNL d   1      53.693  33.052  54.786  0.00  0.00     0.030 A 
ATOM     16  C   UNL d   1      54.232  33.607  55.074  0.00  0.00     0.118 A 
ATOM     17  C   UNL d   1      54.959  33.709  54.706  0.00  0.00     0.138 A 
ATOM     18  C   UNL d   1      55.150  33.247  54.037  0.00  0.00     0.118 A 
ATOM     19  C   UNL d   1      54.611  32.692  53.750  0.00  0.00     0.030 A 
BRANCH  16  20
ATOM     20  O   UNL d   1      54.040  34.060  55.733  0.00  0.00    -0.326 OA
ATOM     21  C   UNL d   1      53.351  34.519  55.733  0.00  0.00     0.181 C 
ENDBRANCH  16  20
BRANCH  17  22
ATOM     22  O   UNL d   1      55.498  34.263  54.994  0.00  0.00    -0.324 OA
ATOM     23  C   UNL d   1      55.939  34.093  55.671  0.00  0.00     0.182 C 
ENDBRANCH  17  22
BRANCH  18  24
ATOM     24  O   UNL d   1      55.879  33.344  53.663  0.00  0.00    -0.326 OA
ATOM     25  C   UNL d   1      55.937  33.261  52.842  0.00  0.00     0.181 C 
ENDBRANCH  18  24
ENDBRANCH   3  14
BRANCH   5  26
ATOM     26  C   UNL d   1      51.203  33.573  52.547  0.00  0.00     0.119 A 
ATOM     27  O   UNL d   1      50.475  33.814  52.851  0.00  0.00    -0.306 OA
ATOM     28  C   UNL d   1      50.209  34.448  52.379  0.00  0.00     0.100 A 
ATOM     29  C   UNL d   1      49.503  34.856  52.487  0.00  0.00     0.027 C 
ATOM     30  C   UNL d   1      50.777  34.587  51.791  0.00  0.00     0.027 A 
ATOM     31  C   UNL d   1      51.394  34.057  51.883  0.00  0.00     0.028 A 
ENDBRANCH   5  26
BRANCH  10  32
ATOM     32  O   UNL d   1      53.764  29.629  54.168  0.00  0.00    -0.303 OA
BRANCH  32  33
ATOM     33  C   UNL d   1      53.827  28.848  54.431  0.00  0.00     0.123 C 
ATOM     34  C   UNL d   1      54.073  28.689  55.199  0.00  0.00     0.029 C 
ENDBRANCH  32  33
ENDBRANCH  10  32
TORSDOF 7
ENDMDL
MODEL 2
REMARK VINA RESULT:      -3.0      1.293      3.903
REMARK  7 active torsions:
REMARK  status: ('A' for Active; 'I' for Inactive)
REMARK    1  A    between atoms: C_11  and  C_3 
REMARK    2  A    between atoms: C_10  and  C_5 
REMARK    3  A    between atoms: O_22  and  C_13 
REMARK    4  A    between atoms: O_25  and  C_14 
REMARK    5  A    between atoms: O_24  and  C_15 
REMARK    6  A    between atoms: O_26  and  C_21 
REMARK    7  A    between atoms: C_30  and  O_26 
ROOT
ATOM      1  N   UNL d   1      51.970  33.547  53.195  0.00  0.00    -0.208 N 
ATOM      2  N   UNL d   1      51.379  33.398  52.644  0.00  0.00    -0.162 NA
ATOM      3  C   UNL d   1      52.510  33.045  53.566  0.00  0.00     0.184 A 
ATOM      4  C   UNL d   1      51.974  34.354  53.366  0.00  0.00     0.088 A 
ATOM      5  C   UNL d   1      51.010  34.122  52.470  0.00  0.00     0.126 A 
ATOM      6  O   UNL d   1      53.052  33.350  54.105  0.00  0.00    -0.287 OA
ATOM      7  C   UNL d   1      52.518  34.660  53.908  0.00  0.00     0.043 A 
ATOM      8  C   UNL d   1      53.056  34.157  54.276  0.00  0.00     0.126 A 
ATOM      9  C   UNL d   1      51.381  34.712  52.918  0.00  0.00     0.042 A 
ATOM     10  C   UNL d   1      53.598  34.453  54.814  0.00  0.00     0.123 A 
ATOM     11  C   UNL d   1      52.520  35.465  54.076  0.00  0.00     0.004 A 
ATOM     12  C   UNL d   1      53.059  35.769  54.612  0.00  0.00     0.002 A 
ATOM     13  C   UNL d   1      53.602  35.260  54.984  0.00  0.00     0.027 A 
ENDROOT
BRANCH   3  14
ATOM     14  C   UNL d   1      52.507  32.238  53.395  0.00  0.00     0.045 A 
ATOM     15  C   UNL d   1      53.164  31.888  53.026  0.00  0.00     0.030 A 
ATOM     16  C   UNL d   1      53.160  31.081  52.856  0.00  0.00     0.118 A 
ATOM     17  C   UNL d   1      52.510  30.619  53.048  0.00  0.00     0.138 A 
ATOM     18  C   UNL d   1      51.849  30.971  53.419  0.00  0.00     0.118 A 
ATOM     19  C   UNL d   1      51.853  31.778  53.589  0.00  0.00     0.030 A 
BRANCH  16  20
ATOM     20  O   UNL d   1      53.813  30.738  52.490  0.00  0.00    -0.326 OA
ATOM     21  C   UNL d   1      54.575  30.994  52.680  0.00  0.00     0.181 C 
ENDBRANCH  16  20
BRANCH  17  22
ATOM     22  O   UNL d   1      52.507  29.812  52.877  0.00  0.00    -0.324 OA
ATOM     23  C   UNL d   1      52.758  29.271  53.448  0.00  0.00     0.182 C 
ENDBRANCH  17  22
BRANCH  18  24
ATOM     24  O   UNL d   1      51.192  30.512  53.615  0.00  0.00    -0.326 OA
ATOM     25  C   UNL d   1      50.435  30.842  53.590  0.00  0.00     0.181 C 
ENDBRANCH  18  24
ENDBRANCH   3  14
BRANCH   5  26
ATOM     26  C   UNL d   1      50.380  34.234  51.939  0.00  0.00     0.119 A 
ATOM     27  O   UNL d   1      49.606  34.436  52.141  0.00  0.00    -0.306 OA
ATOM     28  C   UNL d   1      49.172  34.487  51.431  0.00  0.00     0.100 A 
ATOM     29  C   UNL d   1      48.373  34.676  51.377  0.00  0.00     0.027 C 
ATOM     30  C   UNL d   1      49.685  34.315  50.803  0.00  0.00     0.027 A 
ATOM     31  C   UNL d   1      50.431  34.158  51.101  0.00  0.00     0.028 A 
ENDBRANCH   5  26
BRANCH  10  32
ATOM     32  O   UNL d   1      54.138  33.952  55.184  0.00  0.00    -0.303 OA
BRANCH  32  33
ATOM     33  C   UNL d   1      54.910  34.207  55.337  0.00  0.00     0.123 C 
ATOM     34  C   UNL d   1      55.503  33.660  55.494  0.00  0.00     0.029 C 
ENDBRANCH  32  33
ENDBRANCH  10  32
TORSDOF 7
ENDMDL
MODEL 3
REMARK VINA RESULT:      -2.9      1.225      4.766
REMARK  7 active torsions:
REMARK  status: ('A' for Active; 'I' for Inactive)
REMARK    1  A    between atoms: C_11  and  C_3 
REMARK    2  A    between atoms: C_10  and  C_5 
REMARK    3  A    between atoms: O_22  and  C_13 
REMARK    4  A    between atoms: O_25  and  C_14 
REMARK    5  A    between atoms: O_24  and  C_15 
REMARK    6  A    between atoms: O_26  and  C_21 
REMARK    7  A    between atoms: C_30  and  O_26 
ROOT
ATOM      1  N   UNL d   1      52.791  32.974  53.578  0.00  0.00    -0.208 N 
ATOM      2  N   UNL d   1      52.503  32.265  53.276  0.00  0.00    -0.162 NA
ATOM      3  C   UNL d   1      52.513  33.748  53.515  0.00  0.00     0.184 A 
ATOM      4  C   UNL d   1      53.478  32.817  54.008  0.00  0.00     0.088 A 
ATOM      5  C   UNL d   1      53.018  31.661  53.522  0.00  0.00     0.126 A 
ATOM      6  O   UNL d   1      52.920  34.363  53.880  0.00  0.00    -0.287 OA
ATOM      7  C   UNL d   1      53.886  33.435  54.375  0.00  0.00     0.043 A 
ATOM      8  C   UNL d   1      53.606  34.206  54.310  0.00  0.00     0.126 A 
ATOM      9  C   UNL d   1      53.620  32.005  53.975  0.00  0.00     0.042 A 
ATOM     10  C   UNL d   1      54.005  34.824  54.672  0.00  0.00     0.123 A 
ATOM     11  C   UNL d   1      54.570  33.276  54.804  0.00  0.00     0.004 A 
ATOM     12  C   UNL d   1      54.975  33.888  55.168  0.00  0.00     0.002 A 
ATOM     13  C   UNL d   1      54.691  34.667  55.102  0.00  0.00     0.027 A 
ENDROOT
BRANCH   3  14
ATOM     14  C   UNL d   1      51.827  33.904  53.084  0.00  0.00     0.045 A 
ATOM     15  C   UNL d   1      51.099  33.986  53.477  0.00  0.00     0.030 A 
ATOM     16  C   UNL d   1      50.413  34.143  53.047  0.00  0.00     0.118 A 
ATOM     17  C   UNL d   1      50.444  34.219  52.230  0.00  0.00     0.138 A 
ATOM     18  C   UNL d   1      51.175  34.136  51.835  0.00  0.00     0.118 A 
ATOM     19  C   UNL d   1      51.861  33.980  52.266  0.00  0.00     0.030 A 
BRANCH  16  20
ATOM     20  O   UNL d   1      49.694  34.223  53.439  0.00  0.00    -0.326 OA
ATOM     21  C   UNL d   1      49.524  34.919  53.852  0.00  0.00     0.181 C 
ENDBRANCH  16  20
BRANCH  17  22
ATOM     22  O   UNL d   1      49.757  34.375  51.800  0.00  0.00    -0.324 OA
ATOM     23  C   UNL d   1      49.350  33.756  51.437  0.00  0.00     0.182 C 
ENDBRANCH  17  22
BRANCH  18  24
ATOM     24  O   UNL d   1      51.212  34.211  51.015  0.00  0.00    -0.326 OA
ATOM     25  C   UNL d   1      51.736  34.751  50.672  0.00  0.00     0.181 C 
ENDBRANCH  18  24
ENDBRANCH   3  14
BRANCH   5  26
ATOM     26  C   UNL d   1      52.941  30.852  53.345  0.00  0.00     0.119 A 
ATOM     27  O   UNL d   1      52.906  30.237  53.893  0.00  0.00    -0.306 OA
ATOM     28  C   UNL d   1      52.829  29.527  53.462  0.00  0.00     0.100 A 
ATOM     29  C   UNL d   1      52.775  28.775  53.791  0.00  0.00     0.027 C 
ATOM     30  C   UNL d   1      52.817  29.717  52.654  0.00  0.00     0.027 A 
ATOM     31  C   UNL d   1      52.885  30.528  52.569  0.00  0.00     0.028 A 
ENDBRANCH   5  26
BRANCH  10  32
ATOM     32  O   UNL d   1      53.727  35.598  54.608  0.00  0.00    -0.303 OA
BRANCH  32  33
ATOM     33  C   UNL d   1      53.554  36.037  55.287  0.00  0.00     0.123 C 
ATOM     34  C   UNL d   1      53.085  36.709  55.236  0.00  0.00     0.029 C 
ENDBRANCH  32  33
ENDBRANCH  10  32
TORSDOF 7
ENDMDL
