MODEL 1
REMARK VINA RESULT:      -8.2      0.000      0.000
REMARK  6 active torsions:
REMARK  status: ('A' for Active; 'I' for Inactive)
REMARK    1  A    between atoms: C_5  and  C_1 
REMARK    2  A    between atoms: O_8  and  C_5 
REMARK    3  A    between atoms: C_9  and  O_8 
REMARK    4  A    between atoms: C_14  and  C_10 
REMARK    5  A    between atoms: O_20  and  C_11 
REMARK    6  A    between atoms: O_21  and  C_16 
ROOT
ATOM      1  C   UNL d   1      51.681  34.236  52.790  0.00  0.00     0.305 C 
ATOM      2  O   UNL d   1      52.300  34.772  52.668  0.00  0.00    -0.259 OA
ENDROOT
BRANCH   1   3
ATOM      3  C   UNL d   1      50.913  34.429  52.537  0.00  0.00     0.127 A 
ATOM      4  C   UNL d   1      50.692  34.274  51.747  0.00  0.00     0.305 A 
ATOM      5  O   UNL d   1      49.931  34.464  51.493  0.00  0.00    -0.271 OA
ATOM      6  O   UNL d   1      51.231  33.935  51.228  0.00  0.00    -0.259 OA
ATOM      7  C   UNL d   1      49.395  34.804  52.019  0.00  0.00     0.125 A 
ATOM      8  C   UNL d   1      49.613  34.957  52.802  0.00  0.00     0.025 A 
ATOM      9  C   UNL d   1      48.633  34.994  51.765  0.00  0.00     0.117 A 
ATOM     10  C   UNL d   1      50.384  34.766  53.062  0.00  0.00     0.013 A 
ATOM     11  C   UNL d   1      49.075  35.296  53.325  0.00  0.00     0.002 A 
ATOM     12  C   UNL d   1      48.321  35.483  53.068  0.00  0.00     0.002 A 
ATOM     13  C   UNL d   1      48.096  35.333  52.288  0.00  0.00     0.026 A 
BRANCH   9  14
ATOM     14  O   UNL d   1      48.414  34.843  50.991  0.00  0.00    -0.326 OA
ATOM     15  C   UNL d   1      47.634  34.980  50.743  0.00  0.00     0.181 C 
ENDBRANCH   9  14
ENDBRANCH   1   3
BRANCH   1  16
ATOM     16  O   UNL d   1      51.827  33.514  53.160  0.00  0.00    -0.271 OA
BRANCH  16  17
ATOM     17  C   UNL d   1      52.482  33.430  53.655  0.00  0.00     0.126 A 
ATOM     18  C   UNL d   1      52.907  32.723  53.659  0.00  0.00     0.117 A 
ATOM     19  C   UNL d   1      53.559  32.634  54.150  0.00  0.00     0.029 A 
ATOM     20  C   UNL d   1      53.790  33.264  54.647  0.00  0.00     0.041 A 
ATOM     21  C   UNL d   1      53.365  33.970  54.643  0.00  0.00     0.005 A 
ATOM     22  C   UNL d   1      52.710  34.054  54.148  0.00  0.00     0.027 A 
BRANCH  18  23
ATOM     23  O   UNL d   1      52.672  32.104  53.164  0.00  0.00    -0.326 OA
ATOM     24  C   UNL d   1      53.081  31.385  53.174  0.00  0.00     0.181 C 
ENDBRANCH  18  23
BRANCH  20  25
ATOM     25  C   UNL d   1      54.453  33.173  55.146  0.00  0.00     0.196 C 
ATOM     26  O   UNL d   1      54.417  32.648  55.784  0.00  0.00    -0.287 OA
ATOM     27  C   UNL d   1      55.144  33.610  55.000  0.00  0.00     0.045 C 
ENDBRANCH  20  25
ENDBRANCH  16  17
ENDBRANCH   1  16
TORSDOF 6
ENDMDL
MODEL 2
REMARK VINA RESULT:      -7.9      1.073      1.766
REMARK  6 active torsions:
REMARK  status: ('A' for Active; 'I' for Inactive)
REMARK    1  A    between atoms: C_5  and  C_1 
REMARK    2  A    between atoms: O_8  and  C_5 
REMARK    3  A    between atoms: C_9  and  O_8 
REMARK    4  A    between atoms: C_14  and  C_10 
REMARK    5  A    between atoms: O_20  and  C_11 
REMARK    6  A    between atoms: O_21  and  C_16 
ROOT
ATOM      1  C   UNL d   1      50.535  34.181  52.915  0.00  0.00     0.305 C 
ATOM      2  O   UNL d   1      50.500  33.357  52.982  0.00  0.00    -0.259 OA
ENDROOT
BRANCH   1   3
ATOM      3  C   UNL d   1      49.839  34.613  52.770  0.00  0.00     0.127 A 
ATOM      4  C   UNL d   1      49.496  34.590  52.009  0.00  0.00     0.305 A 
ATOM      5  O   UNL d   1      48.806  35.017  51.861  0.00  0.00    -0.271 OA
ATOM      6  O   UNL d   1      49.843  34.143  51.414  0.00  0.00    -0.259 OA
ATOM      7  C   UNL d   1      48.462  35.463  52.464  0.00  0.00     0.125 A 
ATOM      8  C   UNL d   1      48.802  35.487  53.217  0.00  0.00     0.025 A 
ATOM      9  C   UNL d   1      47.772  35.891  52.316  0.00  0.00     0.117 A 
ATOM     10  C   UNL d   1      49.501  35.055  53.369  0.00  0.00     0.013 A 
ATOM     11  C   UNL d   1      48.456  35.933  53.816  0.00  0.00     0.002 A 
ATOM     12  C   UNL d   1      47.772  36.356  53.665  0.00  0.00     0.002 A 
ATOM     13  C   UNL d   1      47.426  36.337  52.915  0.00  0.00     0.026 A 
BRANCH   9  14
ATOM     14  O   UNL d   1      47.432  35.870  51.571  0.00  0.00    -0.326 OA
ATOM     15  C   UNL d   1      46.641  36.092  51.467  0.00  0.00     0.181 C 
ENDBRANCH   9  14
ENDBRANCH   1   3
BRANCH   1  16
ATOM     16  O   UNL d   1      51.257  34.571  52.992  0.00  0.00    -0.271 OA
BRANCH  16  17
ATOM     17  C   UNL d   1      51.928  34.153  53.229  0.00  0.00     0.126 A 
ATOM     18  C   UNL d   1      52.528  34.539  53.642  0.00  0.00     0.117 A 
ATOM     19  C   UNL d   1      53.198  34.129  53.881  0.00  0.00     0.029 A 
ATOM     20  C   UNL d   1      53.268  33.316  53.704  0.00  0.00     0.041 A 
ATOM     21  C   UNL d   1      52.667  32.929  53.292  0.00  0.00     0.005 A 
ATOM     22  C   UNL d   1      51.997  33.348  53.054  0.00  0.00     0.027 A 
BRANCH  18  23
ATOM     23  O   UNL d   1      52.452  35.345  53.813  0.00  0.00    -0.326 OA
ATOM     24  C   UNL d   1      52.943  35.698  54.377  0.00  0.00     0.181 C 
ENDBRANCH  18  23
BRANCH  20  25
ATOM     25  C   UNL d   1      53.948  32.897  53.948  0.00  0.00     0.196 C 
ATOM     26  O   UNL d   1      54.612  32.875  53.455  0.00  0.00    -0.287 OA
ATOM     27  C   UNL d   1      53.954  32.507  54.680  0.00  0.00     0.045 C 
ENDBRANCH  20  25
ENDBRANCH  16  17
ENDBRANCH   1  16
TORSDOF 6
ENDMDL
MODEL 3
REMARK VINA RESULT:      -7.8      1.201      5.465
REMARK  6 active torsions:
REMARK  status: ('A' for Active; 'I' for Inactive)
REMARK    1  A    between atoms: C_5  and  C_1 
REMARK    2  A    between atoms: O_8  and  C_5 
REMARK    3  A    between atoms: C_9  and  O_8 
REMARK    4  A    between atoms: C_14  and  C_10 
REMARK    5  A    between atoms: O_20  and  C_11 
REMARK    6  A    between atoms: O_21  and  C_16 
ROOT
ATOM      1  C   UNL d   1      50.261  34.445  52.707  0.00  0.00     0.305 C 
ATOM      2  O   UNL d   1      50.083  34.163  51.950  0.00  0.00    -0.259 OA
ENDROOT
BRANCH   1   3
ATOM      3  C   UNL d   1      50.976  34.226  53.072  0.00  0.00     0.127 A 
ATOM      4  C   UNL d   1      51.088  33.432  53.306  0.00  0.00     0.305 A 
ATOM      5  O   UNL d   1      51.795  33.212  53.668  0.00  0.00    -0.271 OA
ATOM      6  O   UNL d   1      50.498  32.877  53.175  0.00  0.00    -0.259 OA
ATOM      7  C   UNL d   1      52.385  33.774  53.796  0.00  0.00     0.125 A 
ATOM      8  C   UNL d   1      52.274  34.561  53.565  0.00  0.00     0.025 A 
ATOM      9  C   UNL d   1      53.092  33.554  54.159  0.00  0.00     0.117 A 
ATOM     10  C   UNL d   1      51.558  34.787  53.197  0.00  0.00     0.013 A 
ATOM     11  C   UNL d   1      52.864  35.120  53.694  0.00  0.00     0.002 A 
ATOM     12  C   UNL d   1      53.564  34.896  54.054  0.00  0.00     0.002 A 
ATOM     13  C   UNL d   1      53.682  34.113  54.288  0.00  0.00     0.026 A 
BRANCH   9  14
ATOM     14  O   UNL d   1      53.206  32.776  54.389  0.00  0.00    -0.326 OA
ATOM     15  C   UNL d   1      53.922  32.544  54.736  0.00  0.00     0.181 C 
ENDBRANCH   9  14
ENDBRANCH   1   3
BRANCH   1  16
ATOM     16  O   UNL d   1      49.731  34.942  53.097  0.00  0.00    -0.271 OA
BRANCH  16  17
ATOM     17  C   UNL d   1      49.038  35.181  52.720  0.00  0.00     0.126 A 
ATOM     18  C   UNL d   1      48.518  35.695  53.103  0.00  0.00     0.117 A 
ATOM     19  C   UNL d   1      47.826  35.937  52.733  0.00  0.00     0.029 A 
ATOM     20  C   UNL d   1      47.651  35.660  51.965  0.00  0.00     0.041 A 
ATOM     21  C   UNL d   1      48.171  35.146  51.582  0.00  0.00     0.005 A 
ATOM     22  C   UNL d   1      48.864  34.907  51.960  0.00  0.00     0.027 A 
BRANCH  18  23
ATOM     23  O   UNL d   1      48.698  35.965  53.863  0.00  0.00    -0.326 OA
ATOM     24  C   UNL d   1      48.169  36.456  54.266  0.00  0.00     0.181 C 
ENDBRANCH  18  23
BRANCH  20  25
ATOM     25  C   UNL d   1      46.947  35.905  51.588  0.00  0.00     0.196 C 
ATOM     26  O   UNL d   1      46.748  36.708  51.577  0.00  0.00    -0.287 OA
ATOM     27  C   UNL d   1      46.454  35.344  51.227  0.00  0.00     0.045 C 
ENDBRANCH  20  25
ENDBRANCH  16  17
ENDBRANCH   1  16
TORSDOF 6
ENDMDL
MODEL 4
REMARK VINA RESULT:      -6.5      1.113      2.132
REMARK  6 active torsions:
REMARK  status: ('A' for Active; 'I' for Inactive)
REMARK    1  A    between atoms: C_5  and  C_1 
REMARK    2  A    between atoms: O_8  and  C_5 
REMARK    3  A    between atoms: C_9  and  O_8 
REMARK    4  A    between atoms: C_14  and  C_10 
REMARK    5  A    between atoms: O_20  and  C_11 
REMARK    6  A    between atoms: O_21  and  C_16 
ROOT
ATOM      1  C   UNL d   1      52.058  33.889  52.943  0.00  0.00     0.305 C 
ATOM      2  O   UNL d   1      52.577  33.948  52.301  0.00  0.00    -0.259 OA
ENDROOT
BRANCH   1   3
ATOM      3  C   UNL d   1      51.308  34.246  52.901  0.00  0.00     0.127 A 
ATOM      4  C   UNL d   1      51.114  34.852  53.442  0.00  0.00     0.305 A 
ATOM      5  O   UNL d   1      50.371  35.208  53.404  0.00  0.00    -0.271 OA
ATOM      6  O   UNL d   1      51.661  35.090  54.007  0.00  0.00    -0.259 OA
ATOM      7  C   UNL d   1      49.827  34.965  52.834  0.00  0.00     0.125 A 
ATOM      8  C   UNL d   1      50.019  34.364  52.298  0.00  0.00     0.025 A 
ATOM      9  C   UNL d   1      49.084  35.321  52.796  0.00  0.00     0.117 A 
ATOM     10  C   UNL d   1      50.771  34.001  52.335  0.00  0.00     0.013 A 
ATOM     11  C   UNL d   1      49.474  34.123  51.731  0.00  0.00     0.002 A 
ATOM     12  C   UNL d   1      48.738  34.480  51.697  0.00  0.00     0.002 A 
ATOM     13  C   UNL d   1      48.539  35.080  52.229  0.00  0.00     0.026 A 
BRANCH   9  14
ATOM     14  O   UNL d   1      48.891  35.916  53.325  0.00  0.00    -0.326 OA
ATOM     15  C   UNL d   1      48.116  36.206  53.361  0.00  0.00     0.181 C 
ENDBRANCH   9  14
ENDBRANCH   1   3
BRANCH   1  16
ATOM     16  O   UNL d   1      52.284  33.477  53.621  0.00  0.00    -0.271 OA
BRANCH  16  17
ATOM     17  C   UNL d   1      52.627  32.730  53.553  0.00  0.00     0.126 A 
ATOM     18  C   UNL d   1      53.253  32.518  54.046  0.00  0.00     0.117 A 
ATOM     19  C   UNL d   1      53.598  31.776  53.984  0.00  0.00     0.029 A 
ATOM     20  C   UNL d   1      53.311  31.234  53.417  0.00  0.00     0.041 A 
ATOM     21  C   UNL d   1      52.685  31.446  52.923  0.00  0.00     0.005 A 
ATOM     22  C   UNL d   1      52.343  32.194  52.991  0.00  0.00     0.027 A 
BRANCH  18  23
ATOM     23  O   UNL d   1      53.531  33.059  54.606  0.00  0.00    -0.326 OA
ATOM     24  C   UNL d   1      54.066  32.817  55.189  0.00  0.00     0.181 C 
ENDBRANCH  18  23
BRANCH  20  25
ATOM     25  C   UNL d   1      53.662  30.479  53.353  0.00  0.00     0.196 C 
ATOM     26  O   UNL d   1      54.411  30.403  53.011  0.00  0.00    -0.287 OA
ATOM     27  C   UNL d   1      53.257  29.811  53.632  0.00  0.00     0.045 C 
ENDBRANCH  20  25
ENDBRANCH  16  17
ENDBRANCH   1  16
TORSDOF 6
ENDMDL
