MODEL 1
REMARK VINA RESULT:      40.0      0.000      0.000
REMARK  3 active torsions:
REMARK  status: ('A' for Active; 'I' for Inactive)
REMARK    1  A    between atoms: C_9  and  S_1 
REMARK       I    between atoms: C_4  and  N_8 
REMARK    2  A    between atoms: C_5  and  C_4 
REMARK    3  A    between atoms: N_8  and  C_18 
ROOT
ATOM      1  C   UNL d   1     -49.585  24.475  33.609  0.00  0.00     0.302 C 
ATOM      2  N   UNL d   1     -50.067  23.811  33.637  0.00  0.00    -0.206 NA
ATOM      3  O   UNL d   1     -48.768  24.392  33.640  0.00  0.00    -0.263 OA
ENDROOT
BRANCH   1   4
ATOM      4  C   UNL d   1     -49.913  25.225  33.551  0.00  0.00     0.161 A 
ATOM      5  O   UNL d   1     -50.738  25.306  33.460  0.00  0.00    -0.268 OA
ATOM      6  C   UNL d   1     -51.074  26.065  33.400  0.00  0.00     0.300 A 
ATOM      7  O   UNL d   1     -51.887  26.145  33.311  0.00  0.00    -0.259 OA
ATOM      8  C   UNL d   1     -50.594  26.740  33.430  0.00  0.00     0.064 A 
ATOM      9  C   UNL d   1     -49.770  26.651  33.521  0.00  0.00     0.007 A 
ATOM     10  C   UNL d   1     -50.927  27.487  33.372  0.00  0.00     0.005 A 
ATOM     11  C   UNL d   1     -49.430  25.900  33.581  0.00  0.00     0.030 A 
ATOM     12  C   UNL d   1     -49.291  27.326  33.551  0.00  0.00     0.000 A 
ATOM     13  C   UNL d   1     -49.635  28.073  33.491  0.00  0.00     0.000 A 
ATOM     14  C   UNL d   1     -50.449  28.153  33.402  0.00  0.00     0.000 A 
ENDBRANCH   1   4
BRANCH   2  15
ATOM     15  C   UNL d   1     -50.888  23.898  33.606  0.00  0.00     0.085 A 
ATOM     16  C   UNL d   1     -51.223  24.631  33.750  0.00  0.00     0.020 A 
ATOM     17  C   UNL d   1     -52.040  24.722  33.720  0.00  0.00     0.015 A 
ATOM     18  C   UNL d   1     -52.519  24.070  33.544  0.00  0.00     0.107 A 
ATOM     19  C   UNL d   1     -52.173  23.336  33.400  0.00  0.00     0.015 A 
ATOM     20  C   UNL d   1     -51.365  23.246  33.429  0.00  0.00     0.020 A 
BRANCH  18  21
ATOM     21  S   UNL d   1     -53.336  24.160  33.514  0.00  0.00     0.302 S 
ATOM     22  O   UNL d   1     -53.504  23.375  33.641  0.00  0.00    -0.197 OA
ATOM     23  O   UNL d   1     -53.156  24.958  33.385  0.00  0.00    -0.197 OA
ATOM     24  N   UNL d   1     -54.135  24.336  33.470  0.00  0.00    -0.043 N 
ENDBRANCH  18  21
ENDBRANCH   2  15
TORSDOF 3
ENDMDL
