MODEL 1
REMARK VINA RESULT:      -9.0      0.000      0.000
REMARK  1 active torsions:
REMARK  status: ('A' for Active; 'I' for Inactive)
REMARK    1  A    between atoms: C_5  and  C_1 
ROOT
ATOM      1  C   UNL d   1      53.029  31.828  53.269  0.00  0.00     0.128 A 
ATOM      2  C   UNL d   1      52.682  32.556  52.992  0.00  0.00     0.306 A 
ATOM      3  C   UNL d   1      53.561  31.860  53.885  0.00  0.00     0.013 A 
ATOM      4  O   UNL d   1      52.894  33.263  53.352  0.00  0.00    -0.273 OA
ATOM      5  C   UNL d   1      53.770  32.580  54.244  0.00  0.00     0.023 A 
ATOM      6  C   UNL d   1      53.433  33.287  53.975  0.00  0.00     0.103 A 
ATOM      7  O   UNL d   1      52.128  32.572  52.358  0.00  0.00    -0.259 OA
ATOM      8  C   UNL d   1      54.297  32.577  54.849  0.00  0.00     0.002 A 
ATOM      9  C   UNL d   1      53.630  33.980  54.316  0.00  0.00     0.025 A 
ATOM     10  C   UNL d   1      54.517  33.278  55.219  0.00  0.00     0.000 A 
ATOM     11  C   UNL d   1      54.171  34.006  54.942  0.00  0.00     0.002 A 
ENDROOT
BRANCH   1  12
ATOM     12  C   UNL d   1      52.825  31.143  52.921  0.00  0.00     0.216 C 
ATOM     13  O   UNL d   1      52.259  30.635  53.242  0.00  0.00    -0.644 OA
ATOM     14  O   UNL d   1      53.089  30.801  52.236  0.00  0.00    -0.644 OA
ENDBRANCH   1  12
TORSDOF 1
ENDMDL
MODEL 2
REMARK VINA RESULT:      -8.9      1.496      2.933
REMARK  1 active torsions:
REMARK  status: ('A' for Active; 'I' for Inactive)
REMARK    1  A    between atoms: C_5  and  C_1 
ROOT
ATOM      1  C   UNL d   1      54.330  33.490  54.718  0.00  0.00     0.128 A 
ATOM      2  C   UNL d   1      53.695  34.027  54.535  0.00  0.00     0.306 A 
ATOM      3  C   UNL d   1      54.310  32.740  54.400  0.00  0.00     0.013 A 
ATOM      4  O   UNL d   1      53.085  33.775  54.047  0.00  0.00    -0.273 OA
ATOM      5  C   UNL d   1      53.689  32.492  53.906  0.00  0.00     0.023 A 
ATOM      6  C   UNL d   1      53.072  33.015  53.728  0.00  0.00     0.103 A 
ATOM      7  O   UNL d   1      53.674  34.812  54.841  0.00  0.00    -0.259 OA
ATOM      8  C   UNL d   1      53.698  31.747  53.609  0.00  0.00     0.002 A 
ATOM      9  C   UNL d   1      52.474  32.783  53.256  0.00  0.00     0.025 A 
ATOM     10  C   UNL d   1      53.094  31.482  53.118  0.00  0.00     0.000 A 
ATOM     11  C   UNL d   1      52.458  32.019  52.935  0.00  0.00     0.002 A 
ENDROOT
BRANCH   1  12
ATOM     12  C   UNL d   1      54.921  33.733  55.191  0.00  0.00     0.216 C 
ATOM     13  O   UNL d   1      54.914  33.610  56.007  0.00  0.00    -0.644 OA
ATOM     14  O   UNL d   1      55.610  34.123  55.016  0.00  0.00    -0.644 OA
ENDBRANCH   1  12
TORSDOF 1
ENDMDL
MODEL 3
REMARK VINA RESULT:      -8.7      0.975      1.831
REMARK  1 active torsions:
REMARK  status: ('A' for Active; 'I' for Inactive)
REMARK    1  A    between atoms: C_5  and  C_1 
ROOT
ATOM      1  C   UNL d   1      52.269  33.406  53.301  0.00  0.00     0.128 A 
ATOM      2  C   UNL d   1      52.694  32.731  53.002  0.00  0.00     0.306 A 
ATOM      3  C   UNL d   1      52.609  33.847  53.897  0.00  0.00     0.013 A 
ATOM      4  O   UNL d   1      53.427  32.545  53.320  0.00  0.00    -0.273 OA
ATOM      5  C   UNL d   1      53.351  33.652  54.214  0.00  0.00     0.023 A 
ATOM      6  C   UNL d   1      53.764  32.996  53.923  0.00  0.00     0.103 A 
ATOM      7  O   UNL d   1      52.383  32.246  52.386  0.00  0.00    -0.259 OA
ATOM      8  C   UNL d   1      53.658  34.107  54.800  0.00  0.00     0.002 A 
ATOM      9  C   UNL d   1      54.477  32.805  54.224  0.00  0.00     0.025 A 
ATOM     10  C   UNL d   1      54.392  33.932  55.129  0.00  0.00     0.000 A 
ATOM     11  C   UNL d   1      54.817  33.257  54.830  0.00  0.00     0.002 A 
ENDROOT
BRANCH   1  12
ATOM     12  C   UNL d   1      51.559  33.587  52.993  0.00  0.00     0.216 C 
ATOM     13  O   UNL d   1      50.853  33.309  53.316  0.00  0.00    -0.644 OA
ATOM     14  O   UNL d   1      51.363  34.041  52.351  0.00  0.00    -0.644 OA
ENDBRANCH   1  12
TORSDOF 1
ENDMDL
MODEL 4
REMARK VINA RESULT:      -8.6      1.574      3.167
REMARK  1 active torsions:
REMARK  status: ('A' for Active; 'I' for Inactive)
REMARK    1  A    between atoms: C_5  and  C_1 
ROOT
ATOM      1  C   UNL d   1      53.595  33.790  54.521  0.00  0.00     0.128 A 
ATOM      2  C   UNL d   1      54.227  33.292  54.800  0.00  0.00     0.306 A 
ATOM      3  C   UNL d   1      53.063  33.481  53.988  0.00  0.00     0.013 A 
ATOM      4  O   UNL d   1      54.281  32.520  54.527  0.00  0.00    -0.273 OA
ATOM      5  C   UNL d   1      53.123  32.698  53.715  0.00  0.00     0.023 A 
ATOM      6  C   UNL d   1      53.737  32.214  53.987  0.00  0.00     0.103 A 
ATOM      7  O   UNL d   1      54.802  33.569  55.352  0.00  0.00    -0.259 OA
ATOM      8  C   UNL d   1      52.582  32.423  53.190  0.00  0.00     0.002 A 
ATOM      9  C   UNL d   1      53.800  31.463  53.730  0.00  0.00     0.025 A 
ATOM     10  C   UNL d   1      52.623  31.651  52.908  0.00  0.00     0.000 A 
ATOM     11  C   UNL d   1      53.255  31.153  53.188  0.00  0.00     0.002 A 
ENDROOT
BRANCH   1  12
ATOM     12  C   UNL d   1      53.543  34.538  54.785  0.00  0.00     0.216 C 
ATOM     13  O   UNL d   1      53.774  35.186  54.329  0.00  0.00    -0.644 OA
ATOM     14  O   UNL d   1      53.280  34.829  55.494  0.00  0.00    -0.644 OA
ENDBRANCH   1  12
TORSDOF 1
ENDMDL
MODEL 5
REMARK VINA RESULT:      -8.5      1.549      2.787
REMARK  1 active torsions:
REMARK  status: ('A' for Active; 'I' for Inactive)
REMARK    1  A    between atoms: C_5  and  C_1 
ROOT
ATOM      1  C   UNL d   1      53.774  33.165  54.355  0.00  0.00     0.128 A 
ATOM      2  C   UNL d   1      53.582  32.484  53.880  0.00  0.00     0.306 A 
ATOM      3  C   UNL d   1      53.349  33.851  54.241  0.00  0.00     0.013 A 
ATOM      4  O   UNL d   1      52.979  32.539  53.326  0.00  0.00    -0.273 OA
ATOM      5  C   UNL d   1      52.740  33.899  53.677  0.00  0.00     0.023 A 
ATOM      6  C   UNL d   1      52.554  33.237  53.216  0.00  0.00     0.103 A 
ATOM      7  O   UNL d   1      53.994  31.753  53.963  0.00  0.00    -0.259 OA
ATOM      8  C   UNL d   1      52.341  34.589  53.589  0.00  0.00     0.002 A 
ATOM      9  C   UNL d   1      51.971  33.277  52.675  0.00  0.00     0.025 A 
ATOM     10  C   UNL d   1      51.735  34.658  53.037  0.00  0.00     0.000 A 
ATOM     11  C   UNL d   1      51.543  33.977  52.563  0.00  0.00     0.002 A 
ENDROOT
BRANCH   1  12
ATOM     12  C   UNL d   1      54.357  33.113  54.892  0.00  0.00     0.216 C 
ATOM     13  O   UNL d   1      55.121  33.389  54.744  0.00  0.00    -0.644 OA
ATOM     14  O   UNL d   1      54.356  32.809  55.643  0.00  0.00    -0.644 OA
ENDBRANCH   1  12
TORSDOF 1
ENDMDL
MODEL 6
REMARK VINA RESULT:      -8.4      1.315      2.875
REMARK  1 active torsions:
REMARK  status: ('A' for Active; 'I' for Inactive)
REMARK    1  A    between atoms: C_5  and  C_1 
ROOT
ATOM      1  C   UNL d   1      53.092  34.282  54.186  0.00  0.00     0.128 A 
ATOM      2  C   UNL d   1      52.446  34.225  53.634  0.00  0.00     0.306 A 
ATOM      3  C   UNL d   1      53.555  33.624  54.313  0.00  0.00     0.013 A 
ATOM      4  O   UNL d   1      52.310  33.513  53.249  0.00  0.00    -0.273 OA
ATOM      5  C   UNL d   1      53.411  32.906  53.919  0.00  0.00     0.023 A 
ATOM      6  C   UNL d   1      52.783  32.851  53.383  0.00  0.00     0.103 A 
ATOM      7  O   UNL d   1      51.941  34.880  53.471  0.00  0.00    -0.259 OA
ATOM      8  C   UNL d   1      53.885  32.276  54.067  0.00  0.00     0.002 A 
ATOM      9  C   UNL d   1      52.640  32.166  53.002  0.00  0.00     0.025 A 
ATOM     10  C   UNL d   1      53.760  31.557  53.688  0.00  0.00     0.000 A 
ATOM     11  C   UNL d   1      53.114  31.500  53.135  0.00  0.00     0.002 A 
ENDROOT
BRANCH   1  12
ATOM     12  C   UNL d   1      53.225  34.971  54.560  0.00  0.00     0.216 C 
ATOM     13  O   UNL d   1      53.167  35.049  55.379  0.00  0.00    -0.644 OA
ATOM     14  O   UNL d   1      53.430  35.699  54.267  0.00  0.00    -0.644 OA
ENDBRANCH   1  12
TORSDOF 1
ENDMDL
MODEL 7
REMARK VINA RESULT:      -7.7      1.409      2.297
REMARK  1 active torsions:
REMARK  status: ('A' for Active; 'I' for Inactive)
REMARK    1  A    between atoms: C_5  and  C_1 
ROOT
ATOM      1  C   UNL d   1      53.187  29.968  53.937  0.00  0.00     0.128 A 
ATOM      2  C   UNL d   1      52.556  30.040  53.369  0.00  0.00     0.306 A 
ATOM      3  C   UNL d   1      53.647  30.622  54.092  0.00  0.00     0.013 A 
ATOM      4  O   UNL d   1      52.431  30.761  52.998  0.00  0.00    -0.273 OA
ATOM      5  C   UNL d   1      53.515  31.349  53.713  0.00  0.00     0.023 A 
ATOM      6  C   UNL d   1      52.901  31.419  53.161  0.00  0.00     0.103 A 
ATOM      7  O   UNL d   1      52.055  29.390  53.177  0.00  0.00    -0.259 OA
ATOM      8  C   UNL d   1      53.986  31.974  53.888  0.00  0.00     0.002 A 
ATOM      9  C   UNL d   1      52.769  32.113  52.794  0.00  0.00     0.025 A 
ATOM     10  C   UNL d   1      53.872  32.703  53.524  0.00  0.00     0.000 A 
ATOM     11  C   UNL d   1      53.240  32.775  52.956  0.00  0.00     0.002 A 
ENDROOT
BRANCH   1  12
ATOM     12  C   UNL d   1      53.309  29.269  54.297  0.00  0.00     0.216 C 
ATOM     13  O   UNL d   1      53.035  29.111  55.059  0.00  0.00    -0.644 OA
ATOM     14  O   UNL d   1      53.692  28.603  54.038  0.00  0.00    -0.644 OA
ENDBRANCH   1  12
TORSDOF 1
ENDMDL
