MODEL 1
REMARK VINA RESULT:      31.9      0.000      0.000
REMARK  4 active torsions:
REMARK  status: ('A' for Active; 'I' for Inactive)
REMARK    1  A    between atoms: C_6  and  C_1 
REMARK       I    between atoms: N_8  and  C_6 
REMARK    2  A    between atoms: C_17  and  N_8 
REMARK    3  A    between atoms: C_9  and  C_17 
REMARK    4  A    between atoms: O_18  and  C_12 
ROOT
ATOM      1  C   UNL d   1     -56.741 -99.011 -43.801  0.00  0.00     0.121 A 
ATOM      2  C   UNL d   1     -56.810 -99.013 -44.613  0.00  0.00     0.305 A 
ATOM      3  O   UNL d   1     -57.557 -98.950 -44.971  0.00  0.00    -0.271 OA
ATOM      4  C   UNL d   1     -57.411 -98.946 -43.322  0.00  0.00     0.012 A 
ATOM      5  C   UNL d   1     -58.227 -98.886 -44.492  0.00  0.00     0.125 A 
ATOM      6  C   UNL d   1     -58.157 -98.883 -43.680  0.00  0.00     0.025 A 
ATOM      7  O   UNL d   1     -56.133 -99.078 -45.092  0.00  0.00    -0.259 OA
ATOM      8  C   UNL d   1     -58.962 -98.824 -44.843  0.00  0.00     0.117 A 
ATOM      9  C   UNL d   1     -58.822 -98.819 -43.202  0.00  0.00     0.002 A 
ATOM     10  C   UNL d   1     -59.575 -98.756 -43.547  0.00  0.00     0.002 A 
ATOM     11  C   UNL d   1     -59.646 -98.758 -44.371  0.00  0.00     0.026 A 
ENDROOT
BRANCH   1  12
ATOM     12  C   UNL d   1     -55.993 -99.074 -43.464  0.00  0.00     0.284 C 
ATOM     13  N   UNL d   1     -55.263 -99.390 -43.680  0.00  0.00    -0.204 NA
ATOM     14  O   UNL d   1     -55.852 -98.760 -42.707  0.00  0.00    -0.265 OA
BRANCH  13  15
ATOM     15  C   UNL d   1     -55.185 -99.758 -44.416  0.00  0.00     0.127 C 
BRANCH  15  16
ATOM     16  C   UNL d   1     -55.048-100.574 -44.466  0.00  0.00     0.119 A 
ATOM     17  O   UNL d   1     -55.075-101.109 -43.843  0.00  0.00    -0.304 OA
ATOM     18  C   UNL d   1     -54.905-101.846 -44.151  0.00  0.00     0.123 A 
ATOM     19  C   UNL d   1     -54.774-101.760 -44.966  0.00  0.00     0.029 A 
ATOM     20  C   UNL d   1     -54.862-100.978 -45.160  0.00  0.00     0.028 A 
ENDBRANCH  15  16
ENDBRANCH  13  15
ENDBRANCH   1  12
BRANCH   8  21
ATOM     21  O   UNL d   1     -59.032 -98.826 -45.659  0.00  0.00    -0.326 OA
ATOM     22  C   UNL d   1     -59.767 -98.906 -46.013  0.00  0.00     0.181 C 
ENDBRANCH   8  21
TORSDOF 4
ENDMDL
