MODEL 1
REMARK VINA RESULT:      26.3      0.000      0.000
REMARK  8 active torsions:
REMARK  status: ('A' for Active; 'I' for Inactive)
REMARK    1  A    between atoms: N_6  and  S_1 
REMARK    2  A    between atoms: C_18  and  S_1 
REMARK    3  A    between atoms: N_2  and  C_4 
REMARK    4  A    between atoms: C_7  and  N_3 
REMARK    5  A    between atoms: C_4  and  C_5 
REMARK    6  A    between atoms: C_10  and  C_4 
REMARK    7  A    between atoms: C_5  and  N_6 
REMARK    8  A    between atoms: O_23  and  C_19 
ROOT
ATOM      1  N   UNL d   1      45.415 -15.306  44.386  0.00  0.00    -0.300 N 
ATOM      2  N   UNL d   1      45.821 -16.820  43.885  0.00  0.00    -0.301 N 
ATOM      3  C   UNL d   1      45.571 -15.447  43.593  0.00  0.00     0.100 A 
ATOM      4  C   UNL d   1      45.462 -15.920  44.931  0.00  0.00     0.100 A 
ATOM      5  C   UNL d   1      45.664 -16.677  44.683  0.00  0.00     0.100 A 
ATOM      6  C   UNL d   1      45.775 -16.206  43.340  0.00  0.00     0.100 A 
ENDROOT
BRANCH   1   7
ATOM      7  C   UNL d   1      45.210 -14.538  44.636  0.00  0.00     0.086 C 
BRANCH   7   8
ATOM      8  C   UNL d   1      45.796 -14.027  44.912  0.00  0.00     0.130 C 
BRANCH   8   9
ATOM      9  N   UNL d   1      46.279 -13.619  44.373  0.00  0.00    -0.155 NA
BRANCH   9  10
ATOM     10  S   UNL d   1      46.020 -12.913  44.040  0.00  0.00     0.286 S 
ATOM     11  O   UNL d   1      45.840 -13.315  43.338  0.00  0.00    -0.198 OA
ATOM     12  O   UNL d   1      46.201 -12.517  44.744  0.00  0.00    -0.198 OA
BRANCH  10  13
ATOM     13  C   UNL d   1      45.761 -12.204  43.710  0.00  0.00     0.117 C 
ATOM     14  C   UNL d   1      45.822 -12.081  42.889  0.00  0.00     0.014 C 
ENDBRANCH  10  13
ENDBRANCH   9  10
ENDBRANCH   8   9
ENDBRANCH   7   8
BRANCH   7  15
ATOM     15  C   UNL d   1      44.427 -14.288  44.607  0.00  0.00     0.037 A 
ATOM     16  C   UNL d   1      43.836 -14.747  44.953  0.00  0.00     0.100 A 
ATOM     17  N   UNL d   1      43.047 -14.495  44.925  0.00  0.00    -0.242 NA
ATOM     18  C   UNL d   1      42.856 -13.786  44.550  0.00  0.00     0.099 A 
ATOM     19  C   UNL d   1      43.446 -13.330  44.206  0.00  0.00     0.021 A 
ATOM     20  C   UNL d   1      44.234 -13.582  44.234  0.00  0.00     0.005 A 
ENDBRANCH   7  15
ENDBRANCH   1   7
BRANCH   2  21
ATOM     21  C   UNL d   1      46.024 -17.576  43.637  0.00  0.00     0.064 A 
ATOM     22  C   UNL d   1      46.061 -18.196  44.183  0.00  0.00     0.020 A 
ATOM     23  C   UNL d   1      46.264 -18.953  43.935  0.00  0.00     0.026 A 
ATOM     24  C   UNL d   1      46.431 -19.097  43.136  0.00  0.00     0.094 A 
ATOM     25  C   UNL d   1      46.394 -18.477  42.590  0.00  0.00     0.026 A 
ATOM     26  C   UNL d   1      46.191 -17.721  42.838  0.00  0.00     0.020 A 
BRANCH  24  27
ATOM     27  O   UNL d   1      46.637 -19.861  42.878  0.00  0.00    -0.328 OA
ATOM     28  C   UNL d   1      46.262 -20.202  42.218  0.00  0.00     0.181 C 
ENDBRANCH  24  27
ENDBRANCH   2  21
TORSDOF 8
ENDMDL
MODEL 2
REMARK VINA RESULT:      28.4      5.488      6.510
REMARK  8 active torsions:
REMARK  status: ('A' for Active; 'I' for Inactive)
REMARK    1  A    between atoms: N_6  and  S_1 
REMARK    2  A    between atoms: C_18  and  S_1 
REMARK    3  A    between atoms: N_2  and  C_4 
REMARK    4  A    between atoms: C_7  and  N_3 
REMARK    5  A    between atoms: C_4  and  C_5 
REMARK    6  A    between atoms: C_10  and  C_4 
REMARK    7  A    between atoms: C_5  and  N_6 
REMARK    8  A    between atoms: O_23  and  C_19 
ROOT
ATOM      1  N   UNL d   1      45.323 -16.501  38.130  0.00  0.00    -0.300 N 
ATOM      2  N   UNL d   1      45.717 -17.415  39.442  0.00  0.00    -0.301 N 
ATOM      3  C   UNL d   1      44.791 -17.057  38.418  0.00  0.00     0.100 A 
ATOM      4  C   UNL d   1      46.053 -16.401  38.497  0.00  0.00     0.100 A 
ATOM      5  C   UNL d   1      46.251 -16.856  39.152  0.00  0.00     0.100 A 
ATOM      6  C   UNL d   1      44.987 -17.515  39.075  0.00  0.00     0.100 A 
ENDROOT
BRANCH   1   7
ATOM      7  C   UNL d   1      45.120 -16.041  37.466  0.00  0.00     0.086 C 
BRANCH   7   8
ATOM      8  C   UNL d   1      44.428 -16.208  37.049  0.00  0.00     0.130 C 
BRANCH   8   9
ATOM      9  N   UNL d   1      43.962 -15.586  36.754  0.00  0.00    -0.155 NA
BRANCH   9  10
ATOM     10  S   UNL d   1      43.177 -15.721  36.551  0.00  0.00     0.286 S 
ATOM     11  O   UNL d   1      42.991 -14.944  36.772  0.00  0.00    -0.198 OA
ATOM     12  O   UNL d   1      43.369 -16.495  36.330  0.00  0.00    -0.198 OA
BRANCH  10  13
ATOM     13  C   UNL d   1      42.392 -15.859  36.345  0.00  0.00     0.117 C 
ATOM     14  C   UNL d   1      41.779 -15.579  36.834  0.00  0.00     0.014 C 
ENDBRANCH  10  13
ENDBRANCH   9  10
ENDBRANCH   8   9
ENDBRANCH   7   8
BRANCH   7  15
ATOM     15  C   UNL d   1      45.607 -15.422  37.226  0.00  0.00     0.037 A 
ATOM     16  C   UNL d   1      46.101 -15.518  36.572  0.00  0.00     0.100 A 
ATOM     17  N   UNL d   1      46.590 -14.896  36.330  0.00  0.00    -0.242 NA
ATOM     18  C   UNL d   1      46.582 -14.182  36.743  0.00  0.00     0.099 A 
ATOM     19  C   UNL d   1      46.089 -14.088  37.394  0.00  0.00     0.021 A 
ATOM     20  C   UNL d   1      45.600 -14.711  37.636  0.00  0.00     0.005 A 
ENDBRANCH   7  15
ENDBRANCH   1   7
BRANCH   2  21
ATOM     21  C   UNL d   1      45.914 -17.869  40.096  0.00  0.00     0.064 A 
ATOM     22  C   UNL d   1      46.449 -18.496  40.020  0.00  0.00     0.020 A 
ATOM     23  C   UNL d   1      46.646 -18.951  40.676  0.00  0.00     0.026 A 
ATOM     24  C   UNL d   1      46.311 -18.782  41.415  0.00  0.00     0.094 A 
ATOM     25  C   UNL d   1      45.777 -18.156  41.491  0.00  0.00     0.026 A 
ATOM     26  C   UNL d   1      45.579 -17.701  40.836  0.00  0.00     0.020 A 
BRANCH  24  27
ATOM     27  O   UNL d   1      46.508 -19.240  42.082  0.00  0.00    -0.328 OA
ATOM     28  C   UNL d   1      46.169 -19.075  42.825  0.00  0.00     0.181 C 
ENDBRANCH  24  27
ENDBRANCH   2  21
TORSDOF 8
ENDMDL
