MODEL 1
REMARK VINA RESULT:      -7.5      0.000      0.000
REMARK  4 active torsions:
REMARK  status: ('A' for Active; 'I' for Inactive)
REMARK    1  A    between atoms: N_3  and  C_1 
REMARK       I    between atoms: C_5  and  N_3 
REMARK    2  A    between atoms: C_15  and  C_5 
REMARK    3  A    between atoms: C_8  and  C_9 
REMARK    4  A    between atoms: O_16  and  C_8 
ROOT
ATOM      1  C   UNL d   1     -47.536  13.678  23.011  0.00  0.00     0.197 A 
ATOM      2  N   UNL d   1     -46.925  13.955  22.516  0.00  0.00    -0.221 NA
ATOM      3  S   UNL d   1     -47.284  12.972  23.352  0.00  0.00    -0.047 SA
ATOM      4  C   UNL d   1     -46.524  12.801  23.077  0.00  0.00     0.050 A 
ATOM      5  C   UNL d   1     -46.299  13.414  22.556  0.00  0.00     0.090 A 
ATOM      6  C   UNL d   1     -45.274  12.163  22.864  0.00  0.00     0.064 A 
ATOM      7  C   UNL d   1     -46.006  12.177  23.227  0.00  0.00     0.013 A 
ATOM      8  C   UNL d   1     -45.562  13.391  22.196  0.00  0.00     0.020 A 
ATOM      9  C   UNL d   1     -45.050  12.776  22.343  0.00  0.00     0.007 A 
ENDROOT
BRANCH   1  10
ATOM     10  N   UNL d   1     -48.264  14.050  23.136  0.00  0.00    -0.183 NA
ATOM     11  C   UNL d   1     -48.834  14.053  22.539  0.00  0.00     0.281 C 
ATOM     12  O   UNL d   1     -48.676  13.684  21.818  0.00  0.00    -0.265 OA
BRANCH  11  13
ATOM     13  C   UNL d   1     -49.550  14.418  22.661  0.00  0.00     0.058 A 
ATOM     14  C   UNL d   1     -50.254  14.033  22.443  0.00  0.00     0.005 A 
ATOM     15  C   UNL d   1     -50.981  14.404  22.567  0.00  0.00     0.000 A 
ATOM     16  C   UNL d   1     -51.005  15.162  22.910  0.00  0.00     0.000 A 
ATOM     17  C   UNL d   1     -50.311  15.531  23.120  0.00  0.00     0.000 A 
ATOM     18  C   UNL d   1     -49.584  15.160  22.996  0.00  0.00     0.005 A 
ENDBRANCH  11  13
ENDBRANCH   1  10
BRANCH   6  19
ATOM     19  C   UNL d   1     -44.746  11.545  23.005  0.00  0.00     0.296 C 
ATOM     20  O   UNL d   1     -44.033  11.507  22.607  0.00  0.00    -0.259 OA
BRANCH  19  21
ATOM     21  O   UNL d   1     -44.950  10.959  23.558  0.00  0.00    -0.296 OA
ATOM     22  C   UNL d   1     -44.434  10.337  23.696  0.00  0.00     0.185 C 
ENDBRANCH  19  21
ENDBRANCH   6  19
TORSDOF 4
ENDMDL
MODEL 2
REMARK VINA RESULT:      -7.2      0.801      1.277
REMARK  4 active torsions:
REMARK  status: ('A' for Active; 'I' for Inactive)
REMARK    1  A    between atoms: N_3  and  C_1 
REMARK       I    between atoms: C_5  and  N_3 
REMARK    2  A    between atoms: C_15  and  C_5 
REMARK    3  A    between atoms: C_8  and  C_9 
REMARK    4  A    between atoms: O_16  and  C_8 
ROOT
ATOM      1  C   UNL d   1     -47.732  13.683  23.199  0.00  0.00     0.197 A 
ATOM      2  N   UNL d   1     -47.622  12.892  23.439  0.00  0.00    -0.221 NA
ATOM      3  S   UNL d   1     -47.045  13.928  22.817  0.00  0.00    -0.047 SA
ATOM      4  C   UNL d   1     -46.505  13.302  22.813  0.00  0.00     0.050 A 
ATOM      5  C   UNL d   1     -46.865  12.656  23.201  0.00  0.00     0.090 A 
ATOM      6  C   UNL d   1     -45.339  12.522  22.597  0.00  0.00     0.064 A 
ATOM      7  C   UNL d   1     -45.740  13.229  22.513  0.00  0.00     0.013 A 
ATOM      8  C   UNL d   1     -46.453  11.950  23.280  0.00  0.00     0.020 A 
ATOM      9  C   UNL d   1     -45.699  11.876  22.985  0.00  0.00     0.007 A 
ENDROOT
BRANCH   1  10
ATOM     10  N   UNL d   1     -48.411  14.137  23.325  0.00  0.00    -0.183 NA
ATOM     11  C   UNL d   1     -48.994  14.178  22.743  0.00  0.00     0.281 C 
ATOM     12  O   UNL d   1     -48.898  13.766  22.035  0.00  0.00    -0.265 OA
BRANCH  11  13
ATOM     13  C   UNL d   1     -49.662  14.625  22.866  0.00  0.00     0.058 A 
ATOM     14  C   UNL d   1     -50.386  14.390  22.529  0.00  0.00     0.005 A 
ATOM     15  C   UNL d   1     -51.064  14.843  22.655  0.00  0.00     0.000 A 
ATOM     16  C   UNL d   1     -51.020  15.533  23.118  0.00  0.00     0.000 A 
ATOM     17  C   UNL d   1     -50.309  15.755  23.444  0.00  0.00     0.000 A 
ATOM     18  C   UNL d   1     -49.630  15.301  23.318  0.00  0.00     0.005 A 
ENDBRANCH  11  13
ENDBRANCH   1  10
BRANCH   6  19
ATOM     19  C   UNL d   1     -44.574  12.435  22.301  0.00  0.00     0.296 C 
ATOM     20  O   UNL d   1     -44.109  11.803  22.529  0.00  0.00    -0.259 OA
BRANCH  19  21
ATOM     21  O   UNL d   1     -44.281  13.001  21.768  0.00  0.00    -0.296 OA
ATOM     22  C   UNL d   1     -43.556  12.878  21.405  0.00  0.00     0.185 C 
ENDBRANCH  19  21
ENDBRANCH   6  19
TORSDOF 4
ENDMDL
MODEL 3
REMARK VINA RESULT:      -7.2      1.087      5.158
REMARK  4 active torsions:
REMARK  status: ('A' for Active; 'I' for Inactive)
REMARK    1  A    between atoms: N_3  and  C_1 
REMARK       I    between atoms: C_5  and  N_3 
REMARK    2  A    between atoms: C_15  and  C_5 
REMARK    3  A    between atoms: C_8  and  C_9 
REMARK    4  A    between atoms: O_16  and  C_8 
ROOT
ATOM      1  C   UNL d   1     -46.294  12.749  23.266  0.00  0.00     0.197 A 
ATOM      2  N   UNL d   1     -46.024  13.519  23.096  0.00  0.00    -0.221 NA
ATOM      3  S   UNL d   1     -47.115  12.750  23.199  0.00  0.00    -0.047 SA
ATOM      4  C   UNL d   1     -47.364  13.509  22.989  0.00  0.00     0.050 A 
ATOM      5  C   UNL d   1     -46.684  13.989  22.924  0.00  0.00     0.090 A 
ATOM      6  C   UNL d   1     -48.179  14.619  22.645  0.00  0.00     0.064 A 
ATOM      7  C   UNL d   1     -48.111  13.830  22.848  0.00  0.00     0.013 A 
ATOM      8  C   UNL d   1     -46.764  14.780  22.720  0.00  0.00     0.020 A 
ATOM      9  C   UNL d   1     -47.499  15.099  22.581  0.00  0.00     0.007 A 
ENDROOT
BRANCH   1  10
ATOM     10  N   UNL d   1     -45.819  12.102  23.466  0.00  0.00    -0.183 NA
ATOM     11  C   UNL d   1     -45.214  11.862  22.960  0.00  0.00     0.281 C 
ATOM     12  O   UNL d   1     -45.084  12.267  22.254  0.00  0.00    -0.265 OA
BRANCH  11  13
ATOM     13  C   UNL d   1     -44.747  11.226  23.157  0.00  0.00     0.058 A 
ATOM     14  C   UNL d   1     -45.091  10.549  23.498  0.00  0.00     0.005 A 
ATOM     15  C   UNL d   1     -44.617   9.904  23.698  0.00  0.00     0.000 A 
ATOM     16  C   UNL d   1     -43.798   9.934  23.557  0.00  0.00     0.000 A 
ATOM     17  C   UNL d   1     -43.470  10.600  23.224  0.00  0.00     0.000 A 
ATOM     18  C   UNL d   1     -43.944  11.246  23.024  0.00  0.00     0.005 A 
ENDBRANCH  11  13
ENDBRANCH   1  10
BRANCH   6  19
ATOM     19  C   UNL d   1     -48.920  14.953  22.501  0.00  0.00     0.296 C 
ATOM     20  O   UNL d   1     -49.277  14.876  21.770  0.00  0.00    -0.259 OA
BRANCH  19  21
ATOM     21  O   UNL d   1     -49.299  15.371  23.112  0.00  0.00    -0.296 OA
ATOM     22  C   UNL d   1     -50.116  15.445  23.104  0.00  0.00     0.185 C 
ENDBRANCH  19  21
ENDBRANCH   6  19
TORSDOF 4
ENDMDL
MODEL 4
REMARK VINA RESULT:      -6.4      1.591      2.131
REMARK  4 active torsions:
REMARK  status: ('A' for Active; 'I' for Inactive)
REMARK    1  A    between atoms: N_3  and  C_1 
REMARK       I    between atoms: C_5  and  N_3 
REMARK    2  A    between atoms: C_15  and  C_5 
REMARK    3  A    between atoms: C_8  and  C_9 
REMARK    4  A    between atoms: O_16  and  C_8 
ROOT
ATOM      1  C   UNL d   1     -47.322  12.694  23.145  0.00  0.00     0.197 A 
ATOM      2  N   UNL d   1     -46.810  12.081  23.386  0.00  0.00    -0.221 NA
ATOM      3  S   UNL d   1     -46.894  13.204  22.662  0.00  0.00    -0.047 SA
ATOM      4  C   UNL d   1     -46.120  12.921  22.595  0.00  0.00     0.050 A 
ATOM      5  C   UNL d   1     -46.068  12.220  23.046  0.00  0.00     0.090 A 
ATOM      6  C   UNL d   1     -44.755  12.788  22.231  0.00  0.00     0.064 A 
ATOM      7  C   UNL d   1     -45.459  13.200  22.188  0.00  0.00     0.013 A 
ATOM      8  C   UNL d   1     -45.356  11.814  23.082  0.00  0.00     0.020 A 
ATOM      9  C   UNL d   1     -44.703  12.087  22.682  0.00  0.00     0.007 A 
ENDROOT
BRANCH   1  10
ATOM     10  N   UNL d   1     -48.117  12.771  23.357  0.00  0.00    -0.183 NA
ATOM     11  C   UNL d   1     -48.691  12.310  22.985  0.00  0.00     0.281 C 
ATOM     12  O   UNL d   1     -48.470  11.771  22.400  0.00  0.00    -0.265 OA
BRANCH  11  13
ATOM     13  C   UNL d   1     -49.473  12.386  23.193  0.00  0.00     0.058 A 
ATOM     14  C   UNL d   1     -49.855  13.120  23.108  0.00  0.00     0.005 A 
ATOM     15  C   UNL d   1     -50.649  13.198  23.320  0.00  0.00     0.000 A 
ATOM     16  C   UNL d   1     -51.063  12.541  23.617  0.00  0.00     0.000 A 
ATOM     17  C   UNL d   1     -50.682  11.826  23.698  0.00  0.00     0.000 A 
ATOM     18  C   UNL d   1     -49.887  11.749  23.486  0.00  0.00     0.005 A 
ENDBRANCH  11  13
ENDBRANCH   1  10
BRANCH   6  19
ATOM     19  C   UNL d   1     -44.086  13.056  21.829  0.00  0.00     0.296 C 
ATOM     20  O   UNL d   1     -43.943  13.856  21.744  0.00  0.00    -0.259 OA
BRANCH  19  21
ATOM     21  O   UNL d   1     -43.557  12.499  21.511  0.00  0.00    -0.296 OA
ATOM     22  C   UNL d   1     -42.872  12.757  21.140  0.00  0.00     0.185 C 
ENDBRANCH  19  21
ENDBRANCH   6  19
TORSDOF 4
ENDMDL
MODEL 5
REMARK VINA RESULT:      -6.0      1.405      5.168
REMARK  4 active torsions:
REMARK  status: ('A' for Active; 'I' for Inactive)
REMARK    1  A    between atoms: N_3  and  C_1 
REMARK       I    between atoms: C_5  and  N_3 
REMARK    2  A    between atoms: C_15  and  C_5 
REMARK    3  A    between atoms: C_8  and  C_9 
REMARK    4  A    between atoms: O_16  and  C_8 
ROOT
ATOM      1  C   UNL d   1     -46.601  13.372  22.814  0.00  0.00     0.197 A 
ATOM      2  N   UNL d   1     -47.186  12.787  22.918  0.00  0.00    -0.221 NA
ATOM      3  S   UNL d   1     -46.974  14.105  22.812  0.00  0.00    -0.047 SA
ATOM      4  C   UNL d   1     -47.787  13.990  22.913  0.00  0.00     0.050 A 
ATOM      5  C   UNL d   1     -47.919  13.168  22.979  0.00  0.00     0.090 A 
ATOM      6  C   UNL d   1     -49.178  14.225  23.060  0.00  0.00     0.064 A 
ATOM      7  C   UNL d   1     -48.422  14.515  22.954  0.00  0.00     0.013 A 
ATOM      8  C   UNL d   1     -48.683  12.888  23.085  0.00  0.00     0.020 A 
ATOM      9  C   UNL d   1     -49.311  13.404  23.126  0.00  0.00     0.007 A 
ENDROOT
BRANCH   1  10
ATOM     10  N   UNL d   1     -45.790  13.234  22.729  0.00  0.00    -0.183 NA
ATOM     11  C   UNL d   1     -45.495  12.929  22.022  0.00  0.00     0.281 C 
ATOM     12  O   UNL d   1     -46.010  12.762  21.400  0.00  0.00    -0.265 OA
BRANCH  11  13
ATOM     13  C   UNL d   1     -44.697  12.794  21.938  0.00  0.00     0.058 A 
ATOM     14  C   UNL d   1     -44.239  13.303  21.464  0.00  0.00     0.005 A 
ATOM     15  C   UNL d   1     -43.429  13.166  21.379  0.00  0.00     0.000 A 
ATOM     16  C   UNL d   1     -43.076  12.520  21.767  0.00  0.00     0.000 A 
ATOM     17  C   UNL d   1     -43.532  12.028  22.228  0.00  0.00     0.000 A 
ATOM     18  C   UNL d   1     -44.342  12.166  22.314  0.00  0.00     0.005 A 
ENDBRANCH  11  13
ENDBRANCH   1  10
BRANCH   6  19
ATOM     19  C   UNL d   1     -49.823  14.739  23.102  0.00  0.00     0.296 C 
ATOM     20  O   UNL d   1     -50.514  14.576  22.697  0.00  0.00    -0.259 OA
BRANCH  19  21
ATOM     21  O   UNL d   1     -49.761  15.427  23.565  0.00  0.00    -0.296 OA
ATOM     22  C   UNL d   1     -50.424  15.894  23.686  0.00  0.00     0.185 C 
ENDBRANCH  19  21
ENDBRANCH   6  19
TORSDOF 4
ENDMDL
MODEL 6
REMARK VINA RESULT:      -5.5      8.235      9.886
REMARK  4 active torsions:
REMARK  status: ('A' for Active; 'I' for Inactive)
REMARK    1  A    between atoms: N_3  and  C_1 
REMARK       I    between atoms: C_5  and  N_3 
REMARK    2  A    between atoms: C_15  and  C_5 
REMARK    3  A    between atoms: C_8  and  C_9 
REMARK    4  A    between atoms: O_16  and  C_8 
ROOT
ATOM      1  C   UNL d   1     -38.873  14.437  19.109  0.00  0.00     0.197 A 
ATOM      2  N   UNL d   1     -39.643  14.567  19.400  0.00  0.00    -0.221 NA
ATOM      3  S   UNL d   1     -38.383  14.285  19.754  0.00  0.00    -0.047 SA
ATOM      4  C   UNL d   1     -38.836  14.317  20.445  0.00  0.00     0.050 A 
ATOM      5  C   UNL d   1     -39.622  14.493  20.224  0.00  0.00     0.090 A 
ATOM      6  C   UNL d   1     -39.227  14.281  21.808  0.00  0.00     0.064 A 
ATOM      7  C   UNL d   1     -38.644  14.212  21.240  0.00  0.00     0.013 A 
ATOM      8  C   UNL d   1     -40.199  14.561  20.803  0.00  0.00     0.020 A 
ATOM      9  C   UNL d   1     -40.012  14.457  21.588  0.00  0.00     0.007 A 
ENDROOT
BRANCH   1  10
ATOM     10  N   UNL d   1     -38.645  14.459  18.315  0.00  0.00    -0.183 NA
ATOM     11  C   UNL d   1     -38.871  13.852  17.804  0.00  0.00     0.281 C 
ATOM     12  O   UNL d   1     -39.325  13.224  18.087  0.00  0.00    -0.265 OA
BRANCH  11  13
ATOM     13  C   UNL d   1     -38.647  13.873  17.023  0.00  0.00     0.058 A 
ATOM     14  C   UNL d   1     -38.910  14.492  16.533  0.00  0.00     0.005 A 
ATOM     15  C   UNL d   1     -38.682  14.514  15.739  0.00  0.00     0.000 A 
ATOM     16  C   UNL d   1     -38.192  13.915  15.434  0.00  0.00     0.000 A 
ATOM     17  C   UNL d   1     -37.940  13.313  15.920  0.00  0.00     0.000 A 
ATOM     18  C   UNL d   1     -38.167  13.292  16.714  0.00  0.00     0.005 A 
ENDBRANCH  11  13
ENDBRANCH   1  10
BRANCH   6  19
ATOM     19  C   UNL d   1     -39.049  14.178  22.608  0.00  0.00     0.296 C 
ATOM     20  O   UNL d   1     -39.050  14.814  23.120  0.00  0.00    -0.259 OA
BRANCH  19  21
ATOM     21  O   UNL d   1     -38.868  13.415  22.885  0.00  0.00    -0.296 OA
ATOM     22  C   UNL d   1     -38.699  13.304  23.680  0.00  0.00     0.185 C 
ENDBRANCH  19  21
ENDBRANCH   6  19
TORSDOF 4
ENDMDL
MODEL 7
REMARK VINA RESULT:      -4.8      8.352      8.894
REMARK  4 active torsions:
REMARK  status: ('A' for Active; 'I' for Inactive)
REMARK    1  A    between atoms: N_3  and  C_1 
REMARK       I    between atoms: C_5  and  N_3 
REMARK    2  A    between atoms: C_15  and  C_5 
REMARK    3  A    between atoms: C_8  and  C_9 
REMARK    4  A    between atoms: O_16  and  C_8 
ROOT
ATOM      1  C   UNL d   1     -39.696  15.585  19.953  0.00  0.00     0.197 A 
ATOM      2  N   UNL d   1     -38.977  15.921  20.206  0.00  0.00    -0.221 NA
ATOM      3  S   UNL d   1     -39.924  15.027  20.514  0.00  0.00    -0.047 SA
ATOM      4  C   UNL d   1     -39.358  15.008  21.116  0.00  0.00     0.050 A 
ATOM      5  C   UNL d   1     -38.767  15.566  20.924  0.00  0.00     0.090 A 
ATOM      6  C   UNL d   1     -38.658  14.674  22.304  0.00  0.00     0.064 A 
ATOM      7  C   UNL d   1     -39.298  14.564  21.808  0.00  0.00     0.013 A 
ATOM      8  C   UNL d   1     -38.128  15.668  21.429  0.00  0.00     0.020 A 
ATOM      9  C   UNL d   1     -38.067  15.232  22.112  0.00  0.00     0.007 A 
ENDROOT
BRANCH   1  10
ATOM     10  N   UNL d   1     -40.104  15.779  19.261  0.00  0.00    -0.183 NA
ATOM     11  C   UNL d   1     -40.008  15.321  18.582  0.00  0.00     0.281 C 
ATOM     12  O   UNL d   1     -39.504  14.668  18.594  0.00  0.00    -0.265 OA
BRANCH  11  13
ATOM     13  C   UNL d   1     -40.409  15.513  17.901  0.00  0.00     0.058 A 
ATOM     14  C   UNL d   1     -39.993  15.600  17.186  0.00  0.00     0.005 A 
ATOM     15  C   UNL d   1     -40.401  15.795  16.494  0.00  0.00     0.000 A 
ATOM     16  C   UNL d   1     -41.226  15.902  16.517  0.00  0.00     0.000 A 
ATOM     17  C   UNL d   1     -41.624  15.814  17.221  0.00  0.00     0.000 A 
ATOM     18  C   UNL d   1     -41.216  15.620  17.912  0.00  0.00     0.005 A 
ENDBRANCH  11  13
ENDBRANCH   1  10
BRANCH   6  19
ATOM     19  C   UNL d   1     -38.585  14.237  23.000  0.00  0.00     0.296 C 
ATOM     20  O   UNL d   1     -38.320  14.590  23.688  0.00  0.00    -0.259 OA
BRANCH  19  21
ATOM     21  O   UNL d   1     -38.784  13.430  22.992  0.00  0.00    -0.296 OA
ATOM     22  C   UNL d   1     -38.807  13.013  23.698  0.00  0.00     0.185 C 
ENDBRANCH  19  21
ENDBRANCH   6  19
TORSDOF 4
ENDMDL
