MODEL 1
REMARK VINA RESULT:      -8.0      0.000      0.000
REMARK  3 active torsions:
REMARK  status: ('A' for Active; 'I' for Inactive)
REMARK    1  A    between atoms: C_7  and  C_1 
REMARK    2  A    between atoms: C_13  and  C_7 
REMARK    3  A    between atoms: N_12  and  C_11 
ROOT
ATOM      1  C   UNL d   1     -47.095  13.158  23.649  0.00  0.00     0.010 C 
ENDROOT
BRANCH   1   2
ATOM      2  C   UNL d   1     -46.430  13.107  23.205  0.00  0.00     0.116 A 
ATOM      3  C   UNL d   1     -45.983  12.414  23.192  0.00  0.00     0.288 A 
ATOM      4  N   UNL d   1     -45.300  12.351  22.739  0.00  0.00    -0.152 NA
ATOM      5  O   UNL d   1     -46.229  11.767  23.644  0.00  0.00    -0.265 OA
ATOM      6  C   UNL d   1     -45.058  12.987  22.294  0.00  0.00     0.374 A 
ATOM      7  N   UNL d   1     -45.483  13.689  22.289  0.00  0.00    -0.152 NA
ATOM      8  O   UNL d   1     -44.359  12.918  21.834  0.00  0.00    -0.242 OA
ATOM      9  C   UNL d   1     -46.165  13.742  22.744  0.00  0.00     0.288 A 
ATOM     10  O   UNL d   1     -46.603  14.452  22.743  0.00  0.00    -0.265 OA
ENDBRANCH   1   2
BRANCH   1  11
ATOM     11  C   UNL d   1     -47.831  12.980  23.316  0.00  0.00     0.000 A 
ATOM     12  C   UNL d   1     -48.087  12.220  23.286  0.00  0.00     0.002 A 
ATOM     13  C   UNL d   1     -48.802  12.023  22.965  0.00  0.00     0.018 A 
ATOM     14  C   UNL d   1     -49.273  12.631  22.663  0.00  0.00     0.064 A 
ATOM     15  C   UNL d   1     -49.015  13.418  22.691  0.00  0.00     0.018 A 
ATOM     16  C   UNL d   1     -48.296  13.592  23.016  0.00  0.00     0.002 A 
BRANCH  14  17
ATOM     17  N   UNL d   1     -50.007  12.437  22.333  0.00  0.00    -0.301 N 
ATOM     18  C   UNL d   1     -50.121  12.514  21.529  0.00  0.00     0.100 C 
ATOM     19  C   UNL d   1     -50.610  12.169  22.834  0.00  0.00     0.100 C 
ENDBRANCH  14  17
ENDBRANCH   1  11
TORSDOF 3
ENDMDL
MODEL 2
REMARK VINA RESULT:      -7.5      1.562      2.271
REMARK  3 active torsions:
REMARK  status: ('A' for Active; 'I' for Inactive)
REMARK    1  A    between atoms: C_7  and  C_1 
REMARK    2  A    between atoms: C_13  and  C_7 
REMARK    3  A    between atoms: N_12  and  C_11 
ROOT
ATOM      1  C   UNL d   1     -47.834  13.456  21.859  0.00  0.00     0.010 C 
ENDROOT
BRANCH   1   2
ATOM      2  C   UNL d   1     -47.336  13.014  22.306  0.00  0.00     0.116 A 
ATOM      3  C   UNL d   1     -46.630  13.331  22.590  0.00  0.00     0.288 A 
ATOM      4  N   UNL d   1     -46.113  12.887  23.050  0.00  0.00    -0.152 NA
ATOM      5  O   UNL d   1     -46.438  14.115  22.408  0.00  0.00    -0.265 OA
ATOM      6  C   UNL d   1     -46.302  12.117  23.228  0.00  0.00     0.374 A 
ATOM      7  N   UNL d   1     -46.998  11.776  22.959  0.00  0.00    -0.152 NA
ATOM      8  O   UNL d   1     -45.771  11.667  23.698  0.00  0.00    -0.242 OA
ATOM      9  C   UNL d   1     -47.509  12.228  22.500  0.00  0.00     0.288 A 
ATOM     10  O   UNL d   1     -48.218  11.888  22.223  0.00  0.00    -0.265 OA
ENDBRANCH   1   2
BRANCH   1  11
ATOM     11  C   UNL d   1     -48.436  13.894  22.218  0.00  0.00     0.000 A 
ATOM     12  C   UNL d   1     -49.141  13.548  22.386  0.00  0.00     0.002 A 
ATOM     13  C   UNL d   1     -49.743  13.957  22.737  0.00  0.00     0.018 A 
ATOM     14  C   UNL d   1     -49.617  14.752  22.923  0.00  0.00     0.064 A 
ATOM     15  C   UNL d   1     -48.893  15.115  22.753  0.00  0.00     0.018 A 
ATOM     16  C   UNL d   1     -48.304  14.688  22.401  0.00  0.00     0.002 A 
BRANCH  14  17
ATOM     17  N   UNL d   1     -50.230  15.177  23.283  0.00  0.00    -0.301 N 
ATOM     18  C   UNL d   1     -50.998  14.908  23.222  0.00  0.00     0.100 C 
ATOM     19  C   UNL d   1     -50.043  15.870  23.698  0.00  0.00     0.100 C 
ENDBRANCH  14  17
ENDBRANCH   1  11
TORSDOF 3
ENDMDL
MODEL 3
REMARK VINA RESULT:      -7.2      2.071      3.902
REMARK  3 active torsions:
REMARK  status: ('A' for Active; 'I' for Inactive)
REMARK    1  A    between atoms: C_7  and  C_1 
REMARK    2  A    between atoms: C_13  and  C_7 
REMARK    3  A    between atoms: N_12  and  C_11 
ROOT
ATOM      1  C   UNL d   1     -48.602  14.071  21.776  0.00  0.00     0.010 C 
ENDROOT
BRANCH   1   2
ATOM      2  C   UNL d   1     -49.207  14.482  22.106  0.00  0.00     0.116 A 
ATOM      3  C   UNL d   1     -49.062  15.166  22.544  0.00  0.00     0.288 A 
ATOM      4  N   UNL d   1     -49.675  15.595  22.886  0.00  0.00    -0.152 NA
ATOM      5  O   UNL d   1     -48.283  15.426  22.640  0.00  0.00    -0.265 OA
ATOM      6  C   UNL d   1     -50.441  15.339  22.791  0.00  0.00     0.374 A 
ATOM      7  N   UNL d   1     -50.613  14.662  22.360  0.00  0.00    -0.152 NA
ATOM      8  O   UNL d   1     -51.062  15.781  23.143  0.00  0.00    -0.242 OA
ATOM      9  C   UNL d   1     -49.995  14.240  22.022  0.00  0.00     0.288 A 
ATOM     10  O   UNL d   1     -50.162  13.551  21.583  0.00  0.00    -0.265 OA
ENDBRANCH   1   2
BRANCH   1  11
ATOM     11  C   UNL d   1     -48.224  13.474  22.206  0.00  0.00     0.000 A 
ATOM     12  C   UNL d   1     -47.529  13.624  22.577  0.00  0.00     0.002 A 
ATOM     13  C   UNL d   1     -47.142  13.056  23.002  0.00  0.00     0.018 A 
ATOM     14  C   UNL d   1     -47.482  12.305  23.048  0.00  0.00     0.064 A 
ATOM     15  C   UNL d   1     -48.199  12.143  22.666  0.00  0.00     0.018 A 
ATOM     16  C   UNL d   1     -48.569  12.726  22.247  0.00  0.00     0.002 A 
BRANCH  14  17
ATOM     17  N   UNL d   1     -47.091  11.717  23.482  0.00  0.00    -0.301 N 
ATOM     18  C   UNL d   1     -47.493  11.041  23.698  0.00  0.00     0.100 C 
ATOM     19  C   UNL d   1     -46.296  11.836  23.684  0.00  0.00     0.100 C 
ENDBRANCH  14  17
ENDBRANCH   1  11
TORSDOF 3
ENDMDL
MODEL 4
REMARK VINA RESULT:      -6.9      2.160      4.017
REMARK  3 active torsions:
REMARK  status: ('A' for Active; 'I' for Inactive)
REMARK    1  A    between atoms: C_7  and  C_1 
REMARK    2  A    between atoms: C_13  and  C_7 
REMARK    3  A    between atoms: N_12  and  C_11 
ROOT
ATOM      1  C   UNL d   1     -49.777  12.529  22.313  0.00  0.00     0.010 C 
ENDROOT
BRANCH   1   2
ATOM      2  C   UNL d   1     -50.088  13.262  22.405  0.00  0.00     0.116 A 
ATOM      3  C   UNL d   1     -50.488  13.468  23.096  0.00  0.00     0.288 A 
ATOM      4  N   UNL d   1     -50.810  14.217  23.200  0.00  0.00    -0.152 NA
ATOM      5  O   UNL d   1     -50.567  12.906  23.698  0.00  0.00    -0.265 OA
ATOM      6  C   UNL d   1     -50.732  14.769  22.608  0.00  0.00     0.374 A 
ATOM      7  N   UNL d   1     -50.339  14.591  21.910  0.00  0.00    -0.152 NA
ATOM      8  O   UNL d   1     -51.063  15.532  22.719  0.00  0.00    -0.242 OA
ATOM      9  C   UNL d   1     -50.020  13.840  21.815  0.00  0.00     0.288 A 
ATOM     10  O   UNL d   1     -49.619  13.652  21.108  0.00  0.00    -0.265 OA
ENDBRANCH   1   2
BRANCH   1  11
ATOM     11  C   UNL d   1     -49.031  12.352  22.624  0.00  0.00     0.000 A 
ATOM     12  C   UNL d   1     -48.410  12.838  22.480  0.00  0.00     0.002 A 
ATOM     13  C   UNL d   1     -47.672  12.685  22.774  0.00  0.00     0.018 A 
ATOM     14  C   UNL d   1     -47.570  12.007  23.234  0.00  0.00     0.064 A 
ATOM     15  C   UNL d   1     -48.208  11.500  23.386  0.00  0.00     0.018 A 
ATOM     16  C   UNL d   1     -48.936  11.673  23.082  0.00  0.00     0.002 A 
BRANCH  14  17
ATOM     17  N   UNL d   1     -46.817  11.843  23.538  0.00  0.00    -0.301 N 
ATOM     18  C   UNL d   1     -46.295  12.455  23.674  0.00  0.00     0.100 C 
ATOM     19  C   UNL d   1     -46.615  11.055  23.697  0.00  0.00     0.100 C 
ENDBRANCH  14  17
ENDBRANCH   1  11
TORSDOF 3
ENDMDL
MODEL 5
REMARK VINA RESULT:      -6.1      8.210      9.169
REMARK  3 active torsions:
REMARK  status: ('A' for Active; 'I' for Inactive)
REMARK    1  A    between atoms: C_7  and  C_1 
REMARK    2  A    between atoms: C_13  and  C_7 
REMARK    3  A    between atoms: N_12  and  C_11 
ROOT
ATOM      1  C   UNL d   1     -39.503  14.466  18.436  0.00  0.00     0.010 C 
ENDROOT
BRANCH   1   2
ATOM      2  C   UNL d   1     -40.032  14.814  17.945  0.00  0.00     0.116 A 
ATOM      3  C   UNL d   1     -40.759  14.458  17.786  0.00  0.00     0.288 A 
ATOM      4  N   UNL d   1     -41.308  14.807  17.285  0.00  0.00    -0.152 NA
ATOM      5  O   UNL d   1     -40.938  13.733  18.141  0.00  0.00    -0.265 OA
ATOM      6  C   UNL d   1     -41.132  15.520  16.936  0.00  0.00     0.374 A 
ATOM      7  N   UNL d   1     -40.417  15.896  17.076  0.00  0.00    -0.152 NA
ATOM      8  O   UNL d   1     -41.697  15.872  16.424  0.00  0.00    -0.242 OA
ATOM      9  C   UNL d   1     -39.873  15.540  17.579  0.00  0.00     0.288 A 
ATOM     10  O   UNL d   1     -39.144  15.917  17.726  0.00  0.00    -0.265 OA
ENDBRANCH   1   2
BRANCH   1  11
ATOM     11  C   UNL d   1     -39.487  14.666  19.238  0.00  0.00     0.000 A 
ATOM     12  C   UNL d   1     -40.079  14.425  19.725  0.00  0.00     0.002 A 
ATOM     13  C   UNL d   1     -40.084  14.610  20.512  0.00  0.00     0.018 A 
ATOM     14  C   UNL d   1     -39.458  15.058  20.811  0.00  0.00     0.064 A 
ATOM     15  C   UNL d   1     -38.844  15.309  20.314  0.00  0.00     0.018 A 
ATOM     16  C   UNL d   1     -38.859  15.114  19.530  0.00  0.00     0.002 A 
BRANCH  14  17
ATOM     17  N   UNL d   1     -39.456  15.250  21.616  0.00  0.00    -0.301 N 
ATOM     18  C   UNL d   1     -39.843  15.922  21.871  0.00  0.00     0.100 C 
ATOM     19  C   UNL d   1     -39.059  14.750  22.144  0.00  0.00     0.100 C 
ENDBRANCH  14  17
ENDBRANCH   1  11
TORSDOF 3
ENDMDL
MODEL 6
REMARK VINA RESULT:      -6.1      7.853      9.350
REMARK  3 active torsions:
REMARK  status: ('A' for Active; 'I' for Inactive)
REMARK    1  A    between atoms: C_7  and  C_1 
REMARK    2  A    between atoms: C_13  and  C_7 
REMARK    3  A    between atoms: N_12  and  C_11 
ROOT
ATOM      1  C   UNL d   1     -40.576  14.470  17.766  0.00  0.00     0.010 C 
ENDROOT
BRANCH   1   2
ATOM      2  C   UNL d   1     -39.931  14.517  17.291  0.00  0.00     0.116 A 
ATOM      3  C   UNL d   1     -39.816  15.169  16.799  0.00  0.00     0.288 A 
ATOM      4  N   UNL d   1     -39.159  15.227  16.309  0.00  0.00    -0.152 NA
ATOM      5  O   UNL d   1     -40.375  15.778  16.800  0.00  0.00    -0.265 OA
ATOM      6  C   UNL d   1     -38.609  14.628  16.308  0.00  0.00     0.374 A 
ATOM      7  N   UNL d   1     -38.699  13.968  16.788  0.00  0.00    -0.152 NA
ATOM      8  O   UNL d   1     -37.940  14.692  15.806  0.00  0.00    -0.242 OA
ATOM      9  C   UNL d   1     -39.359  13.919  17.275  0.00  0.00     0.288 A 
ATOM     10  O   UNL d   1     -39.456  13.251  17.765  0.00  0.00    -0.265 OA
ENDBRANCH   1   2
BRANCH   1  11
ATOM     11  C   UNL d   1     -40.540  14.753  18.542  0.00  0.00     0.000 A 
ATOM     12  C   UNL d   1     -40.592  15.541  18.687  0.00  0.00     0.002 A 
ATOM     13  C   UNL d   1     -40.560  15.839  19.438  0.00  0.00     0.018 A 
ATOM     14  C   UNL d   1     -40.471  15.308  20.064  0.00  0.00     0.064 A 
ATOM     15  C   UNL d   1     -40.417  14.493  19.922  0.00  0.00     0.018 A 
ATOM     16  C   UNL d   1     -40.452  14.217  19.163  0.00  0.00     0.002 A 
BRANCH  14  17
ATOM     17  N   UNL d   1     -40.437  15.606  20.836  0.00  0.00    -0.301 N 
ATOM     18  C   UNL d   1     -39.733  15.582  21.247  0.00  0.00     0.100 C 
ATOM     19  C   UNL d   1     -41.126  15.922  21.170  0.00  0.00     0.100 C 
ENDBRANCH  14  17
ENDBRANCH   1  11
TORSDOF 3
ENDMDL
MODEL 7
REMARK VINA RESULT:      -5.7      7.754      8.585
REMARK  3 active torsions:
REMARK  status: ('A' for Active; 'I' for Inactive)
REMARK    1  A    between atoms: C_7  and  C_1 
REMARK    2  A    between atoms: C_13  and  C_7 
REMARK    3  A    between atoms: N_12  and  C_11 
ROOT
ATOM      1  C   UNL d   1     -40.656  14.528  20.186  0.00  0.00     0.010 C 
ENDROOT
BRANCH   1   2
ATOM      2  C   UNL d   1     -40.191  14.871  20.743  0.00  0.00     0.116 A 
ATOM      3  C   UNL d   1     -39.417  14.614  20.862  0.00  0.00     0.288 A 
ATOM      4  N   UNL d   1     -38.932  14.958  21.430  0.00  0.00    -0.152 NA
ATOM      5  O   UNL d   1     -39.122  13.995  20.399  0.00  0.00    -0.265 OA
ATOM      6  C   UNL d   1     -39.222  15.566  21.885  0.00  0.00     0.374 A 
ATOM      7  N   UNL d   1     -39.989  15.841  21.788  0.00  0.00    -0.152 NA
ATOM      8  O   UNL d   1     -38.723  15.914  22.464  0.00  0.00    -0.242 OA
ATOM      9  C   UNL d   1     -40.467  15.491  21.218  0.00  0.00     0.288 A 
ATOM     10  O   UNL d   1     -41.247  15.765  21.113  0.00  0.00    -0.265 OA
ENDBRANCH   1   2
BRANCH   1  11
ATOM     11  C   UNL d   1     -40.625  14.790  19.402  0.00  0.00     0.000 A 
ATOM     12  C   UNL d   1     -40.727  15.568  19.233  0.00  0.00     0.002 A 
ATOM     13  C   UNL d   1     -40.701  15.845  18.474  0.00  0.00     0.018 A 
ATOM     14  C   UNL d   1     -40.565  15.303  17.866  0.00  0.00     0.064 A 
ATOM     15  C   UNL d   1     -40.459  14.499  18.034  0.00  0.00     0.018 A 
ATOM     16  C   UNL d   1     -40.489  14.243  18.800  0.00  0.00     0.002 A 
BRANCH  14  17
ATOM     17  N   UNL d   1     -40.537  15.580  17.086  0.00  0.00    -0.301 N 
ATOM     18  C   UNL d   1     -41.231  15.724  16.684  0.00  0.00     0.100 C 
ATOM     19  C   UNL d   1     -39.796  15.703  16.735  0.00  0.00     0.100 C 
ENDBRANCH  14  17
ENDBRANCH   1  11
TORSDOF 3
ENDMDL
