MODEL 1
REMARK VINA RESULT:      -7.7      0.000      0.000
REMARK  1 active torsions:
REMARK  status: ('A' for Active; 'I' for Inactive)
REMARK    1  A    between atoms: C_6  and  C_1 
ROOT
ATOM      1  C   UNL d   1     -48.266  13.966  22.839  0.00  0.00     0.111 A 
ATOM      2  N   UNL d   1     -48.597  14.570  23.293  0.00  0.00    -0.239 NA
ATOM      3  S   UNL d   1     -48.826  13.719  22.273  0.00  0.00    -0.066 SA
ATOM      4  C   UNL d   1     -49.360  14.699  23.012  0.00  0.00     0.088 A 
ATOM      5  C   UNL d   1     -49.500  14.178  22.388  0.00  0.00     0.049 A 
ATOM      6  C   UNL d   1     -49.956  15.231  23.247  0.00  0.00     0.020 A 
ATOM      7  C   UNL d   1     -50.235  14.192  22.002  0.00  0.00     0.008 A 
ATOM      8  C   UNL d   1     -50.833  14.722  22.233  0.00  0.00     0.001 A 
ATOM      9  C   UNL d   1     -50.693  15.243  22.858  0.00  0.00     0.002 A 
ENDROOT
BRANCH   1  10
ATOM     10  C   UNL d   1     -47.535  13.629  22.883  0.00  0.00     0.025 A 
ATOM     11  C   UNL d   1     -47.407  12.868  23.232  0.00  0.00     0.023 A 
ATOM     12  C   UNL d   1     -46.673  12.539  23.272  0.00  0.00     0.103 A 
ATOM     13  N   UNL d   1     -46.599  11.794  23.621  0.00  0.00    -0.148 N 
ATOM     14  C   UNL d   1     -46.010  12.973  22.954  0.00  0.00     0.021 A 
ATOM     15  C   UNL d   1     -46.120  13.708  22.615  0.00  0.00     0.002 A 
ATOM     16  C   UNL d   1     -46.877  14.022  22.586  0.00  0.00     0.002 A 
ENDBRANCH   1  10
TORSDOF 1
ENDMDL
MODEL 2
REMARK VINA RESULT:      -7.6      0.926      3.668
REMARK  1 active torsions:
REMARK  status: ('A' for Active; 'I' for Inactive)
REMARK    1  A    between atoms: C_6  and  C_1 
ROOT
ATOM      1  C   UNL d   1     -48.483  13.607  22.974  0.00  0.00     0.111 A 
ATOM      2  N   UNL d   1     -47.681  13.717  22.814  0.00  0.00    -0.239 NA
ATOM      3  S   UNL d   1     -48.588  12.857  23.320  0.00  0.00    -0.066 SA
ATOM      4  C   UNL d   1     -47.288  13.038  23.060  0.00  0.00     0.088 A 
ATOM      5  C   UNL d   1     -47.842  12.511  23.370  0.00  0.00     0.049 A 
ATOM      6  C   UNL d   1     -46.483  12.825  23.043  0.00  0.00     0.020 A 
ATOM      7  C   UNL d   1     -47.589  11.775  23.660  0.00  0.00     0.008 A 
ATOM      8  C   UNL d   1     -46.786  11.560  23.645  0.00  0.00     0.001 A 
ATOM      9  C   UNL d   1     -46.231  12.086  23.335  0.00  0.00     0.002 A 
ENDROOT
BRANCH   1  10
ATOM     10  C   UNL d   1     -49.108  14.101  22.842  0.00  0.00     0.025 A 
ATOM     11  C   UNL d   1     -49.256  14.782  23.323  0.00  0.00     0.023 A 
ATOM     12  C   UNL d   1     -49.882  15.270  23.183  0.00  0.00     0.103 A 
ATOM     13  N   UNL d   1     -49.985  15.922  23.679  0.00  0.00    -0.148 N 
ATOM     14  C   UNL d   1     -50.406  15.091  22.533  0.00  0.00     0.021 A 
ATOM     15  C   UNL d   1     -50.274  14.437  22.062  0.00  0.00     0.002 A 
ATOM     16  C   UNL d   1     -49.630  13.955  22.224  0.00  0.00     0.002 A 
ENDBRANCH   1  10
TORSDOF 1
ENDMDL
MODEL 3
REMARK VINA RESULT:      -7.6      1.509      3.511
REMARK  1 active torsions:
REMARK  status: ('A' for Active; 'I' for Inactive)
REMARK    1  A    between atoms: C_6  and  C_1 
ROOT
ATOM      1  C   UNL d   1     -48.591  13.086  22.545  0.00  0.00     0.111 A 
ATOM      2  N   UNL d   1     -47.936  12.607  22.398  0.00  0.00    -0.239 NA
ATOM      3  S   UNL d   1     -48.324  13.851  22.742  0.00  0.00    -0.066 SA
ATOM      4  C   UNL d   1     -47.264  13.070  22.502  0.00  0.00     0.088 A 
ATOM      5  C   UNL d   1     -47.502  13.832  22.713  0.00  0.00     0.049 A 
ATOM      6  C   UNL d   1     -46.453  12.897  22.432  0.00  0.00     0.020 A 
ATOM      7  C   UNL d   1     -46.927  14.415  22.852  0.00  0.00     0.008 A 
ATOM      8  C   UNL d   1     -46.116  14.246  22.783  0.00  0.00     0.001 A 
ATOM      9  C   UNL d   1     -45.879  13.484  22.572  0.00  0.00     0.002 A 
ENDROOT
BRANCH   1  10
ATOM     10  C   UNL d   1     -49.377  12.907  22.520  0.00  0.00     0.025 A 
ATOM     11  C   UNL d   1     -49.756  12.446  23.122  0.00  0.00     0.023 A 
ATOM     12  C   UNL d   1     -50.541  12.272  23.088  0.00  0.00     0.103 A 
ATOM     13  N   UNL d   1     -50.866  11.819  23.698  0.00  0.00    -0.148 N 
ATOM     14  C   UNL d   1     -51.000  12.562  22.428  0.00  0.00     0.021 A 
ATOM     15  C   UNL d   1     -50.646  13.008  21.842  0.00  0.00     0.002 A 
ATOM     16  C   UNL d   1     -49.844  13.172  21.898  0.00  0.00     0.002 A 
ENDBRANCH   1  10
TORSDOF 1
ENDMDL
