MODEL 1
REMARK VINA RESULT:      30.2      0.000      0.000
REMARK  5 active torsions:
REMARK  status: ('A' for Active; 'I' for Inactive)
REMARK    1  A    between atoms: C_7  and  S_1 
REMARK    2  A    between atoms: N_8  and  S_1 
REMARK    3  A    between atoms: S_2  and  N_4 
REMARK    4  A    between atoms: C_12  and  S_2 
REMARK    5  A    between atoms: N_4  and  C_3 
ROOT
ATOM      1  C   UNL d   1      45.371 -16.865  44.214  0.00  0.00     0.206 A 
ATOM      2  N   UNL d   1      45.531 -17.597  44.568  0.00  0.00    -0.220 NA
ATOM      3  S   UNL d   1      45.475 -16.954  43.397  0.00  0.00    -0.046 SA
ATOM      4  C   UNL d   1      46.085 -18.941  42.575  0.00  0.00     0.105 A 
ATOM      5  C   UNL d   1      45.699 -17.740  43.253  0.00  0.00     0.051 A 
ATOM      6  C   UNL d   1      45.733 -18.135  43.975  0.00  0.00     0.090 A 
ATOM      7  C   UNL d   1      45.875 -18.144  42.550  0.00  0.00     0.021 A 
ATOM      8  C   UNL d   1      46.118 -19.333  43.310  0.00  0.00     0.015 A 
ATOM      9  C   UNL d   1      45.943 -18.932  44.002  0.00  0.00     0.020 A 
ENDROOT
BRANCH   1  10
ATOM     10  N   UNL d   1      45.148 -16.173  44.603  0.00  0.00    -0.132 NA
BRANCH  10  11
ATOM     11  S   UNL d   1      44.990 -15.365  44.588  0.00  0.00     0.287 S 
ATOM     12  O   UNL d   1      44.194 -15.523  44.451  0.00  0.00    -0.198 OA
ATOM     13  O   UNL d   1      45.804 -15.425  44.725  0.00  0.00    -0.198 OA
BRANCH  11  14
ATOM     14  C   UNL d   1      45.253 -14.586  44.644  0.00  0.00     0.105 A 
ATOM     15  C   UNL d   1      44.705 -13.965  44.576  0.00  0.00     0.015 A 
ATOM     16  C   UNL d   1      44.956 -13.181  44.631  0.00  0.00     0.030 A 
ATOM     17  C   UNL d   1      45.750 -13.008  44.753  0.00  0.00     0.140 A 
ATOM     18  C   UNL d   1      46.302 -13.622  44.821  0.00  0.00     0.030 A 
ATOM     19  F   UNL d   1      46.002 -12.225  44.808  0.00  0.00    -0.204 F 
ATOM     20  C   UNL d   1      46.044 -14.412  44.766  0.00  0.00     0.015 A 
ENDBRANCH  11  14
ENDBRANCH  10  11
ENDBRANCH   1  10
BRANCH   4  21
ATOM     21  S   UNL d   1      46.260 -19.344  41.887  0.00  0.00     0.271 S 
ATOM     22  O   UNL d   1      46.391 -20.264  42.230  0.00  0.00    -0.200 OA
ATOM     23  O   UNL d   1      46.145 -18.434  41.453  0.00  0.00    -0.200 OA
BRANCH  21  24
ATOM     24  N   UNL d   1      46.413 -19.556  41.092  0.00  0.00    -0.229 N 
ATOM     25  C   UNL d   1      46.504 -20.323  40.797  0.00  0.00     0.092 A 
ATOM     26  C   UNL d   1      46.646 -20.261  39.987  0.00  0.00     0.021 A 
ATOM     27  C   UNL d   1      46.645 -19.464  39.777  0.00  0.00     0.021 A 
ATOM     28  C   UNL d   1      46.501 -19.023  40.462  0.00  0.00     0.092 A 
ENDBRANCH  21  24
ENDBRANCH   4  21
TORSDOF 5
ENDMDL
