MODEL 1
REMARK VINA RESULT:      -2.8      0.000      0.000
REMARK  1 active torsions:
REMARK  status: ('A' for Active; 'I' for Inactive)
REMARK    1  A    between atoms: C_6  and  C_1 
ROOT
ATOM      1  C   UNL d   1      30.709  17.006 -24.142  0.00  0.00     0.111 A 
ATOM      2  N   UNL d   1      31.341  16.972 -23.620  0.00  0.00    -0.239 NA
ATOM      3  S   UNL d   1      30.921  17.475 -24.777  0.00  0.00    -0.066 SA
ATOM      4  C   UNL d   1      31.959  17.429 -23.936  0.00  0.00     0.088 A 
ATOM      5  C   UNL d   1      31.702  17.742 -24.653  0.00  0.00     0.049 A 
ATOM      6  C   UNL d   1      32.717  17.599 -23.664  0.00  0.00     0.020 A 
ATOM      7  C   UNL d   1      32.202  18.223 -25.097  0.00  0.00     0.008 A 
ATOM      8  C   UNL d   1      32.960  18.393 -24.825  0.00  0.00     0.001 A 
ATOM      9  C   UNL d   1      33.217  18.080 -24.108  0.00  0.00     0.002 A 
ENDROOT
BRANCH   1  10
ATOM     10  C   UNL d   1      29.988  16.613 -24.010  0.00  0.00     0.024 A 
ATOM     11  C   UNL d   1      29.982  15.840 -23.718  0.00  0.00     0.004 A 
ATOM     12  C   UNL d   1      29.261  15.456 -23.590  0.00  0.00     0.021 A 
ATOM     13  C   UNL d   1      28.543  15.843 -23.752  0.00  0.00     0.103 A 
ATOM     14  C   UNL d   1      28.557  16.616 -24.043  0.00  0.00     0.021 A 
ATOM     15  N   UNL d   1      27.822  15.454 -23.621  0.00  0.00    -0.148 N 
ATOM     16  C   UNL d   1      29.278  17.001 -24.173  0.00  0.00     0.004 A 
ENDBRANCH   1  10
TORSDOF 1
ENDMDL
MODEL 2
REMARK VINA RESULT:      -2.8      3.939      5.235
REMARK  1 active torsions:
REMARK  status: ('A' for Active; 'I' for Inactive)
REMARK    1  A    between atoms: C_6  and  C_1 
ROOT
ATOM      1  C   UNL d   1      32.936  20.620 -22.111  0.00  0.00     0.111 A 
ATOM      2  N   UNL d   1      32.524  20.711 -21.407  0.00  0.00    -0.239 NA
ATOM      3  S   UNL d   1      33.236  21.347 -22.334  0.00  0.00    -0.066 SA
ATOM      4  C   UNL d   1      32.568  21.511 -21.187  0.00  0.00     0.088 A 
ATOM      5  C   UNL d   1      33.008  21.908 -21.758  0.00  0.00     0.049 A 
ATOM      6  C   UNL d   1      32.265  21.925 -20.543  0.00  0.00     0.020 A 
ATOM      7  C   UNL d   1      33.145  22.717 -21.686  0.00  0.00     0.008 A 
ATOM      8  C   UNL d   1      32.842  23.132 -21.042  0.00  0.00     0.001 A 
ATOM      9  C   UNL d   1      32.402  22.735 -20.471  0.00  0.00     0.002 A 
ENDROOT
BRANCH   1  10
ATOM     10  C   UNL d   1      33.013  19.890 -22.503  0.00  0.00     0.024 A 
ATOM     11  C   UNL d   1      33.164  19.201 -22.073  0.00  0.00     0.004 A 
ATOM     12  C   UNL d   1      33.240  18.479 -22.469  0.00  0.00     0.021 A 
ATOM     13  C   UNL d   1      33.165  18.443 -23.296  0.00  0.00     0.103 A 
ATOM     14  C   UNL d   1      33.014  19.137 -23.719  0.00  0.00     0.021 A 
ATOM     15  N   UNL d   1      33.241  17.716 -23.689  0.00  0.00    -0.148 N 
ATOM     16  C   UNL d   1      32.938  19.860 -23.323  0.00  0.00     0.004 A 
ENDBRANCH   1  10
TORSDOF 1
ENDMDL
MODEL 3
REMARK VINA RESULT:      -2.7      4.593      6.092
REMARK  1 active torsions:
REMARK  status: ('A' for Active; 'I' for Inactive)
REMARK    1  A    between atoms: C_6  and  C_1 
ROOT
ATOM      1  C   UNL d   1      33.000  21.104 -21.635  0.00  0.00     0.111 A 
ATOM      2  N   UNL d   1      32.947  20.322 -21.390  0.00  0.00    -0.239 NA
ATOM      3  S   UNL d   1      33.118  21.116 -22.444  0.00  0.00    -0.066 SA
ATOM      4  C   UNL d   1      33.033  19.837 -22.059  0.00  0.00     0.088 A 
ATOM      5  C   UNL d   1      33.140  20.325 -22.713  0.00  0.00     0.049 A 
ATOM      6  C   UNL d   1      33.029  19.020 -22.155  0.00  0.00     0.020 A 
ATOM      7  C   UNL d   1      33.241  19.996 -23.462  0.00  0.00     0.008 A 
ATOM      8  C   UNL d   1      33.237  19.179 -23.558  0.00  0.00     0.001 A 
ATOM      9  C   UNL d   1      33.131  18.691 -22.904  0.00  0.00     0.002 A 
ENDROOT
BRANCH   1  10
ATOM     10  C   UNL d   1      32.939  21.750 -21.115  0.00  0.00     0.024 A 
ATOM     11  C   UNL d   1      33.230  21.692 -20.343  0.00  0.00     0.004 A 
ATOM     12  C   UNL d   1      33.165  22.339 -19.831  0.00  0.00     0.021 A 
ATOM     13  C   UNL d   1      32.810  23.045 -20.088  0.00  0.00     0.103 A 
ATOM     14  C   UNL d   1      32.522  23.095 -20.861  0.00  0.00     0.021 A 
ATOM     15  N   UNL d   1      32.748  23.691 -19.572  0.00  0.00    -0.148 N 
ATOM     16  C   UNL d   1      32.586  22.448 -21.374  0.00  0.00     0.004 A 
ENDBRANCH   1  10
TORSDOF 1
ENDMDL
MODEL 4
REMARK VINA RESULT:      -2.6      3.850      5.514
REMARK  1 active torsions:
REMARK  status: ('A' for Active; 'I' for Inactive)
REMARK    1  A    between atoms: C_6  and  C_1 
ROOT
ATOM      1  C   UNL d   1      33.006  20.357 -22.130  0.00  0.00     0.111 A 
ATOM      2  N   UNL d   1      33.008  20.308 -22.949  0.00  0.00    -0.239 NA
ATOM      3  S   UNL d   1      33.080  19.601 -21.825  0.00  0.00    -0.066 SA
ATOM      4  C   UNL d   1      33.083  19.508 -23.159  0.00  0.00     0.088 A 
ATOM      5  C   UNL d   1      33.128  19.067 -22.465  0.00  0.00     0.049 A 
ATOM      6  C   UNL d   1      33.117  19.127 -23.888  0.00  0.00     0.020 A 
ATOM      7  C   UNL d   1      33.207  18.248 -22.500  0.00  0.00     0.008 A 
ATOM      8  C   UNL d   1      33.240  17.867 -23.229  0.00  0.00     0.001 A 
ATOM      9  C   UNL d   1      33.195  18.307 -23.923  0.00  0.00     0.002 A 
ENDROOT
BRANCH   1  10
ATOM     10  C   UNL d   1      32.939  21.074 -21.716  0.00  0.00     0.024 A 
ATOM     11  C   UNL d   1      32.575  21.096 -20.975  0.00  0.00     0.004 A 
ATOM     12  C   UNL d   1      32.512  21.814 -20.569  0.00  0.00     0.021 A 
ATOM     13  C   UNL d   1      32.813  22.513 -20.902  0.00  0.00     0.103 A 
ATOM     14  C   UNL d   1      33.176  22.484 -21.644  0.00  0.00     0.021 A 
ATOM     15  N   UNL d   1      32.748  23.231 -20.492  0.00  0.00    -0.148 N 
ATOM     16  C   UNL d   1      33.240  21.766 -22.050  0.00  0.00     0.004 A 
ENDBRANCH   1  10
TORSDOF 1
ENDMDL
MODEL 5
REMARK VINA RESULT:      -2.4      1.054      3.806
REMARK  1 active torsions:
REMARK  status: ('A' for Active; 'I' for Inactive)
REMARK    1  A    between atoms: C_6  and  C_1 
ROOT
ATOM      1  C   UNL d   1      30.378  17.138 -24.305  0.00  0.00     0.111 A 
ATOM      2  N   UNL d   1      29.705  17.397 -23.912  0.00  0.00    -0.239 NA
ATOM      3  S   UNL d   1      30.230  16.395 -24.613  0.00  0.00    -0.066 SA
ATOM      4  C   UNL d   1      29.127  16.803 -23.976  0.00  0.00     0.088 A 
ATOM      5  C   UNL d   1      29.449  16.182 -24.409  0.00  0.00     0.049 A 
ATOM      6  C   UNL d   1      28.354  16.750 -23.697  0.00  0.00     0.020 A 
ATOM      7  C   UNL d   1      28.999  15.508 -24.562  0.00  0.00     0.008 A 
ATOM      8  C   UNL d   1      28.227  15.455 -24.283  0.00  0.00     0.001 A 
ATOM      9  C   UNL d   1      27.905  16.077 -23.850  0.00  0.00     0.002 A 
ENDROOT
BRANCH   1  10
ATOM     10  C   UNL d   1      31.075  17.589 -24.359  0.00  0.00     0.024 A 
ATOM     11  C   UNL d   1      31.621  17.587 -23.740  0.00  0.00     0.004 A 
ATOM     12  C   UNL d   1      32.312  18.037 -23.801  0.00  0.00     0.021 A 
ATOM     13  C   UNL d   1      32.460  18.490 -24.481  0.00  0.00     0.103 A 
ATOM     14  C   UNL d   1      31.909  18.487 -25.097  0.00  0.00     0.021 A 
ATOM     15  N   UNL d   1      33.154  18.941 -24.538  0.00  0.00    -0.148 N 
ATOM     16  C   UNL d   1      31.217  18.037 -25.037  0.00  0.00     0.004 A 
ENDBRANCH   1  10
TORSDOF 1
ENDMDL
MODEL 6
REMARK VINA RESULT:      -2.3      7.297      8.411
REMARK  1 active torsions:
REMARK  status: ('A' for Active; 'I' for Inactive)
REMARK    1  A    between atoms: C_6  and  C_1 
ROOT
ATOM      1  C   UNL d   1      32.898  22.903 -19.248  0.00  0.00     0.111 A 
ATOM      2  N   UNL d   1      32.913  23.561 -19.738  0.00  0.00    -0.239 NA
ATOM      3  S   UNL d   1      32.896  22.231 -19.715  0.00  0.00    -0.066 SA
ATOM      4  C   UNL d   1      32.921  23.295 -20.525  0.00  0.00     0.088 A 
ATOM      5  C   UNL d   1      32.910  22.472 -20.515  0.00  0.00     0.049 A 
ATOM      6  C   UNL d   1      32.936  23.694 -21.245  0.00  0.00     0.020 A 
ATOM      7  C   UNL d   1      32.915  22.049 -21.222  0.00  0.00     0.008 A 
ATOM      8  C   UNL d   1      32.930  22.449 -21.942  0.00  0.00     0.001 A 
ATOM      9  C   UNL d   1      32.940  23.272 -21.952  0.00  0.00     0.002 A 
ENDROOT
BRANCH   1  10
ATOM     10  C   UNL d   1      32.887  22.952 -18.418  0.00  0.00     0.024 A 
ATOM     11  C   UNL d   1      33.182  22.332 -17.960  0.00  0.00     0.004 A 
ATOM     12  C   UNL d   1      33.168  22.389 -17.135  0.00  0.00     0.021 A 
ATOM     13  C   UNL d   1      32.859  23.065 -16.765  0.00  0.00     0.103 A 
ATOM     14  C   UNL d   1      32.565  23.682 -17.230  0.00  0.00     0.021 A 
ATOM     15  N   UNL d   1      32.846  23.118 -15.937  0.00  0.00    -0.148 N 
ATOM     16  C   UNL d   1      32.579  23.626 -18.056  0.00  0.00     0.004 A 
ENDBRANCH   1  10
TORSDOF 1
ENDMDL
MODEL 7
REMARK VINA RESULT:      -2.2      2.943      4.576
REMARK  1 active torsions:
REMARK  status: ('A' for Active; 'I' for Inactive)
REMARK    1  A    between atoms: C_6  and  C_1 
ROOT
ATOM      1  C   UNL d   1      33.001  19.019 -22.988  0.00  0.00     0.111 A 
ATOM      2  N   UNL d   1      33.061  18.279 -22.635  0.00  0.00    -0.239 NA
ATOM      3  S   UNL d   1      32.880  18.915 -23.790  0.00  0.00    -0.066 SA
ATOM      4  C   UNL d   1      32.975  17.705 -23.229  0.00  0.00     0.088 A 
ATOM      5  C   UNL d   1      32.863  18.094 -23.945  0.00  0.00     0.049 A 
ATOM      6  C   UNL d   1      32.985  16.882 -23.208  0.00  0.00     0.020 A 
ATOM      7  C   UNL d   1      32.761  17.662 -24.639  0.00  0.00     0.008 A 
ATOM      8  C   UNL d   1      32.771  16.840 -24.619  0.00  0.00     0.001 A 
ATOM      9  C   UNL d   1      32.883  16.450 -23.902  0.00  0.00     0.002 A 
ENDROOT
BRANCH   1  10
ATOM     10  C   UNL d   1      33.059  19.732 -22.564  0.00  0.00     0.024 A 
ATOM     11  C   UNL d   1      33.184  20.444 -22.963  0.00  0.00     0.004 A 
ATOM     12  C   UNL d   1      33.241  21.150 -22.535  0.00  0.00     0.021 A 
ATOM     13  C   UNL d   1      33.174  21.145 -21.707  0.00  0.00     0.103 A 
ATOM     14  C   UNL d   1      33.050  20.429 -21.314  0.00  0.00     0.021 A 
ATOM     15  N   UNL d   1      33.232  21.855 -21.281  0.00  0.00    -0.148 N 
ATOM     16  C   UNL d   1      32.993  19.722 -21.742  0.00  0.00     0.004 A 
ENDBRANCH   1  10
TORSDOF 1
ENDMDL
