MODEL 1
REMARK VINA RESULT:      -3.5      0.000      0.000
REMARK  1 active torsions:
REMARK  status: ('A' for Active; 'I' for Inactive)
REMARK    1  A    between atoms: C_5  and  C_8 
ROOT
ATOM      1  C   UNL d   1      30.232  16.685 -23.983  0.00  0.00     0.084 A 
ATOM      2  C   UNL d   1      30.676  16.109 -23.598  0.00  0.00     0.057 A 
ATOM      3  N   UNL d   1      30.608  17.286 -24.399  0.00  0.00    -0.245 NA
ATOM      4  C   UNL d   1      31.496  16.126 -23.624  0.00  0.00     0.199 A 
ATOM      5  C   UNL d   1      31.877  16.728 -24.041  0.00  0.00     0.061 A 
ATOM      6  C   UNL d   1      31.433  17.304 -24.426  0.00  0.00     0.085 A 
ATOM      7  C   UNL d   1      29.029  16.062 -23.537  0.00  0.00     0.073 A 
ATOM      8  C   UNL d   1      29.405  16.662 -23.953  0.00  0.00     0.023 A 
ATOM      9  C   UNL d   1      30.296  15.508 -23.181  0.00  0.00     0.005 A 
ATOM     10  O   UNL d   1      31.934  15.546 -23.236  0.00  0.00    -0.286 OA
ATOM     11  C   UNL d   1      29.476  15.483 -23.150  0.00  0.00     0.004 A 
ATOM     12  C   UNL d   1      31.816  17.909 -24.845  0.00  0.00     0.021 C 
ENDROOT
BRANCH   7  13
ATOM     13  C   UNL d   1      28.202  16.034 -23.504  0.00  0.00     0.419 C 
ATOM     14  F   UNL d   1      27.454  16.007 -23.475  0.00  0.00    -0.166 F 
ATOM     15  F   UNL d   1      27.657  16.578 -23.120  0.00  0.00    -0.166 F 
ATOM     16  F   UNL d   1      27.667  15.454 -23.843  0.00  0.00    -0.166 F 
ENDBRANCH   7  13
TORSDOF 1
ENDMDL
MODEL 2
REMARK VINA RESULT:      -3.5      1.009      1.487
REMARK  1 active torsions:
REMARK  status: ('A' for Active; 'I' for Inactive)
REMARK    1  A    between atoms: C_5  and  C_8 
ROOT
ATOM      1  C   UNL d   1      30.391  16.407 -23.799  0.00  0.00     0.084 A 
ATOM      2  C   UNL d   1      30.466  17.032 -24.330  0.00  0.00     0.057 A 
ATOM      3  N   UNL d   1      31.061  16.039 -23.498  0.00  0.00    -0.245 NA
ATOM      4  C   UNL d   1      31.208  17.295 -24.565  0.00  0.00     0.199 A 
ATOM      5  C   UNL d   1      31.883  16.928 -24.264  0.00  0.00     0.061 A 
ATOM      6  C   UNL d   1      31.808  16.303 -23.733  0.00  0.00     0.085 A 
ATOM      7  C   UNL d   1      28.971  16.514 -23.868  0.00  0.00     0.073 A 
ATOM      8  C   UNL d   1      29.641  16.147 -23.567  0.00  0.00     0.023 A 
ATOM      9  C   UNL d   1      29.792  17.399 -24.631  0.00  0.00     0.005 A 
ATOM     10  O   UNL d   1      31.275  17.921 -25.096  0.00  0.00    -0.286 OA
ATOM     11  C   UNL d   1      29.046  17.142 -24.402  0.00  0.00     0.004 A 
ATOM     12  C   UNL d   1      32.486  15.935 -23.431  0.00  0.00     0.021 C 
ENDROOT
BRANCH   7  13
ATOM     13  C   UNL d   1      28.217  16.258 -23.639  0.00  0.00     0.419 C 
ATOM     14  F   UNL d   1      27.536  16.024 -23.434  0.00  0.00    -0.166 F 
ATOM     15  F   UNL d   1      27.667  16.620 -23.086  0.00  0.00    -0.166 F 
ATOM     16  F   UNL d   1      27.783  15.561 -23.893  0.00  0.00    -0.166 F 
ENDBRANCH   7  13
TORSDOF 1
ENDMDL
MODEL 3
REMARK VINA RESULT:      -3.2      2.648      3.574
REMARK  1 active torsions:
REMARK  status: ('A' for Active; 'I' for Inactive)
REMARK    1  A    between atoms: C_5  and  C_8 
ROOT
ATOM      1  C   UNL d   1      30.326  16.402 -23.790  0.00  0.00     0.084 A 
ATOM      2  C   UNL d   1      30.128  17.017 -24.300  0.00  0.00     0.057 A 
ATOM      3  N   UNL d   1      29.748  15.879 -23.530  0.00  0.00    -0.245 NA
ATOM      4  C   UNL d   1      29.354  17.116 -24.555  0.00  0.00     0.199 A 
ATOM      5  C   UNL d   1      28.770  16.592 -24.296  0.00  0.00     0.061 A 
ATOM      6  C   UNL d   1      28.969  15.978 -23.786  0.00  0.00     0.085 A 
ATOM      7  C   UNL d   1      31.686  16.830 -23.795  0.00  0.00     0.073 A 
ATOM      8  C   UNL d   1      31.108  16.308 -23.536  0.00  0.00     0.023 A 
ATOM      9  C   UNL d   1      30.710  17.540 -24.559  0.00  0.00     0.005 A 
ATOM     10  O   UNL d   1      29.163  17.734 -25.066  0.00  0.00    -0.286 OA
ATOM     11  C   UNL d   1      31.487  17.448 -24.308  0.00  0.00     0.004 A 
ATOM     12  C   UNL d   1      28.383  15.453 -23.527  0.00  0.00     0.021 C 
ENDROOT
BRANCH   7  13
ATOM     13  C   UNL d   1      32.471  16.740 -23.545  0.00  0.00     0.419 C 
ATOM     14  F   UNL d   1      33.180  16.661 -23.316  0.00  0.00    -0.166 F 
ATOM     15  F   UNL d   1      33.091  16.243 -23.875  0.00  0.00    -0.166 F 
ATOM     16  F   UNL d   1      32.874  17.120 -22.888  0.00  0.00    -0.166 F 
ENDBRANCH   7  13
TORSDOF 1
ENDMDL
MODEL 4
REMARK VINA RESULT:      -3.0      7.363      8.199
REMARK  1 active torsions:
REMARK  status: ('A' for Active; 'I' for Inactive)
REMARK    1  A    between atoms: C_5  and  C_8 
ROOT
ATOM      1  C   UNL d   1      32.838  22.110 -20.266  0.00  0.00     0.084 A 
ATOM      2  C   UNL d   1      32.918  22.723 -20.809  0.00  0.00     0.057 A 
ATOM      3  N   UNL d   1      32.824  21.330 -20.525  0.00  0.00    -0.245 NA
ATOM      4  C   UNL d   1      32.984  22.566 -21.612  0.00  0.00     0.199 A 
ATOM      5  C   UNL d   1      32.970  21.784 -21.875  0.00  0.00     0.061 A 
ATOM      6  C   UNL d   1      32.890  21.171 -21.332  0.00  0.00     0.085 A 
ATOM      7  C   UNL d   1      32.786  23.055 -19.199  0.00  0.00     0.073 A 
ATOM      8  C   UNL d   1      32.772  22.276 -19.458  0.00  0.00     0.023 A 
ATOM      9  C   UNL d   1      32.932  23.505 -20.547  0.00  0.00     0.005 A 
ATOM     10  O   UNL d   1      33.064  23.186 -22.150  0.00  0.00    -0.286 OA
ATOM     11  C   UNL d   1      32.867  23.672 -19.745  0.00  0.00     0.004 A 
ATOM     12  C   UNL d   1      32.876  20.385 -21.597  0.00  0.00     0.021 C 
ENDROOT
BRANCH   7  13
ATOM     13  C   UNL d   1      32.721  23.226 -18.392  0.00  0.00     0.419 C 
ATOM     14  F   UNL d   1      32.663  23.380 -17.661  0.00  0.00    -0.166 F 
ATOM     15  F   UNL d   1      32.114  23.679 -17.982  0.00  0.00    -0.166 F 
ATOM     16  F   UNL d   1      33.241  22.998 -17.747  0.00  0.00    -0.166 F 
ENDBRANCH   7  13
TORSDOF 1
ENDMDL
MODEL 5
REMARK VINA RESULT:      -2.8      6.454      7.392
REMARK  1 active torsions:
REMARK  status: ('A' for Active; 'I' for Inactive)
REMARK    1  A    between atoms: C_5  and  C_8 
ROOT
ATOM      1  C   UNL d   1      32.913  21.530 -21.051  0.00  0.00     0.084 A 
ATOM      2  C   UNL d   1      32.996  21.936 -21.762  0.00  0.00     0.057 A 
ATOM      3  N   UNL d   1      32.992  20.712 -21.032  0.00  0.00    -0.245 NA
ATOM      4  C   UNL d   1      33.159  21.533 -22.458  0.00  0.00     0.199 A 
ATOM      5  C   UNL d   1      33.240  20.711 -22.442  0.00  0.00     0.061 A 
ATOM      6  C   UNL d   1      33.156  20.305 -21.731  0.00  0.00     0.085 A 
ATOM      7  C   UNL d   1      32.669  22.759 -20.371  0.00  0.00     0.073 A 
ATOM      8  C   UNL d   1      32.748  21.942 -20.353  0.00  0.00     0.023 A 
ATOM      9  C   UNL d   1      32.915  22.756 -21.778  0.00  0.00     0.005 A 
ATOM     10  O   UNL d   1      33.241  21.946 -23.166  0.00  0.00    -0.286 OA
ATOM     11  C   UNL d   1      32.752  23.168 -21.087  0.00  0.00     0.004 A 
ATOM     12  C   UNL d   1      33.237  19.480 -21.716  0.00  0.00     0.021 C 
ENDROOT
BRANCH   7  13
ATOM     13  C   UNL d   1      32.504  23.178 -19.676  0.00  0.00     0.419 C 
ATOM     14  F   UNL d   1      32.353  23.557 -19.048  0.00  0.00    -0.166 F 
ATOM     15  F   UNL d   1      33.003  23.296 -18.984  0.00  0.00    -0.166 F 
ATOM     16  F   UNL d   1      31.792  23.606 -19.459  0.00  0.00    -0.166 F 
ENDBRANCH   7  13
TORSDOF 1
ENDMDL
MODEL 6
REMARK VINA RESULT:      -2.5      5.757      6.611
REMARK  1 active torsions:
REMARK  status: ('A' for Active; 'I' for Inactive)
REMARK    1  A    between atoms: C_5  and  C_8 
ROOT
ATOM      1  C   UNL d   1      32.925  21.266 -22.056  0.00  0.00     0.084 A 
ATOM      2  C   UNL d   1      33.004  20.653 -21.514  0.00  0.00     0.057 A 
ATOM      3  N   UNL d   1      33.002  21.118 -22.861  0.00  0.00    -0.245 NA
ATOM      4  C   UNL d   1      33.162  19.888 -21.767  0.00  0.00     0.199 A 
ATOM      5  C   UNL d   1      33.241  19.735 -22.574  0.00  0.00     0.061 A 
ATOM      6  C   UNL d   1      33.161  20.349 -23.117  0.00  0.00     0.085 A 
ATOM      7  C   UNL d   1      32.688  22.184 -20.991  0.00  0.00     0.073 A 
ATOM      8  C   UNL d   1      32.766  22.035 -21.794  0.00  0.00     0.023 A 
ATOM      9  C   UNL d   1      32.926  20.804 -20.707  0.00  0.00     0.005 A 
ATOM     10  O   UNL d   1      33.241  19.278 -21.217  0.00  0.00    -0.286 OA
ATOM     11  C   UNL d   1      32.768  21.567 -20.445  0.00  0.00     0.004 A 
ATOM     12  C   UNL d   1      33.240  20.195 -23.927  0.00  0.00     0.021 C 
ENDROOT
BRANCH   7  13
ATOM     13  C   UNL d   1      32.529  22.951 -20.723  0.00  0.00     0.419 C 
ATOM     14  F   UNL d   1      32.383  23.645 -20.480  0.00  0.00    -0.166 F 
ATOM     15  F   UNL d   1      33.081  23.566 -20.483  0.00  0.00    -0.166 F 
ATOM     16  F   UNL d   1      31.770  23.338 -20.612  0.00  0.00    -0.166 F 
ENDBRANCH   7  13
TORSDOF 1
ENDMDL
MODEL 7
REMARK VINA RESULT:      -2.5      4.180      5.130
REMARK  1 active torsions:
REMARK  status: ('A' for Active; 'I' for Inactive)
REMARK    1  A    between atoms: C_5  and  C_8 
ROOT
ATOM      1  C   UNL d   1      32.889  18.839 -22.831  0.00  0.00     0.084 A 
ATOM      2  C   UNL d   1      33.054  19.255 -23.522  0.00  0.00     0.057 A 
ATOM      3  N   UNL d   1      32.743  18.031 -22.861  0.00  0.00    -0.245 NA
ATOM      4  C   UNL d   1      33.075  18.870 -24.247  0.00  0.00     0.199 A 
ATOM      5  C   UNL d   1      32.929  18.058 -24.281  0.00  0.00     0.061 A 
ATOM      6  C   UNL d   1      32.764  17.643 -23.590  0.00  0.00     0.085 A 
ATOM      7  C   UNL d   1      33.014  20.040 -22.073  0.00  0.00     0.073 A 
ATOM      8  C   UNL d   1      32.869  19.233 -22.104  0.00  0.00     0.023 A 
ATOM      9  C   UNL d   1      33.199  20.066 -23.489  0.00  0.00     0.005 A 
ATOM     10  O   UNL d   1      33.241  19.293 -24.935  0.00  0.00    -0.286 OA
ATOM     11  C   UNL d   1      33.180  20.458 -22.768  0.00  0.00     0.004 A 
ATOM     12  C   UNL d   1      32.618  16.828 -23.624  0.00  0.00     0.021 C 
ENDROOT
BRANCH   7  13
ATOM     13  C   UNL d   1      32.995  20.440 -21.347  0.00  0.00     0.419 C 
ATOM     14  F   UNL d   1      32.980  20.799 -20.690  0.00  0.00    -0.166 F 
ATOM     15  F   UNL d   1      32.727  21.239 -21.176  0.00  0.00    -0.166 F 
ATOM     16  F   UNL d   1      33.240  20.162 -20.572  0.00  0.00    -0.166 F 
ENDBRANCH   7  13
TORSDOF 1
ENDMDL
MODEL 8
REMARK VINA RESULT:      -2.4      4.762      5.696
REMARK  1 active torsions:
REMARK  status: ('A' for Active; 'I' for Inactive)
REMARK    1  A    between atoms: C_5  and  C_8 
ROOT
ATOM      1  C   UNL d   1      32.823  20.431 -21.837  0.00  0.00     0.084 A 
ATOM      2  C   UNL d   1      33.028  20.944 -22.448  0.00  0.00     0.057 A 
ATOM      3  N   UNL d   1      32.621  20.729 -21.099  0.00  0.00    -0.245 NA
ATOM      4  C   UNL d   1      33.034  21.756 -22.328  0.00  0.00     0.199 A 
ATOM      5  C   UNL d   1      32.832  22.059 -21.587  0.00  0.00     0.061 A 
ATOM      6  C   UNL d   1      32.627  21.546 -20.977  0.00  0.00     0.085 A 
ATOM      7  C   UNL d   1      33.021  19.315 -22.703  0.00  0.00     0.073 A 
ATOM      8  C   UNL d   1      32.819  19.614 -21.965  0.00  0.00     0.023 A 
ATOM      9  C   UNL d   1      33.231  20.642 -23.188  0.00  0.00     0.005 A 
ATOM     10  O   UNL d   1      33.241  22.263 -22.944  0.00  0.00    -0.286 OA
ATOM     11  C   UNL d   1      33.227  19.831 -23.316  0.00  0.00     0.004 A 
ATOM     12  C   UNL d   1      32.424  21.851 -20.234  0.00  0.00     0.021 C 
ENDROOT
BRANCH   7  13
ATOM     13  C   UNL d   1      33.019  18.497 -22.836  0.00  0.00     0.419 C 
ATOM     14  F   UNL d   1      33.016  17.759 -22.959  0.00  0.00    -0.166 F 
ATOM     15  F   UNL d   1      33.238  17.861 -22.300  0.00  0.00    -0.166 F 
ATOM     16  F   UNL d   1      32.797  18.067 -23.545  0.00  0.00    -0.166 F 
ENDBRANCH   7  13
TORSDOF 1
ENDMDL
MODEL 9
REMARK VINA RESULT:      -1.3      6.176      6.848
REMARK  1 active torsions:
REMARK  status: ('A' for Active; 'I' for Inactive)
REMARK    1  A    between atoms: C_5  and  C_8 
ROOT
ATOM      1  C   UNL d   1      32.897  21.733 -22.951  0.00  0.00     0.084 A 
ATOM      2  C   UNL d   1      32.980  22.541 -23.083  0.00  0.00     0.057 A 
ATOM      3  N   UNL d   1      32.983  21.202 -23.573  0.00  0.00    -0.245 NA
ATOM      4  C   UNL d   1      33.150  22.827 -23.834  0.00  0.00     0.199 A 
ATOM      5  C   UNL d   1      33.237  22.297 -24.460  0.00  0.00     0.061 A 
ATOM      6  C   UNL d   1      33.153  21.489 -24.328  0.00  0.00     0.085 A 
ATOM      7  C   UNL d   1      32.639  21.981 -21.570  0.00  0.00     0.073 A 
ATOM      8  C   UNL d   1      32.726  21.451 -22.192  0.00  0.00     0.023 A 
ATOM      9  C   UNL d   1      32.893  23.071 -22.457  0.00  0.00     0.005 A 
ATOM     10  O   UNL d   1      33.232  23.638 -23.958  0.00  0.00    -0.286 OA
ATOM     11  C   UNL d   1      32.724  22.793 -21.703  0.00  0.00     0.004 A 
ATOM     12  C   UNL d   1      33.241  20.957 -24.957  0.00  0.00     0.021 C 
ENDROOT
BRANCH   7  13
ATOM     13  C   UNL d   1      32.468  21.704 -20.808  0.00  0.00     0.419 C 
ATOM     14  F   UNL d   1      32.311  21.454 -20.120  0.00  0.00    -0.166 F 
ATOM     15  F   UNL d   1      32.984  21.655 -20.122  0.00  0.00    -0.166 F 
ATOM     16  F   UNL d   1      31.729  21.393 -20.501  0.00  0.00    -0.166 F 
ENDBRANCH   7  13
TORSDOF 1
ENDMDL
