MODEL 1
REMARK VINA RESULT:      -5.9      0.000      0.000
REMARK  3 active torsions:
REMARK  status: ('A' for Active; 'I' for Inactive)
REMARK    1  A    between atoms: O_7  and  C_1 
REMARK    2  A    between atoms: C_12  and  O_7 
REMARK    3  A    between atoms: O_20  and  C_14 
ROOT
ATOM      1  C   UNL d   1     -41.441-122.649 -52.584  0.00  0.00     0.163 A 
ATOM      2  C   UNL d   1     -41.431-123.045 -53.293  0.00  0.00     0.222 A 
ATOM      3  C   UNL d   1     -41.729-122.678 -53.962  0.00  0.00     0.064 A 
ATOM      4  C   UNL d   1     -42.036-121.908 -53.901  0.00  0.00     0.106 A 
ATOM      5  C   UNL d   1     -41.731-121.921 -52.527  0.00  0.00     0.150 A 
ATOM      6  O   UNL d   1     -42.034-121.531 -53.174  0.00  0.00    -0.303 OA
ATOM      7  C   UNL d   1     -41.733-123.055 -54.695  0.00  0.00     0.009 A 
ATOM      8  C   UNL d   1     -42.336-121.541 -54.576  0.00  0.00     0.067 A 
ATOM      9  O   UNL d   1     -41.124-123.817 -53.354  0.00  0.00    -0.284 OA
ATOM     10  C   UNL d   1     -42.328-121.940 -55.300  0.00  0.00     0.198 A 
ATOM     11  C   UNL d   1     -42.037-122.669 -55.358  0.00  0.00     0.042 A 
ATOM     12  O   UNL d   1     -42.629-121.579 -55.995  0.00  0.00    -0.286 OA
ENDROOT
BRANCH   1  13
ATOM     13  O   UNL d   1     -41.124-123.035 -51.866  0.00  0.00    -0.302 OA
BRANCH  13  14
ATOM     14  C   UNL d   1     -41.531-122.982 -51.160  0.00  0.00     0.100 A 
ATOM     15  C   UNL d   1     -41.411-122.333 -50.637  0.00  0.00     0.027 A 
ATOM     16  C   UNL d   1     -41.822-122.286 -49.931  0.00  0.00     0.026 A 
ATOM     17  C   UNL d   1     -42.376-122.894 -49.720  0.00  0.00     0.094 A 
ATOM     18  C   UNL d   1     -42.496-123.542 -50.244  0.00  0.00     0.026 A 
ATOM     19  C   UNL d   1     -42.070-123.574 -50.957  0.00  0.00     0.027 A 
BRANCH  17  20
ATOM     20  O   UNL d   1     -42.814-122.880 -49.008  0.00  0.00    -0.328 OA
ATOM     21  C   UNL d   1     -42.660-123.276 -48.280  0.00  0.00     0.181 C 
ENDBRANCH  17  20
ENDBRANCH  13  14
ENDBRANCH   1  13
TORSDOF 3
ENDMDL
MODEL 2
REMARK VINA RESULT:      -5.8      1.018      1.627
REMARK  3 active torsions:
REMARK  status: ('A' for Active; 'I' for Inactive)
REMARK    1  A    between atoms: O_7  and  C_1 
REMARK    2  A    between atoms: C_12  and  O_7 
REMARK    3  A    between atoms: O_20  and  C_14 
ROOT
ATOM      1  C   UNL d   1     -41.198-122.699 -51.599  0.00  0.00     0.163 A 
ATOM      2  C   UNL d   1     -41.206-122.197 -52.238  0.00  0.00     0.222 A 
ATOM      3  C   UNL d   1     -41.262-122.509 -52.993  0.00  0.00     0.064 A 
ATOM      4  C   UNL d   1     -41.309-123.334 -53.091  0.00  0.00     0.106 A 
ATOM      5  C   UNL d   1     -41.244-123.478 -51.691  0.00  0.00     0.150 A 
ATOM      6  O   UNL d   1     -41.300-123.817 -52.429  0.00  0.00    -0.303 OA
ATOM      7  C   UNL d   1     -41.271-122.026 -53.660  0.00  0.00     0.009 A 
ATOM      8  C   UNL d   1     -41.365-123.646 -53.852  0.00  0.00     0.067 A 
ATOM      9  O   UNL d   1     -41.158-121.371 -52.141  0.00  0.00    -0.284 OA
ATOM     10  C   UNL d   1     -41.373-123.139 -54.505  0.00  0.00     0.198 A 
ATOM     11  C   UNL d   1     -41.328-122.359 -54.413  0.00  0.00     0.042 A 
ATOM     12  O   UNL d   1     -41.430-123.442 -55.285  0.00  0.00    -0.286 OA
ENDROOT
BRANCH   1  13
ATOM     13  O   UNL d   1     -41.139-122.372 -50.790  0.00  0.00    -0.302 OA
BRANCH  13  14
ATOM     14  C   UNL d   1     -41.573-122.704 -50.183  0.00  0.00     0.100 A 
ATOM     15  C   UNL d   1     -42.376-122.487 -50.053  0.00  0.00     0.027 A 
ATOM     16  C   UNL d   1     -42.804-122.823 -49.443  0.00  0.00     0.026 A 
ATOM     17  C   UNL d   1     -42.440-123.396 -48.933  0.00  0.00     0.094 A 
ATOM     18  C   UNL d   1     -41.637-123.612 -49.062  0.00  0.00     0.026 A 
ATOM     19  C   UNL d   1     -41.216-123.261 -49.688  0.00  0.00     0.027 A 
BRANCH  17  20
ATOM     20  O   UNL d   1     -42.846-123.761 -48.299  0.00  0.00    -0.328 OA
ATOM     21  C   UNL d   1     -42.696-123.710 -47.471  0.00  0.00     0.181 C 
ENDBRANCH  17  20
ENDBRANCH  13  14
ENDBRANCH   1  13
TORSDOF 3
ENDMDL
MODEL 3
REMARK VINA RESULT:      -5.2      0.842      4.592
REMARK  3 active torsions:
REMARK  status: ('A' for Active; 'I' for Inactive)
REMARK    1  A    between atoms: O_7  and  C_1 
REMARK    2  A    between atoms: C_12  and  O_7 
REMARK    3  A    between atoms: O_20  and  C_14 
ROOT
ATOM      1  C   UNL d   1     -41.485-122.589 -51.777  0.00  0.00     0.163 A 
ATOM      2  C   UNL d   1     -41.599-122.203 -51.071  0.00  0.00     0.222 A 
ATOM      3  C   UNL d   1     -41.938-122.606 -50.444  0.00  0.00     0.064 A 
ATOM      4  C   UNL d   1     -42.158-123.402 -50.542  0.00  0.00     0.106 A 
ATOM      5  C   UNL d   1     -41.693-123.341 -51.869  0.00  0.00     0.150 A 
ATOM      6  O   UNL d   1     -42.032-123.767 -51.264  0.00  0.00    -0.303 OA
ATOM      7  C   UNL d   1     -42.067-122.241 -49.716  0.00  0.00     0.009 A 
ATOM      8  C   UNL d   1     -42.499-123.805 -49.909  0.00  0.00     0.067 A 
ATOM      9  O   UNL d   1     -41.378-121.406 -50.973  0.00  0.00    -0.284 OA
ATOM     10  C   UNL d   1     -42.618-123.416 -49.188  0.00  0.00     0.198 A 
ATOM     11  C   UNL d   1     -42.410-122.663 -49.096  0.00  0.00     0.042 A 
ATOM     12  O   UNL d   1     -42.964-123.813 -48.536  0.00  0.00    -0.286 OA
ENDROOT
BRANCH   1  13
ATOM     13  O   UNL d   1     -41.123-122.165 -52.451  0.00  0.00    -0.302 OA
BRANCH  13  14
ATOM     14  C   UNL d   1     -41.410-122.279 -53.207  0.00  0.00     0.100 A 
ATOM     15  C   UNL d   1     -41.124-122.906 -53.691  0.00  0.00     0.027 A 
ATOM     16  C   UNL d   1     -41.416-123.014 -54.447  0.00  0.00     0.026 A 
ATOM     17  C   UNL d   1     -42.013-122.493 -54.751  0.00  0.00     0.094 A 
ATOM     18  C   UNL d   1     -42.299-121.866 -54.267  0.00  0.00     0.026 A 
ATOM     19  C   UNL d   1     -41.991-121.770 -53.501  0.00  0.00     0.027 A 
BRANCH  17  20
ATOM     20  O   UNL d   1     -42.336-122.572 -55.519  0.00  0.00    -0.328 OA
ATOM     21  C   UNL d   1     -42.616-121.974 -56.043  0.00  0.00     0.181 C 
ENDBRANCH  17  20
ENDBRANCH  13  14
ENDBRANCH   1  13
TORSDOF 3
ENDMDL
