MODEL 1
REMARK VINA RESULT:      -5.2      0.000      0.000
REMARK  4 active torsions:
REMARK  status: ('A' for Active; 'I' for Inactive)
REMARK    1  A    between atoms: S_2  and  N_1 
REMARK    2  A    between atoms: C_7  and  S_2 
REMARK    3  A    between atoms: S_8  and  C_5 
REMARK    4  A    between atoms: C_16  and  S_8 
ROOT
ATOM      1  N   UNL d   1     -41.565-122.341 -52.719  0.00  0.00    -0.151 N 
ATOM      2  C   UNL d   1     -41.564-122.985 -52.209  0.00  0.00     0.102 A 
ATOM      3  N   UNL d   1     -41.400-121.672 -52.269  0.00  0.00    -0.155 NA
ATOM      4  C   UNL d   1     -41.399-122.722 -51.449  0.00  0.00     0.067 A 
ATOM      5  C   UNL d   1     -41.297-121.902 -51.490  0.00  0.00     0.110 A 
ATOM      6  C   UNL d   1     -41.706-123.786 -52.418  0.00  0.00     0.022 C 
ATOM      7  C   UNL d   1     -41.123-121.405 -50.855  0.00  0.00     0.023 C 
ENDROOT
BRANCH   1   8
ATOM      8  S   UNL d   1     -41.705-122.351 -53.526  0.00  0.00     0.292 S 
ATOM      9  O   UNL d   1     -42.294-121.781 -53.428  0.00  0.00    -0.198 OA
ATOM     10  O   UNL d   1     -41.123-122.914 -53.626  0.00  0.00    -0.198 OA
BRANCH   8  11
ATOM     11  C   UNL d   1     -41.851-122.355 -54.342  0.00  0.00     0.135 A 
ATOM     12  S   UNL d   1     -42.504-122.038 -54.718  0.00  0.00    -0.073 SA
ATOM     13  C   UNL d   1     -42.421-122.167 -55.528  0.00  0.00     0.036 A 
ATOM     14  C   UNL d   1     -41.711-122.568 -55.653  0.00  0.00     0.008 A 
ATOM     15  C   UNL d   1     -41.355-122.686 -54.914  0.00  0.00     0.020 A 
ENDBRANCH   8  11
ENDBRANCH   1   8
BRANCH   4  16
ATOM     16  S   UNL d   1     -41.327-123.112 -50.722  0.00  0.00    -0.084 SA
BRANCH  16  17
ATOM     17  C   UNL d   1     -41.983-123.171 -50.223  0.00  0.00     0.029 A 
ATOM     18  C   UNL d   1     -42.072-122.653 -49.586  0.00  0.00     0.006 A 
ATOM     19  C   UNL d   1     -42.729-122.724 -49.100  0.00  0.00     0.001 A 
ATOM     20  C   UNL d   1     -43.298-123.302 -49.236  0.00  0.00     0.000 A 
ATOM     21  C   UNL d   1     -43.207-123.817 -49.871  0.00  0.00     0.001 A 
ATOM     22  C   UNL d   1     -42.553-123.753 -50.363  0.00  0.00     0.006 A 
ENDBRANCH  16  17
ENDBRANCH   4  16
TORSDOF 4
ENDMDL
MODEL 2
REMARK VINA RESULT:      -4.9      1.183      4.273
REMARK  4 active torsions:
REMARK  status: ('A' for Active; 'I' for Inactive)
REMARK    1  A    between atoms: S_2  and  N_1 
REMARK    2  A    between atoms: C_7  and  S_2 
REMARK    3  A    between atoms: S_8  and  C_5 
REMARK    4  A    between atoms: C_16  and  S_8 
ROOT
ATOM      1  N   UNL d   1     -41.672-122.930 -51.669  0.00  0.00    -0.151 N 
ATOM      2  C   UNL d   1     -41.548-122.265 -52.136  0.00  0.00     0.102 A 
ATOM      3  N   UNL d   1     -41.526-123.590 -52.140  0.00  0.00    -0.155 NA
ATOM      4  C   UNL d   1     -41.328-122.506 -52.889  0.00  0.00     0.067 A 
ATOM      5  C   UNL d   1     -41.315-123.333 -52.888  0.00  0.00     0.110 A 
ATOM      6  C   UNL d   1     -41.631-121.465 -51.893  0.00  0.00     0.022 C 
ATOM      7  C   UNL d   1     -41.123-123.813 -53.531  0.00  0.00     0.023 C 
ENDROOT
BRANCH   1   8
ATOM      8  S   UNL d   1     -41.898-122.946 -50.882  0.00  0.00     0.292 S 
ATOM      9  O   UNL d   1     -42.683-122.823 -51.109  0.00  0.00    -0.198 OA
ATOM     10  O   UNL d   1     -41.124-123.067 -50.655  0.00  0.00    -0.198 OA
BRANCH   8  11
ATOM     11  C   UNL d   1     -42.135-122.961 -50.088  0.00  0.00     0.135 A 
ATOM     12  S   UNL d   1     -41.764-123.361 -49.480  0.00  0.00    -0.073 SA
ATOM     13  C   UNL d   1     -42.187-123.222 -48.786  0.00  0.00     0.036 A 
ATOM     14  C   UNL d   1     -42.825-122.731 -48.967  0.00  0.00     0.008 A 
ATOM     15  C   UNL d   1     -42.794-122.568 -49.779  0.00  0.00     0.020 A 
ENDBRANCH   8  11
ENDBRANCH   1   8
BRANCH   4  16
ATOM     16  S   UNL d   1     -41.136-122.089 -53.579  0.00  0.00    -0.084 SA
BRANCH  16  17
ATOM     17  C   UNL d   1     -41.697-122.016 -54.181  0.00  0.00     0.029 A 
ATOM     18  C   UNL d   1     -42.392-121.589 -54.055  0.00  0.00     0.006 A 
ATOM     19  C   UNL d   1     -42.940-121.526 -54.663  0.00  0.00     0.001 A 
ATOM     20  C   UNL d   1     -42.807-121.880 -55.394  0.00  0.00     0.000 A 
ATOM     21  C   UNL d   1     -42.113-122.305 -55.516  0.00  0.00     0.001 A 
ATOM     22  C   UNL d   1     -41.560-122.373 -54.913  0.00  0.00     0.006 A 
ENDBRANCH  16  17
ENDBRANCH   4  16
TORSDOF 4
ENDMDL
