MODEL 1
REMARK VINA RESULT:      13.9      0.000      0.000
REMARK  4 active torsions:
REMARK  status: ('A' for Active; 'I' for Inactive)
REMARK    1  A    between atoms: C_2  and  S_1 
REMARK    2  A    between atoms: N_5  and  S_1 
REMARK    3  A    between atoms: C_12  and  N_5 
REMARK    4  A    between atoms: C_13  and  C_12 
ROOT
ATOM      1  S   UNL d   1      46.271 -17.322  43.984  0.00  0.00     0.285 S 
ATOM      2  O   UNL d   1      45.912 -17.649  44.650  0.00  0.00    -0.198 OA
ATOM      3  O   UNL d   1      46.631 -16.994  43.317  0.00  0.00    -0.198 OA
ENDROOT
BRANCH   1   4
ATOM      4  C   UNL d   1      46.328 -18.072  43.646  0.00  0.00     0.105 A 
ATOM      5  C   UNL d   1      46.270 -18.173  42.835  0.00  0.00     0.012 A 
ATOM      6  C   UNL d   1      46.327 -18.922  42.497  0.00  0.00     0.001 A 
ATOM      7  C   UNL d   1      46.153 -17.503  42.354  0.00  0.00     0.001 C 
ATOM      8  C   UNL d   1      46.442 -19.579  42.966  0.00  0.00     0.000 A 
ATOM      9  C   UNL d   1      46.502 -19.489  43.784  0.00  0.00     0.001 A 
ATOM     10  C   UNL d   1      46.499 -20.329  42.628  0.00  0.00     0.000 C 
ATOM     11  C   UNL d   1      46.445 -18.740  44.122  0.00  0.00     0.012 A 
ATOM     12  C   UNL d   1      46.505 -18.644  44.943  0.00  0.00     0.001 C 
ENDBRANCH   1   4
BRANCH   1  13
ATOM     13  N   UNL d   1      46.215 -16.578  44.319  0.00  0.00    -0.157 NA
BRANCH  13  14
ATOM     14  C   UNL d   1      45.530 -16.142  44.241  0.00  0.00     0.112 C 
BRANCH  14  15
ATOM     15  C   UNL d   1      45.515 -15.359  44.478  0.00  0.00     0.023 A 
ATOM     16  C   UNL d   1      46.211 -14.930  44.550  0.00  0.00     0.022 A 
ATOM     17  C   UNL d   1      46.199 -14.143  44.787  0.00  0.00     0.099 A 
ATOM     18  N   UNL d   1      45.477 -13.780  44.955  0.00  0.00    -0.242 NA
ATOM     19  C   UNL d   1      44.773 -14.196  44.887  0.00  0.00     0.099 A 
ATOM     20  C   UNL d   1      44.788 -14.993  44.647  0.00  0.00     0.022 A 
ENDBRANCH  14  15
ENDBRANCH  13  14
ENDBRANCH   1  13
TORSDOF 4
ENDMDL
MODEL 2
REMARK VINA RESULT:      15.0      1.394      4.497
REMARK  4 active torsions:
REMARK  status: ('A' for Active; 'I' for Inactive)
REMARK    1  A    between atoms: C_2  and  S_1 
REMARK    2  A    between atoms: N_5  and  S_1 
REMARK    3  A    between atoms: C_12  and  N_5 
REMARK    4  A    between atoms: C_13  and  C_12 
ROOT
ATOM      1  S   UNL d   1      45.683 -15.347  44.302  0.00  0.00     0.285 S 
ATOM      2  O   UNL d   1      45.196 -15.574  43.676  0.00  0.00    -0.198 OA
ATOM      3  O   UNL d   1      46.169 -15.120  44.929  0.00  0.00    -0.198 OA
ENDROOT
BRANCH   1   4
ATOM      4  C   UNL d   1      45.463 -14.560  44.188  0.00  0.00     0.105 A 
ATOM      5  C   UNL d   1      44.769 -14.267  44.508  0.00  0.00     0.012 A 
ATOM      6  C   UNL d   1      44.550 -13.481  44.394  0.00  0.00     0.001 A 
ATOM      7  C   UNL d   1      44.285 -14.777  44.955  0.00  0.00     0.001 C 
ATOM      8  C   UNL d   1      45.022 -12.980  43.957  0.00  0.00     0.000 A 
ATOM      9  C   UNL d   1      45.723 -13.265  43.629  0.00  0.00     0.001 A 
ATOM     10  C   UNL d   1      44.802 -12.193  43.842  0.00  0.00     0.000 C 
ATOM     11  C   UNL d   1      45.942 -14.051  43.744  0.00  0.00     0.012 A 
ATOM     12  C   UNL d   1      46.646 -14.343  43.417  0.00  0.00     0.001 C 
ENDBRANCH   1   4
BRANCH   1  13
ATOM     13  N   UNL d   1      45.900 -16.128  44.416  0.00  0.00    -0.157 NA
BRANCH  13  14
ATOM     14  C   UNL d   1      45.757 -16.684  43.837  0.00  0.00     0.112 C 
BRANCH  14  15
ATOM     15  C   UNL d   1      46.029 -17.449  43.930  0.00  0.00     0.023 A 
ATOM     16  C   UNL d   1      46.075 -17.790  44.675  0.00  0.00     0.022 A 
ATOM     17  C   UNL d   1      46.348 -18.559  44.772  0.00  0.00     0.099 A 
ATOM     18  N   UNL d   1      46.579 -18.995  44.110  0.00  0.00    -0.242 NA
ATOM     19  C   UNL d   1      46.539 -18.668  43.359  0.00  0.00     0.099 A 
ATOM     20  C   UNL d   1      46.262 -17.888  43.263  0.00  0.00     0.022 A 
ENDBRANCH  14  15
ENDBRANCH  13  14
ENDBRANCH   1  13
TORSDOF 4
ENDMDL
