MODEL 1
REMARK VINA RESULT:      -8.4      0.000      0.000
REMARK  6 active torsions:
REMARK  status: ('A' for Active; 'I' for Inactive)
REMARK    1  A    between atoms: C_7  and  C_1 
REMARK    2  A    between atoms: C_10  and  C_2 
REMARK    3  A    between atoms: C_8  and  C_7 
REMARK    4  A    between atoms: C_9  and  C_8 
REMARK    5  A    between atoms: C_13  and  C_9 
REMARK    6  A    between atoms: O_20  and  C_16 
ROOT
ATOM      1  C   UNL d   1      52.211  33.602  53.040  0.00  0.00     0.097 A 
ATOM      2  C   UNL d   1      52.746  33.774  53.643  0.00  0.00     0.009 A 
ATOM      3  C   UNL d   1      52.117  32.832  52.776  0.00  0.00     0.282 A 
ATOM      4  C   UNL d   1      53.186  33.162  53.981  0.00  0.00     0.019 A 
ATOM      5  N   UNL d   1      52.557  32.224  53.115  0.00  0.00    -0.208 NA
ATOM      6  C   UNL d   1      53.092  32.391  53.718  0.00  0.00     0.085 A 
ATOM      7  C   UNL d   1      53.721  33.333  54.585  0.00  0.00     0.013 A 
ATOM      8  O   UNL d   1      51.561  32.693  52.158  0.00  0.00    -0.265 OA
ATOM      9  C   UNL d   1      53.531  31.784  54.056  0.00  0.00     0.020 A 
ATOM     10  C   UNL d   1      54.161  32.722  54.923  0.00  0.00     0.058 A 
ATOM     11  C   UNL d   1      54.066  31.951  54.660  0.00  0.00     0.013 A 
ATOM     12 CL   UNL d   1      54.710  32.872  55.537  0.00  0.00    -0.082 Cl
ENDROOT
BRANCH   1  13
ATOM     13  C   UNL d   1      51.747  34.210  52.675  0.00  0.00     0.200 C 
ATOM     14  O   UNL d   1      52.094  34.713  52.133  0.00  0.00    -0.286 OA
BRANCH  13  15
ATOM     15  C   UNL d   1      50.949  34.285  52.873  0.00  0.00     0.042 C 
BRANCH  15  16
ATOM     16  C   UNL d   1      50.396  34.457  52.296  0.00  0.00     0.005 C 
BRANCH  16  17
ATOM     17  C   UNL d   1      49.688  34.811  52.507  0.00  0.00     0.022 A 
ATOM     18  C   UNL d   1      49.068  34.850  51.958  0.00  0.00     0.094 A 
ATOM     19  C   UNL d   1      48.346  35.208  52.167  0.00  0.00     0.024 A 
ATOM     20  C   UNL d   1      48.261  35.517  52.918  0.00  0.00     0.002 A 
ATOM     21  C   UNL d   1      48.884  35.484  53.490  0.00  0.00     0.000 A 
ATOM     22  C   UNL d   1      49.586  35.131  53.273  0.00  0.00     0.002 A 
BRANCH  18  23
ATOM     23  O   UNL d   1      49.155  34.534  51.189  0.00  0.00    -0.328 OA
ATOM     24  C   UNL d   1      48.533  34.537  50.672  0.00  0.00     0.181 C 
ENDBRANCH  18  23
ENDBRANCH  16  17
ENDBRANCH  15  16
ENDBRANCH  13  15
ENDBRANCH   1  13
BRANCH   2  25
ATOM     25  C   UNL d   1      52.841  34.555  53.910  0.00  0.00     0.000 A 
ATOM     26  C   UNL d   1      52.454  34.797  54.587  0.00  0.00     0.000 A 
ATOM     27  C   UNL d   1      52.552  35.594  54.859  0.00  0.00     0.000 A 
ATOM     28  C   UNL d   1      53.031  36.104  54.439  0.00  0.00     0.000 A 
ATOM     29  C   UNL d   1      53.407  35.862  53.776  0.00  0.00     0.000 A 
ATOM     30  C   UNL d   1      53.323  35.080  53.494  0.00  0.00     0.000 A 
ENDBRANCH   2  25
TORSDOF 6
ENDMDL
MODEL 2
REMARK VINA RESULT:      -8.3      2.028      4.561
REMARK  6 active torsions:
REMARK  status: ('A' for Active; 'I' for Inactive)
REMARK    1  A    between atoms: C_7  and  C_1 
REMARK    2  A    between atoms: C_10  and  C_2 
REMARK    3  A    between atoms: C_8  and  C_7 
REMARK    4  A    between atoms: C_9  and  C_8 
REMARK    5  A    between atoms: C_13  and  C_9 
REMARK    6  A    between atoms: O_20  and  C_16 
ROOT
ATOM      1  C   UNL d   1      53.188  32.735  53.357  0.00  0.00     0.097 A 
ATOM      2  C   UNL d   1      53.339  33.398  53.823  0.00  0.00     0.009 A 
ATOM      3  C   UNL d   1      52.551  32.728  52.842  0.00  0.00     0.282 A 
ATOM      4  C   UNL d   1      52.843  34.056  53.765  0.00  0.00     0.019 A 
ATOM      5  N   UNL d   1      52.058  33.384  52.786  0.00  0.00    -0.208 NA
ATOM      6  C   UNL d   1      52.206  34.049  53.250  0.00  0.00     0.085 A 
ATOM      7  C   UNL d   1      52.994  34.719  54.231  0.00  0.00     0.013 A 
ATOM      8  O   UNL d   1      52.426  32.033  52.381  0.00  0.00    -0.265 OA
ATOM      9  C   UNL d   1      51.713  34.705  53.194  0.00  0.00     0.020 A 
ATOM     10  C   UNL d   1      52.499  35.377  54.173  0.00  0.00     0.058 A 
ATOM     11  C   UNL d   1      51.861  35.370  53.658  0.00  0.00     0.013 A 
ATOM     12 CL   UNL d   1      52.632  36.062  54.636  0.00  0.00    -0.082 Cl
ENDROOT
BRANCH   1  13
ATOM     13  C   UNL d   1      53.680  32.046  53.396  0.00  0.00     0.200 C 
ATOM     14  O   UNL d   1      54.398  32.041  53.005  0.00  0.00    -0.286 OA
BRANCH  13  15
ATOM     15  C   UNL d   1      53.428  31.390  53.828  0.00  0.00     0.042 C 
BRANCH  15  16
ATOM     16  C   UNL d   1      53.579  30.635  53.555  0.00  0.00     0.005 C 
BRANCH  16  17
ATOM     17  C   UNL d   1      53.455  29.993  54.050  0.00  0.00     0.022 A 
ATOM     18  C   UNL d   1      53.068  29.319  53.762  0.00  0.00     0.094 A 
ATOM     19  C   UNL d   1      52.939  28.665  54.260  0.00  0.00     0.024 A 
ATOM     20  C   UNL d   1      53.200  28.700  55.033  0.00  0.00     0.002 A 
ATOM     21  C   UNL d   1      53.597  29.381  55.342  0.00  0.00     0.000 A 
ATOM     22  C   UNL d   1      53.717  30.015  54.844  0.00  0.00     0.002 A 
BRANCH  18  23
ATOM     23  O   UNL d   1      52.802  29.284  52.970  0.00  0.00    -0.328 OA
ATOM     24  C   UNL d   1      52.303  28.693  52.732  0.00  0.00     0.181 C 
ENDBRANCH  18  23
ENDBRANCH  16  17
ENDBRANCH  15  16
ENDBRANCH  13  15
ENDBRANCH   1  13
BRANCH   2  25
ATOM     25  C   UNL d   1      53.985  33.405  54.346  0.00  0.00     0.000 A 
ATOM     26  C   UNL d   1      54.726  33.605  54.065  0.00  0.00     0.000 A 
ATOM     27  C   UNL d   1      55.385  33.613  54.597  0.00  0.00     0.000 A 
ATOM     28  C   UNL d   1      55.266  33.420  55.382  0.00  0.00     0.000 A 
ATOM     29  C   UNL d   1      54.539  33.225  55.652  0.00  0.00     0.000 A 
ATOM     30  C   UNL d   1      53.879  33.212  55.141  0.00  0.00     0.000 A 
ENDBRANCH   2  25
TORSDOF 6
ENDMDL
MODEL 3
REMARK VINA RESULT:      -7.5      0.934      2.121
REMARK  6 active torsions:
REMARK  status: ('A' for Active; 'I' for Inactive)
REMARK    1  A    between atoms: C_7  and  C_1 
REMARK    2  A    between atoms: C_10  and  C_2 
REMARK    3  A    between atoms: C_8  and  C_7 
REMARK    4  A    between atoms: C_9  and  C_8 
REMARK    5  A    between atoms: C_13  and  C_9 
REMARK    6  A    between atoms: O_20  and  C_16 
ROOT
ATOM      1  C   UNL d   1      52.336  34.199  53.356  0.00  0.00     0.097 A 
ATOM      2  C   UNL d   1      52.668  33.513  53.671  0.00  0.00     0.009 A 
ATOM      3  C   UNL d   1      52.581  34.936  53.620  0.00  0.00     0.282 A 
ATOM      4  C   UNL d   1      53.248  33.574  54.255  0.00  0.00     0.019 A 
ATOM      5  N   UNL d   1      53.160  34.994  54.201  0.00  0.00    -0.208 NA
ATOM      6  C   UNL d   1      53.493  34.311  54.518  0.00  0.00     0.085 A 
ATOM      7  C   UNL d   1      53.580  32.888  54.570  0.00  0.00     0.013 A 
ATOM      8  O   UNL d   1      52.221  35.616  53.276  0.00  0.00    -0.265 OA
ATOM      9  C   UNL d   1      54.073  34.369  55.100  0.00  0.00     0.020 A 
ATOM     10  C   UNL d   1      54.161  32.949  55.153  0.00  0.00     0.058 A 
ATOM     11  C   UNL d   1      54.406  33.686  55.417  0.00  0.00     0.013 A 
ATOM     12 CL   UNL d   1      54.512  32.266  55.488  0.00  0.00    -0.082 Cl
ENDROOT
BRANCH   1  13
ATOM     13  C   UNL d   1      51.738  34.166  52.757  0.00  0.00     0.200 C 
ATOM     14  O   UNL d   1      51.942  33.947  51.996  0.00  0.00    -0.286 OA
BRANCH  13  15
ATOM     15  C   UNL d   1      50.958  34.356  52.950  0.00  0.00     0.042 C 
BRANCH  15  16
ATOM     16  C   UNL d   1      50.398  34.442  52.361  0.00  0.00     0.005 C 
BRANCH  16  17
ATOM     17  C   UNL d   1      49.674  34.783  52.539  0.00  0.00     0.022 A 
ATOM     18  C   UNL d   1      49.077  34.805  51.964  0.00  0.00     0.094 A 
ATOM     19  C   UNL d   1      48.340  35.149  52.139  0.00  0.00     0.024 A 
ATOM     20  C   UNL d   1      48.217  35.462  52.883  0.00  0.00     0.002 A 
ATOM     21  C   UNL d   1      48.816  35.447  53.481  0.00  0.00     0.000 A 
ATOM     22  C   UNL d   1      49.534  35.107  53.297  0.00  0.00     0.002 A 
BRANCH  18  23
ATOM     23  O   UNL d   1      49.203  34.485  51.203  0.00  0.00    -0.328 OA
ATOM     24  C   UNL d   1      48.595  34.438  50.672  0.00  0.00     0.181 C 
ENDBRANCH  18  23
ENDBRANCH  16  17
ENDBRANCH  15  16
ENDBRANCH  13  15
ENDBRANCH   1  13
BRANCH   2  25
ATOM     25  C   UNL d   1      52.419  32.766  53.404  0.00  0.00     0.000 A 
ATOM     26  C   UNL d   1      52.845  32.388  52.818  0.00  0.00     0.000 A 
ATOM     27  C   UNL d   1      52.592  31.627  52.546  0.00  0.00     0.000 A 
ATOM     28  C   UNL d   1      51.927  31.286  52.874  0.00  0.00     0.000 A 
ATOM     29  C   UNL d   1      51.513  31.660  53.447  0.00  0.00     0.000 A 
ATOM     30  C   UNL d   1      51.748  32.411  53.727  0.00  0.00     0.000 A 
ENDBRANCH   2  25
TORSDOF 6
ENDMDL
MODEL 4
REMARK VINA RESULT:      -6.6      2.111      4.470
REMARK  6 active torsions:
REMARK  status: ('A' for Active; 'I' for Inactive)
REMARK    1  A    between atoms: C_7  and  C_1 
REMARK    2  A    between atoms: C_10  and  C_2 
REMARK    3  A    between atoms: C_8  and  C_7 
REMARK    4  A    between atoms: C_9  and  C_8 
REMARK    5  A    between atoms: C_13  and  C_9 
REMARK    6  A    between atoms: O_20  and  C_16 
ROOT
ATOM      1  C   UNL d   1      53.670  33.243  53.850  0.00  0.00     0.097 A 
ATOM      2  C   UNL d   1      53.079  33.819  53.858  0.00  0.00     0.009 A 
ATOM      3  C   UNL d   1      54.364  33.356  54.272  0.00  0.00     0.282 A 
ATOM      4  C   UNL d   1      53.193  34.510  54.296  0.00  0.00     0.019 A 
ATOM      5  N   UNL d   1      54.474  34.045  54.707  0.00  0.00    -0.208 NA
ATOM      6  C   UNL d   1      53.886  34.622  54.718  0.00  0.00     0.085 A 
ATOM      7  C   UNL d   1      52.602  35.085  54.304  0.00  0.00     0.013 A 
ATOM      8  O   UNL d   1      54.946  32.747  54.241  0.00  0.00    -0.265 OA
ATOM      9  C   UNL d   1      53.997  35.312  55.153  0.00  0.00     0.020 A 
ATOM     10  C   UNL d   1      52.715  35.776  54.742  0.00  0.00     0.058 A 
ATOM     11  C   UNL d   1      53.409  35.889  55.164  0.00  0.00     0.013 A 
ATOM     12 CL   UNL d   1      52.130  36.374  54.765  0.00  0.00    -0.082 Cl
ENDROOT
BRANCH   1  13
ATOM     13  C   UNL d   1      53.580  32.525  53.409  0.00  0.00     0.200 C 
ATOM     14  O   UNL d   1      53.633  32.542  52.594  0.00  0.00    -0.286 OA
BRANCH  13  15
ATOM     15  C   UNL d   1      53.441  31.818  53.811  0.00  0.00     0.042 C 
BRANCH  15  16
ATOM     16  C   UNL d   1      53.528  31.102  53.426  0.00  0.00     0.005 C 
BRANCH  16  17
ATOM     17  C   UNL d   1      53.372  30.405  53.827  0.00  0.00     0.022 A 
ATOM     18  C   UNL d   1      53.051  29.758  53.420  0.00  0.00     0.094 A 
ATOM     19  C   UNL d   1      52.890  29.047  53.823  0.00  0.00     0.024 A 
ATOM     20  C   UNL d   1      53.054  29.001  54.621  0.00  0.00     0.002 A 
ATOM     21  C   UNL d   1      53.382  29.652  55.051  0.00  0.00     0.000 A 
ATOM     22  C   UNL d   1      53.535  30.342  54.645  0.00  0.00     0.002 A 
BRANCH  18  23
ATOM     23  O   UNL d   1      52.883  29.806  52.603  0.00  0.00    -0.328 OA
ATOM     24  C   UNL d   1      52.501  29.201  52.226  0.00  0.00     0.181 C 
ENDBRANCH  18  23
ENDBRANCH  16  17
ENDBRANCH  15  16
ENDBRANCH  13  15
ENDBRANCH   1  13
BRANCH   2  25
ATOM     25  C   UNL d   1      52.376  33.705  53.430  0.00  0.00     0.000 A 
ATOM     26  C   UNL d   1      52.336  33.952  52.652  0.00  0.00     0.000 A 
ATOM     27  C   UNL d   1      51.619  33.835  52.216  0.00  0.00     0.000 A 
ATOM     28  C   UNL d   1      50.982  33.478  52.581  0.00  0.00     0.000 A 
ATOM     29  C   UNL d   1      51.027  33.239  53.343  0.00  0.00     0.000 A 
ATOM     30  C   UNL d   1      51.725  33.345  53.788  0.00  0.00     0.000 A 
ENDBRANCH   2  25
TORSDOF 6
ENDMDL
MODEL 5
REMARK VINA RESULT:      -6.2      1.515      2.307
REMARK  6 active torsions:
REMARK  status: ('A' for Active; 'I' for Inactive)
REMARK    1  A    between atoms: C_7  and  C_1 
REMARK    2  A    between atoms: C_10  and  C_2 
REMARK    3  A    between atoms: C_8  and  C_7 
REMARK    4  A    between atoms: C_9  and  C_8 
REMARK    5  A    between atoms: C_13  and  C_9 
REMARK    6  A    between atoms: O_20  and  C_16 
ROOT
ATOM      1  C   UNL d   1      52.824  31.977  53.004  0.00  0.00     0.097 A 
ATOM      2  C   UNL d   1      53.279  31.677  53.623  0.00  0.00     0.009 A 
ATOM      3  C   UNL d   1      52.389  31.471  52.528  0.00  0.00     0.282 A 
ATOM      4  C   UNL d   1      53.293  30.863  53.758  0.00  0.00     0.019 A 
ATOM      5  N   UNL d   1      52.404  30.660  52.665  0.00  0.00    -0.208 NA
ATOM      6  C   UNL d   1      52.858  30.357  53.282  0.00  0.00     0.085 A 
ATOM      7  C   UNL d   1      53.748  30.562  54.377  0.00  0.00     0.013 A 
ATOM      8  O   UNL d   1      51.934  31.812  51.905  0.00  0.00    -0.265 OA
ATOM      9  C   UNL d   1      52.874  29.546  53.419  0.00  0.00     0.020 A 
ATOM     10  C   UNL d   1      53.762  29.748  54.512  0.00  0.00     0.058 A 
ATOM     11  C   UNL d   1      53.327  29.242  54.036  0.00  0.00     0.013 A 
ATOM     12 CL   UNL d   1      54.217  29.421  55.134  0.00  0.00    -0.082 Cl
ENDROOT
BRANCH   1  13
ATOM     13  C   UNL d   1      52.791  32.808  52.843  0.00  0.00     0.200 C 
ATOM     14  O   UNL d   1      53.417  33.170  52.461  0.00  0.00    -0.286 OA
BRANCH  13  15
ATOM     15  C   UNL d   1      52.127  33.240  53.073  0.00  0.00     0.042 C 
BRANCH  15  16
ATOM     16  C   UNL d   1      51.822  33.819  52.582  0.00  0.00     0.005 C 
BRANCH  16  17
ATOM     17  C   UNL d   1      51.129  34.203  52.792  0.00  0.00     0.022 A 
ATOM     18  C   UNL d   1      50.585  34.420  52.206  0.00  0.00     0.094 A 
ATOM     19  C   UNL d   1      49.880  34.811  52.412  0.00  0.00     0.024 A 
ATOM     20  C   UNL d   1      49.736  34.975  53.199  0.00  0.00     0.002 A 
ATOM     21  C   UNL d   1      50.282  34.760  53.810  0.00  0.00     0.000 A 
ATOM     22  C   UNL d   1      50.969  34.378  53.594  0.00  0.00     0.002 A 
BRANCH  18  23
ATOM     23  O   UNL d   1      50.733  34.252  51.400  0.00  0.00    -0.328 OA
ATOM     24  C   UNL d   1      50.175  34.416  50.838  0.00  0.00     0.181 C 
ENDBRANCH  18  23
ENDBRANCH  16  17
ENDBRANCH  15  16
ENDBRANCH  13  15
ENDBRANCH   1  13
BRANCH   2  25
ATOM     25  C   UNL d   1      53.720  32.189  54.106  0.00  0.00     0.000 A 
ATOM     26  C   UNL d   1      54.442  32.467  53.842  0.00  0.00     0.000 A 
ATOM     27  C   UNL d   1      54.892  32.989  54.334  0.00  0.00     0.000 A 
ATOM     28  C   UNL d   1      54.595  33.206  55.064  0.00  0.00     0.000 A 
ATOM     29  C   UNL d   1      53.889  32.931  55.317  0.00  0.00     0.000 A 
ATOM     30  C   UNL d   1      53.432  32.415  54.845  0.00  0.00     0.000 A 
ENDBRANCH   2  25
TORSDOF 6
ENDMDL
