MODEL 1
REMARK VINA RESULT:      42.8      0.000      0.000
REMARK  4 active torsions:
REMARK  status: ('A' for Active; 'I' for Inactive)
REMARK    1  A    between atoms: N_5  and  C_1 
REMARK    2  A    between atoms: N_9  and  N_5 
REMARK    3  A    between atoms: C_7  and  C_8 
REMARK    4  A    between atoms: C_12  and  N_9 
ROOT
ATOM      1  N   UNL d   1     -52.150  24.655  33.365  0.00  0.00    -0.146 NA
ENDROOT
BRANCH   1   2
ATOM      2  C   UNL d   1     -51.402  25.107  33.345  0.00  0.00     0.122 A 
ATOM      3  C   UNL d   1     -50.670  24.778  33.330  0.00  0.00     0.101 A 
ATOM      4  N   UNL d   1     -50.104  25.393  33.314  0.00  0.00    -0.244 NA
ATOM      5  C   UNL d   1     -50.490  23.978  33.330  0.00  0.00     0.022 C 
ATOM      6  C   UNL d   1     -50.503  26.096  33.319  0.00  0.00     0.083 A 
ATOM      7  C   UNL d   1     -51.327  25.928  33.339  0.00  0.00     0.039 A 
ATOM      8  C   UNL d   1     -50.264  26.892  33.309  0.00  0.00     0.019 A 
ATOM      9  C   UNL d   1     -51.892  26.547  33.348  0.00  0.00     0.003 A 
ATOM     10  C   UNL d   1     -51.638  27.336  33.338  0.00  0.00     0.000 A 
ATOM     11  C   UNL d   1     -50.813  27.518  33.318  0.00  0.00     0.002 A 
ENDBRANCH   1   2
BRANCH   1  12
ATOM     12  N   UNL d   1     -52.198  23.940  33.781  0.00  0.00    -0.148 NA
BRANCH  12  13
ATOM     13  C   UNL d   1     -52.903  23.717  34.139  0.00  0.00     0.103 A 
ATOM     14  C   UNL d   1     -53.001  23.796  34.930  0.00  0.00     0.027 A 
ATOM     15  C   UNL d   1     -53.706  23.573  35.288  0.00  0.00     0.066 A 
ATOM     16  C   UNL d   1     -54.303  23.274  34.837  0.00  0.00     0.006 A 
ATOM     17  C   UNL d   1     -54.207  23.194  34.041  0.00  0.00     0.002 A 
ATOM     18  C   UNL d   1     -53.509  23.416  33.696  0.00  0.00     0.021 A 
BRANCH  15  19
ATOM     19  C   UNL d   1     -53.847  23.638  36.098  0.00  0.00     0.211 C 
ATOM     20  O   UNL d   1     -54.449  24.149  36.370  0.00  0.00    -0.644 OA
ATOM     21  O   UNL d   1     -53.393  23.196  36.645  0.00  0.00    -0.644 OA
ENDBRANCH  15  19
ENDBRANCH  12  13
ENDBRANCH   1  12
TORSDOF 4
ENDMDL
