MODEL 1
REMARK VINA RESULT:      76.6      0.000      0.000
REMARK  5 active torsions:
REMARK  status: ('A' for Active; 'I' for Inactive)
REMARK    1  A    between atoms: N_6  and  C_1 
REMARK    2  A    between atoms: C_8  and  C_2 
REMARK    3  A    between atoms: C_10  and  C_3 
REMARK       I    between atoms: C_7  and  N_6 
REMARK    4  A    between atoms: C_18  and  C_7 
REMARK    5  A    between atoms: C_17  and  C_10 
ROOT
ATOM      1  C   UNL d   1     -55.520-100.920 -43.239  0.00  0.00     0.119 A 
ATOM      2  C   UNL d   1     -55.323-101.045 -44.025  0.00  0.00     0.084 A 
ATOM      3  C   UNL d   1     -55.970 -99.875 -43.940  0.00  0.00     0.031 A 
ATOM      4  S   UNL d   1     -55.921-100.198 -43.176  0.00  0.00    -0.068 SA
ATOM      5  C   UNL d   1     -55.602-100.397 -44.460  0.00  0.00     0.013 A 
ATOM      6  C   UNL d   1     -55.527-100.286 -45.278  0.00  0.00     0.001 C 
ENDROOT
BRANCH   3   7
ATOM      7  C   UNL d   1     -56.306 -99.166 -44.224  0.00  0.00     0.007 C 
BRANCH   7   8
ATOM      8  C   UNL d   1     -57.130 -99.054 -44.178  0.00  0.00     0.003 A 
ATOM      9  C   UNL d   1     -57.513 -99.123 -43.445  0.00  0.00     0.026 A 
ATOM     10  C   UNL d   1     -58.327 -99.014 -43.391  0.00  0.00     0.119 A 
ATOM     11  O   UNL d   1     -58.842 -99.047 -42.754  0.00  0.00    -0.300 OA
ATOM     12  C   UNL d   1     -58.765 -98.836 -44.066  0.00  0.00     0.119 A 
ATOM     13  C   UNL d   1     -59.598 -98.891 -43.030  0.00  0.00     0.304 A 
ATOM     14  O   UNL d   1     -59.549 -98.760 -43.842  0.00  0.00    -0.300 OA
ATOM     15  C   UNL d   1     -58.390 -98.767 -44.795  0.00  0.00     0.026 A 
ATOM     16  C   UNL d   1     -57.569 -98.876 -44.854  0.00  0.00     0.002 A 
ENDBRANCH   7   8
ENDBRANCH   3   7
BRANCH   1  17
ATOM     17  N   UNL d   1     -55.345-101.439 -42.601  0.00  0.00    -0.201 NA
ATOM     18  C   UNL d   1     -55.690-101.311 -41.853  0.00  0.00     0.280 C 
ATOM     19  O   UNL d   1     -56.205-100.677 -41.732  0.00  0.00    -0.265 OA
BRANCH  18  20
ATOM     20  C   UNL d   1     -55.514-101.826 -41.227  0.00  0.00     0.058 A 
ATOM     21  C   UNL d   1     -54.892-102.365 -41.291  0.00  0.00     0.005 A 
ATOM     22  C   UNL d   1     -54.714-102.876 -40.672  0.00  0.00     0.000 A 
ATOM     23  C   UNL d   1     -55.161-102.855 -39.975  0.00  0.00     0.000 A 
ATOM     24  C   UNL d   1     -55.784-102.313 -39.915  0.00  0.00     0.000 A 
ATOM     25  C   UNL d   1     -55.959-101.804 -40.534  0.00  0.00     0.005 A 
ENDBRANCH  18  20
ENDBRANCH   1  17
BRANCH   2  26
ATOM     26  C   UNL d   1     -54.920-101.694 -44.341  0.00  0.00     0.299 C 
ATOM     27  O   UNL d   1     -54.724-102.378 -43.809  0.00  0.00    -0.264 OA
ATOM     28  N   UNL d   1     -54.715-101.713 -45.079  0.00  0.00    -0.102 N 
ENDBRANCH   2  26
TORSDOF 5
ENDMDL
