MODEL 1
REMARK VINA RESULT:      -9.1      0.000      0.000
REMARK  5 active torsions:
REMARK  status: ('A' for Active; 'I' for Inactive)
REMARK    1  A    between atoms: O_8  and  C_2 
REMARK    2  A    between atoms: C_11  and  C_5 
REMARK    3  A    between atoms: C_15  and  O_8 
REMARK    4  A    between atoms: N_14  and  C_11 
REMARK    5  A    between atoms: O_23  and  C_16 
ROOT
ATOM      1  C   UNL d   1      52.856  33.718  53.354  0.00  0.00     0.108 A 
ATOM      2  C   UNL d   1      53.284  32.184  52.882  0.00  0.00     0.161 A 
ATOM      3  C   UNL d   1      52.285  33.209  53.015  0.00  0.00     0.064 A 
ATOM      4  C   UNL d   1      52.495  32.450  52.781  0.00  0.00     0.222 A 
ATOM      5  C   UNL d   1      52.642  34.485  53.591  0.00  0.00     0.079 A 
ATOM      6  O   UNL d   1      53.638  33.463  53.458  0.00  0.00    -0.305 OA
ATOM      7  C   UNL d   1      53.850  32.688  53.218  0.00  0.00     0.126 A 
ATOM      8  C   UNL d   1      51.504  33.483  52.918  0.00  0.00     0.009 A 
ATOM      9  C   UNL d   1      51.863  34.742  53.488  0.00  0.00     0.199 A 
ATOM     10  O   UNL d   1      51.935  31.946  52.446  0.00  0.00    -0.284 OA
ATOM     11  C   UNL d   1      51.297  34.244  53.154  0.00  0.00     0.042 A 
ATOM     12  O   UNL d   1      51.660  35.509  53.727  0.00  0.00    -0.286 OA
ATOM     13  C   UNL d   1      54.624  32.426  53.318  0.00  0.00     0.029 C 
ENDROOT
BRANCH   2  14
ATOM     14  O   UNL d   1      53.492  31.423  52.647  0.00  0.00    -0.302 OA
BRANCH  14  15
ATOM     15  C   UNL d   1      53.346  30.785  53.146  0.00  0.00     0.100 A 
ATOM     16  C   UNL d   1      52.853  30.173  52.894  0.00  0.00     0.027 A 
ATOM     17  C   UNL d   1      52.706  29.538  53.385  0.00  0.00     0.026 A 
ATOM     18  C   UNL d   1      53.054  29.507  54.143  0.00  0.00     0.094 A 
ATOM     19  C   UNL d   1      53.547  30.121  54.391  0.00  0.00     0.026 A 
ATOM     20  C   UNL d   1      53.692  30.760  53.892  0.00  0.00     0.027 A 
BRANCH  18  21
ATOM     21  O   UNL d   1      52.908  28.869  54.641  0.00  0.00    -0.328 OA
ATOM     22  C   UNL d   1      53.537  28.485  55.012  0.00  0.00     0.181 C 
ENDBRANCH  18  21
ENDBRANCH  14  15
ENDBRANCH   2  14
BRANCH   5  23
ATOM     23  C   UNL d   1      53.208  34.984  53.925  0.00  0.00     0.086 C 
BRANCH  23  24
ATOM     24  N   UNL d   1      53.093  35.277  54.681  0.00  0.00    -0.300 N 
ATOM     25  C   UNL d   1      53.188  34.780  55.333  0.00  0.00     0.100 C 
ATOM     26  C   UNL d   1      52.882  36.068  54.797  0.00  0.00     0.100 C 
ENDBRANCH  23  24
ENDBRANCH   5  23
TORSDOF 5
ENDMDL
MODEL 2
REMARK VINA RESULT:      -7.4      1.467      4.435
REMARK  5 active torsions:
REMARK  status: ('A' for Active; 'I' for Inactive)
REMARK    1  A    between atoms: O_8  and  C_2 
REMARK    2  A    between atoms: C_11  and  C_5 
REMARK    3  A    between atoms: C_15  and  O_8 
REMARK    4  A    between atoms: N_14  and  C_11 
REMARK    5  A    between atoms: O_23  and  C_16 
ROOT
ATOM      1  C   UNL d   1      53.380  31.059  53.506  0.00  0.00     0.108 A 
ATOM      2  C   UNL d   1      53.685  32.665  53.208  0.00  0.00     0.161 A 
ATOM      3  C   UNL d   1      52.838  31.512  53.056  0.00  0.00     0.064 A 
ATOM      4  C   UNL d   1      52.989  32.307  52.909  0.00  0.00     0.222 A 
ATOM      5  C   UNL d   1      53.228  30.256  53.655  0.00  0.00     0.079 A 
ATOM      6  O   UNL d   1      54.072  31.404  53.806  0.00  0.00    -0.305 OA
ATOM      7  C   UNL d   1      54.222  32.215  53.653  0.00  0.00     0.126 A 
ATOM      8  C   UNL d   1      52.150  31.148  52.764  0.00  0.00     0.009 A 
ATOM      9  C   UNL d   1      52.539  29.908  53.357  0.00  0.00     0.199 A 
ATOM     10  O   UNL d   1      52.457  32.757  52.466  0.00  0.00    -0.284 OA
ATOM     11  C   UNL d   1      52.003  30.352  52.914  0.00  0.00     0.042 A 
ATOM     12  O   UNL d   1      52.396  29.108  53.511  0.00  0.00    -0.286 OA
ATOM     13  C   UNL d   1      54.905  32.567  53.947  0.00  0.00     0.029 C 
ENDROOT
BRANCH   2  14
ATOM     14  O   UNL d   1      53.833  33.460  53.059  0.00  0.00    -0.302 OA
BRANCH  14  15
ATOM     15  C   UNL d   1      53.516  34.037  53.554  0.00  0.00     0.100 A 
ATOM     16  C   UNL d   1      52.994  34.597  53.246  0.00  0.00     0.027 A 
ATOM     17  C   UNL d   1      52.677  35.171  53.734  0.00  0.00     0.026 A 
ATOM     18  C   UNL d   1      52.882  35.191  54.542  0.00  0.00     0.094 A 
ATOM     19  C   UNL d   1      53.405  34.629  54.845  0.00  0.00     0.026 A 
ATOM     20  C   UNL d   1      53.722  34.052  54.350  0.00  0.00     0.027 A 
BRANCH  18  21
ATOM     21  O   UNL d   1      52.565  35.768  55.036  0.00  0.00    -0.328 OA
ATOM     22  C   UNL d   1      52.864  36.536  55.014  0.00  0.00     0.181 C 
ENDBRANCH  18  21
ENDBRANCH  14  15
ENDBRANCH   2  14
BRANCH   5  23
ATOM     23  C   UNL d   1      53.764  29.812  54.098  0.00  0.00     0.086 C 
BRANCH  23  24
ATOM     24  N   UNL d   1      53.488  29.327  54.697  0.00  0.00    -0.300 N 
ATOM     25  C   UNL d   1      53.547  28.507  54.623  0.00  0.00     0.100 C 
ATOM     26  C   UNL d   1      53.150  29.652  55.379  0.00  0.00     0.100 C 
ENDBRANCH  23  24
ENDBRANCH   5  23
TORSDOF 5
ENDMDL
MODEL 3
REMARK VINA RESULT:      -6.8      1.711      4.072
REMARK  5 active torsions:
REMARK  status: ('A' for Active; 'I' for Inactive)
REMARK    1  A    between atoms: O_8  and  C_2 
REMARK    2  A    between atoms: C_11  and  C_5 
REMARK    3  A    between atoms: C_15  and  O_8 
REMARK    4  A    between atoms: N_14  and  C_11 
REMARK    5  A    between atoms: O_23  and  C_16 
ROOT
ATOM      1  C   UNL d   1      53.224  33.380  53.954  0.00  0.00     0.108 A 
ATOM      2  C   UNL d   1      52.298  33.858  52.660  0.00  0.00     0.161 A 
ATOM      3  C   UNL d   1      52.862  32.807  53.463  0.00  0.00     0.064 A 
ATOM      4  C   UNL d   1      52.404  33.043  52.822  0.00  0.00     0.222 A 
ATOM      5  C   UNL d   1      53.687  33.141  54.601  0.00  0.00     0.079 A 
ATOM      6  O   UNL d   1      53.125  34.189  53.801  0.00  0.00    -0.305 OA
ATOM      7  C   UNL d   1      52.657  34.426  53.147  0.00  0.00     0.126 A 
ATOM      8  C   UNL d   1      52.973  31.999  53.632  0.00  0.00     0.009 A 
ATOM      9  C   UNL d   1      53.787  32.334  54.756  0.00  0.00     0.199 A 
ATOM     10  O   UNL d   1      52.046  32.481  52.336  0.00  0.00    -0.284 OA
ATOM     11  C   UNL d   1      53.432  31.767  54.275  0.00  0.00     0.042 A 
ATOM     12  O   UNL d   1      54.250  32.107  55.404  0.00  0.00    -0.286 OA
ATOM     13  C   UNL d   1      52.553  35.227  52.987  0.00  0.00     0.029 C 
ENDROOT
BRANCH   2  14
ATOM     14  O   UNL d   1      51.839  34.091  52.018  0.00  0.00    -0.302 OA
BRANCH  14  15
ATOM     15  C   UNL d   1      51.042  34.268  52.126  0.00  0.00     0.100 A 
ATOM     16  C   UNL d   1      50.524  34.223  51.486  0.00  0.00     0.027 A 
ATOM     17  C   UNL d   1      49.732  34.397  51.588  0.00  0.00     0.026 A 
ATOM     18  C   UNL d   1      49.448  34.620  52.340  0.00  0.00     0.094 A 
ATOM     19  C   UNL d   1      49.970  34.663  52.977  0.00  0.00     0.026 A 
ATOM     20  C   UNL d   1      50.767  34.487  52.870  0.00  0.00     0.027 A 
BRANCH  18  21
ATOM     21  O   UNL d   1      48.651  34.796  52.446  0.00  0.00    -0.328 OA
ATOM     22  C   UNL d   1      48.431  35.510  52.796  0.00  0.00     0.181 C 
ENDBRANCH  18  21
ENDBRANCH  14  15
ENDBRANCH   2  14
BRANCH   5  23
ATOM     23  C   UNL d   1      54.042  33.708  55.083  0.00  0.00     0.086 C 
BRANCH  23  24
ATOM     24  N   UNL d   1      54.850  33.683  55.209  0.00  0.00    -0.300 N 
ATOM     25  C   UNL d   1      55.146  33.612  55.976  0.00  0.00     0.100 C 
ATOM     26  C   UNL d   1      55.376  33.729  54.571  0.00  0.00     0.100 C 
ENDBRANCH  23  24
ENDBRANCH   5  23
TORSDOF 5
ENDMDL
