MODEL 1
REMARK VINA RESULT:      -1.2      0.000      0.000
REMARK  6 active torsions:
REMARK  status: ('A' for Active; 'I' for Inactive)
REMARK    1  A    between atoms: N_11  and  C_3 
REMARK    2  A    between atoms: C_10  and  C_5 
REMARK    3  A    between atoms: C_17  and  N_11 
REMARK    4  A    between atoms: N_13  and  C_18 
REMARK    5  A    between atoms: C_16  and  C_17 
REMARK    6  A    between atoms: C_18  and  C_16 
ROOT
ATOM      1  N   UNL d   1      31.283  17.878 -24.037  0.00  0.00    -0.184 N 
ATOM      2  C   UNL d   1      30.726  17.262 -24.059  0.00  0.00     0.168 A 
ATOM      3  C   UNL d   1      32.042  17.720 -23.767  0.00  0.00     0.217 A 
ATOM      4  N   UNL d   1      30.314  18.764 -24.547  0.00  0.00    -0.162 NA
ATOM      5  C   UNL d   1      29.973  17.396 -24.321  0.00  0.00     0.055 A 
ATOM      6  N   UNL d   1      30.942  16.503 -23.810  0.00  0.00    -0.227 NA
ATOM      7  C   UNL d   1      32.257  16.972 -23.521  0.00  0.00     0.066 A 
ATOM      8  C   UNL d   1      29.761  18.152 -24.569  0.00  0.00     0.104 A 
ATOM      9  C   UNL d   1      31.705  16.360 -23.542  0.00  0.00     0.087 A 
ATOM     10  C   UNL d   1      33.029  16.835 -23.252  0.00  0.00     0.006 A 
ATOM     11  C   UNL d   1      29.013  18.299 -24.833  0.00  0.00     0.023 C 
ATOM     12  C   UNL d   1      31.917  15.604 -23.295  0.00  0.00     0.019 A 
ATOM     13  C   UNL d   1      33.241  16.065 -23.002  0.00  0.00     0.000 A 
ATOM     14  C   UNL d   1      32.688  15.454 -23.023  0.00  0.00     0.002 A 
ENDROOT
BRANCH   3  15
ATOM     15  N   UNL d   1      32.610  18.343 -23.744  0.00  0.00    -0.380 NA
BRANCH  15  16
ATOM     16  C   UNL d   1      33.218  18.919 -23.681  0.00  0.00     0.164 C 
BRANCH  16  17
ATOM     17  C   UNL d   1      33.187  19.597 -24.177  0.00  0.00     0.054 C 
BRANCH  17  18
ATOM     18  C   UNL d   1      33.222  20.376 -23.834  0.00  0.00     0.083 C 
BRANCH  18  19
ATOM     19  N   UNL d   1      33.099  21.053 -24.317  0.00  0.00    -0.300 N 
ATOM     20  C   UNL d   1      33.241  21.576 -23.682  0.00  0.00     0.100 C 
ATOM     21  C   UNL d   1      32.915  21.378 -25.077  0.00  0.00     0.100 C 
ENDBRANCH  18  19
ENDBRANCH  17  18
ENDBRANCH  16  17
ENDBRANCH  15  16
ENDBRANCH   3  15
BRANCH   5  22
ATOM     22  C   UNL d   1      29.420  16.784 -24.343  0.00  0.00     0.004 A 
ATOM     23  C   UNL d   1      28.844  16.746 -23.769  0.00  0.00     0.000 A 
ATOM     24  C   UNL d   1      28.291  16.134 -23.791  0.00  0.00     0.000 A 
ATOM     25  C   UNL d   1      28.323  15.570 -24.385  0.00  0.00     0.000 A 
ATOM     26  C   UNL d   1      28.908  15.617 -24.958  0.00  0.00     0.000 A 
ATOM     27  C   UNL d   1      29.461  16.229 -24.937  0.00  0.00     0.000 A 
ENDBRANCH   5  22
TORSDOF 6
ENDMDL
MODEL 2
REMARK VINA RESULT:      -1.0      2.156      5.876
REMARK  6 active torsions:
REMARK  status: ('A' for Active; 'I' for Inactive)
REMARK    1  A    between atoms: N_11  and  C_3 
REMARK    2  A    between atoms: C_10  and  C_5 
REMARK    3  A    between atoms: C_17  and  N_11 
REMARK    4  A    between atoms: N_13  and  C_18 
REMARK    5  A    between atoms: C_16  and  C_17 
REMARK    6  A    between atoms: C_18  and  C_16 
ROOT
ATOM      1  N   UNL d   1      32.979  20.500 -22.451  0.00  0.00    -0.184 N 
ATOM      2  C   UNL d   1      32.875  21.268 -22.153  0.00  0.00     0.168 A 
ATOM      3  C   UNL d   1      33.093  20.397 -23.257  0.00  0.00     0.217 A 
ATOM      4  N   UNL d   1      32.850  19.983 -21.146  0.00  0.00    -0.162 NA
ATOM      5  C   UNL d   1      32.761  21.392 -21.362  0.00  0.00     0.055 A 
ATOM      6  N   UNL d   1      32.889  21.915 -22.670  0.00  0.00    -0.227 NA
ATOM      7  C   UNL d   1      33.107  21.033 -23.768  0.00  0.00     0.066 A 
ATOM      8  C   UNL d   1      32.747  20.747 -20.851  0.00  0.00     0.104 A 
ATOM      9  C   UNL d   1      33.005  21.796 -23.473  0.00  0.00     0.087 A 
ATOM     10  C   UNL d   1      33.225  20.906 -24.579  0.00  0.00     0.006 A 
ATOM     11  C   UNL d   1      32.634  20.857 -20.060  0.00  0.00     0.023 C 
ATOM     12  C   UNL d   1      33.018  22.441 -23.985  0.00  0.00     0.019 A 
ATOM     13  C   UNL d   1      33.238  21.564 -25.095  0.00  0.00     0.000 A 
ATOM     14  C   UNL d   1      33.135  22.327 -24.800  0.00  0.00     0.002 A 
ENDROOT
BRANCH   3  15
ATOM     15  N   UNL d   1      33.199  19.618 -23.563  0.00  0.00    -0.380 NA
BRANCH  15  16
ATOM     16  C   UNL d   1      33.232  18.842 -23.883  0.00  0.00     0.164 C 
BRANCH  16  17
ATOM     17  C   UNL d   1      32.831  18.220 -23.482  0.00  0.00     0.054 C 
BRANCH  17  18
ATOM     18  C   UNL d   1      32.323  17.694 -23.919  0.00  0.00     0.083 C 
BRANCH  18  19
ATOM     19  N   UNL d   1      32.199  16.908 -23.643  0.00  0.00    -0.300 N 
ATOM     20  C   UNL d   1      31.724  16.715 -24.303  0.00  0.00     0.100 C 
ATOM     21  C   UNL d   1      32.336  16.316 -23.055  0.00  0.00     0.100 C 
ENDBRANCH  18  19
ENDBRANCH  17  18
ENDBRANCH  16  17
ENDBRANCH  15  16
ENDBRANCH   3  15
BRANCH   5  22
ATOM     22  C   UNL d   1      32.658  22.155 -21.067  0.00  0.00     0.004 A 
ATOM     23  C   UNL d   1      33.240  22.487 -20.604  0.00  0.00     0.000 A 
ATOM     24  C   UNL d   1      33.138  23.250 -20.309  0.00  0.00     0.000 A 
ATOM     25  C   UNL d   1      32.455  23.670 -20.481  0.00  0.00     0.000 A 
ATOM     26  C   UNL d   1      31.874  23.327 -20.948  0.00  0.00     0.000 A 
ATOM     27  C   UNL d   1      31.977  22.564 -21.243  0.00  0.00     0.000 A 
ENDBRANCH   5  22
TORSDOF 6
ENDMDL
MODEL 3
REMARK VINA RESULT:       1.4      2.159      3.653
REMARK  6 active torsions:
REMARK  status: ('A' for Active; 'I' for Inactive)
REMARK    1  A    between atoms: N_11  and  C_3 
REMARK    2  A    between atoms: C_10  and  C_5 
REMARK    3  A    between atoms: C_17  and  N_11 
REMARK    4  A    between atoms: N_13  and  C_18 
REMARK    5  A    between atoms: C_16  and  C_17 
REMARK    6  A    between atoms: C_18  and  C_16 
ROOT
ATOM      1  N   UNL d   1      32.949  20.038 -23.381  0.00  0.00    -0.184 N 
ATOM      2  C   UNL d   1      32.836  19.244 -23.166  0.00  0.00     0.168 A 
ATOM      3  C   UNL d   1      33.076  20.596 -22.792  0.00  0.00     0.217 A 
ATOM      4  N   UNL d   1      32.804  19.686 -24.737  0.00  0.00    -0.162 NA
ATOM      5  C   UNL d   1      32.709  18.678 -23.730  0.00  0.00     0.055 A 
ATOM      6  N   UNL d   1      32.854  19.027 -22.367  0.00  0.00    -0.227 NA
ATOM      7  C   UNL d   1      33.094  20.384 -22.004  0.00  0.00     0.066 A 
ATOM      8  C   UNL d   1      32.693  18.897 -24.524  0.00  0.00     0.104 A 
ATOM      9  C   UNL d   1      32.982  19.595 -21.791  0.00  0.00     0.087 A 
ATOM     10  C   UNL d   1      33.224  20.964 -21.426  0.00  0.00     0.006 A 
ATOM     11  C   UNL d   1      32.567  18.343 -25.096  0.00  0.00     0.023 C 
ATOM     12  C   UNL d   1      32.999  19.377 -20.997  0.00  0.00     0.019 A 
ATOM     13  C   UNL d   1      33.240  20.738 -20.621  0.00  0.00     0.000 A 
ATOM     14  C   UNL d   1      33.129  19.949 -20.408  0.00  0.00     0.002 A 
ENDROOT
BRANCH   3  15
ATOM     15  N   UNL d   1      33.191  21.403 -23.006  0.00  0.00    -0.380 NA
BRANCH  15  16
ATOM     16  C   UNL d   1      33.233  22.213 -23.224  0.00  0.00     0.164 C 
BRANCH  16  17
ATOM     17  C   UNL d   1      33.221  22.415 -24.041  0.00  0.00     0.054 C 
BRANCH  17  18
ATOM     18  C   UNL d   1      32.993  23.201 -24.279  0.00  0.00     0.083 C 
BRANCH  18  19
ATOM     19  N   UNL d   1      32.184  23.430 -24.245  0.00  0.00    -0.300 N 
ATOM     20  C   UNL d   1      32.104  23.402 -25.076  0.00  0.00     0.100 C 
ATOM     21  C   UNL d   1      31.511  23.648 -23.781  0.00  0.00     0.100 C 
ENDBRANCH  18  19
ENDBRANCH  17  18
ENDBRANCH  16  17
ENDBRANCH  15  16
ENDBRANCH   3  15
BRANCH   5  22
ATOM     22  C   UNL d   1      32.598  17.889 -23.517  0.00  0.00     0.004 A 
ATOM     23  C   UNL d   1      33.240  17.391 -23.477  0.00  0.00     0.000 A 
ATOM     24  C   UNL d   1      33.128  16.602 -23.264  0.00  0.00     0.000 A 
ATOM     25  C   UNL d   1      32.376  16.324 -23.093  0.00  0.00     0.000 A 
ATOM     26  C   UNL d   1      31.735  16.834 -23.135  0.00  0.00     0.000 A 
ATOM     27  C   UNL d   1      31.847  17.623 -23.349  0.00  0.00     0.000 A 
ENDBRANCH   5  22
TORSDOF 6
ENDMDL
MODEL 4
REMARK VINA RESULT:       1.8      2.088      4.097
REMARK  6 active torsions:
REMARK  status: ('A' for Active; 'I' for Inactive)
REMARK    1  A    between atoms: N_11  and  C_3 
REMARK    2  A    between atoms: C_10  and  C_5 
REMARK    3  A    between atoms: C_17  and  N_11 
REMARK    4  A    between atoms: N_13  and  C_18 
REMARK    5  A    between atoms: C_16  and  C_17 
REMARK    6  A    between atoms: C_18  and  C_16 
ROOT
ATOM      1  N   UNL d   1      32.939  19.557 -22.655  0.00  0.00    -0.184 N 
ATOM      2  C   UNL d   1      32.821  19.049 -23.300  0.00  0.00     0.168 A 
ATOM      3  C   UNL d   1      33.071  20.356 -22.795  0.00  0.00     0.217 A 
ATOM      4  N   UNL d   1      32.789  18.468 -21.774  0.00  0.00    -0.162 NA
ATOM      5  C   UNL d   1      32.690  18.259 -23.183  0.00  0.00     0.055 A 
ATOM      6  N   UNL d   1      32.839  19.350 -24.071  0.00  0.00    -0.227 NA
ATOM      7  C   UNL d   1      33.089  20.655 -23.554  0.00  0.00     0.066 A 
ATOM      8  C   UNL d   1      32.673  17.962 -22.415  0.00  0.00     0.104 A 
ATOM      9  C   UNL d   1      32.972  20.149 -24.195  0.00  0.00     0.087 A 
ATOM     10  C   UNL d   1      33.224  21.464 -23.674  0.00  0.00     0.006 A 
ATOM     11  C   UNL d   1      32.542  17.177 -22.285  0.00  0.00     0.023 C 
ATOM     12  C   UNL d   1      32.989  20.446 -24.963  0.00  0.00     0.019 A 
ATOM     13  C   UNL d   1      33.240  21.762 -24.455  0.00  0.00     0.000 A 
ATOM     14  C   UNL d   1      33.123  21.256 -25.096  0.00  0.00     0.002 A 
ENDROOT
BRANCH   3  15
ATOM     15  N   UNL d   1      33.191  20.876 -22.143  0.00  0.00    -0.380 NA
BRANCH  15  16
ATOM     16  C   UNL d   1      33.238  21.406 -21.493  0.00  0.00     0.164 C 
BRANCH  16  17
ATOM     17  C   UNL d   1      32.540  21.801 -21.240  0.00  0.00     0.054 C 
BRANCH  17  18
ATOM     18  C   UNL d   1      32.590  22.594 -20.932  0.00  0.00     0.083 C 
BRANCH  18  19
ATOM     19  N   UNL d   1      32.486  22.731 -20.108  0.00  0.00    -0.300 N 
ATOM     20  C   UNL d   1      31.670  22.882 -20.201  0.00  0.00     0.100 C 
ATOM     21  C   UNL d   1      32.820  22.772 -19.332  0.00  0.00     0.100 C 
ENDBRANCH  18  19
ENDBRANCH  17  18
ENDBRANCH  16  17
ENDBRANCH  15  16
ENDBRANCH   3  15
BRANCH   5  22
ATOM     22  C   UNL d   1      32.573  17.753 -23.824  0.00  0.00     0.004 A 
ATOM     23  C   UNL d   1      31.817  17.616 -24.093  0.00  0.00     0.000 A 
ATOM     24  C   UNL d   1      31.700  17.110 -24.734  0.00  0.00     0.000 A 
ATOM     25  C   UNL d   1      32.341  16.749 -25.096  0.00  0.00     0.000 A 
ATOM     26  C   UNL d   1      33.099  16.894 -24.818  0.00  0.00     0.000 A 
ATOM     27  C   UNL d   1      33.216  17.399 -24.177  0.00  0.00     0.000 A 
ENDBRANCH   5  22
TORSDOF 6
ENDMDL
