MODEL 1
REMARK VINA RESULT:      -1.6      0.000      0.000
REMARK  6 active torsions:
REMARK  status: ('A' for Active; 'I' for Inactive)
REMARK       I    between atoms: C_2  and  N_1 
REMARK    1  A    between atoms: C_4  and  N_1 
REMARK    2  A    between atoms: C_11  and  N_1 
REMARK    3  A    between atoms: C_3  and  C_2 
REMARK    4  A    between atoms: C_5  and  C_4 
REMARK       I    between atoms: N_10  and  C_5 
REMARK    5  A    between atoms: C_21  and  N_10 
REMARK    6  A    between atoms: C_13  and  C_11 
ROOT
ATOM      1  N   UNL d   1      58.555  -0.618  30.143  0.00  0.00    -0.281 N 
ATOM      2  C   UNL d   1      58.699  -1.384  29.870  0.00  0.00     0.263 C 
ATOM      3  O   UNL d   1      58.316  -2.020  30.197  0.00  0.00    -0.267 OA
ENDROOT
BRANCH   1   4
ATOM      4  C   UNL d   1      57.678  -0.199  31.170  0.00  0.00     0.181 A 
ATOM      5  C   UNL d   1      57.148   0.115  31.513  0.00  0.00     0.007 A 
ATOM      6  C   UNL d   1      56.641   0.582  31.088  0.00  0.00    -0.002 A 
ATOM      7  C   UNL d   1      56.746   0.682  30.286  0.00  0.00    -0.001 A 
ATOM      8  C   UNL d   1      57.372   0.304  29.910  0.00  0.00    -0.002 A 
ATOM      9  C   UNL d   1      57.879  -0.163  30.335  0.00  0.00     0.007 A 
BRANCH   4  10
ATOM     10  C   UNL d   1      56.906   0.113  32.325  0.00  0.00     0.282 C 
ATOM     11  N   UNL d   1      56.177   0.470  32.473  0.00  0.00    -0.210 NA
ATOM     12  O   UNL d   1      57.375  -0.162  32.942  0.00  0.00    -0.268 OA
BRANCH  11  13
ATOM     13  C   UNL d   1      55.913   0.553  33.251  0.00  0.00     0.084 A 
ATOM     14  C   UNL d   1      56.388   0.596  33.915  0.00  0.00     0.019 A 
ATOM     15  C   UNL d   1      55.908   0.675  34.561  0.00  0.00     0.002 A 
ATOM     16  C   UNL d   1      55.128   0.681  34.301  0.00  0.00     0.002 A 
ATOM     17  C   UNL d   1      55.140   0.606  33.496  0.00  0.00     0.019 A 
ENDBRANCH  11  13
ENDBRANCH   4  10
ENDBRANCH   1   4
BRANCH   1  18
ATOM     18  C   UNL d   1      58.997   0.014  29.751  0.00  0.00     0.104 C 
BRANCH  18  19
ATOM     19  C   UNL d   1      59.786   0.243  30.054  0.00  0.00     0.117 A 
ATOM     20  O   UNL d   1      60.008   0.237  30.789  0.00  0.00    -0.304 OA
ATOM     21  C   UNL d   1      60.840   0.508  30.831  0.00  0.00     0.123 A 
ATOM     22  C   UNL d   1      61.121   0.679  30.117  0.00  0.00     0.029 A 
ATOM     23  C   UNL d   1      60.458   0.518  29.572  0.00  0.00     0.028 A 
ENDBRANCH  18  19
ENDBRANCH   1  18
BRANCH   2  24
ATOM     24  C   UNL d   1      59.146  -2.032  29.283  0.00  0.00     0.076 A 
ATOM     25  C   UNL d   1      59.420  -2.464  30.015  0.00  0.00     0.107 A 
ATOM     26  N   UNL d   1      59.901  -3.179  29.952  0.00  0.00    -0.206 NA
ATOM     27  C   UNL d   1      60.111  -3.469  29.187  0.00  0.00     0.279 A 
ATOM     28  C   UNL d   1      59.855  -3.064  28.455  0.00  0.00     0.063 A 
ATOM     29  O   UNL d   1      60.596  -4.191  29.132  0.00  0.00    -0.265 OA
ATOM     30  C   UNL d   1      59.371  -2.345  28.512  0.00  0.00     0.011 A 
ENDBRANCH   2  24
TORSDOF 6
ENDMDL
