MODEL 1
REMARK VINA RESULT:      60.9      0.000      0.000
REMARK  6 active torsions:
REMARK  status: ('A' for Active; 'I' for Inactive)
REMARK    1  A    between atoms: N_8  and  S_1 
REMARK    2  A    between atoms: C_10  and  S_1 
REMARK    3  A    between atoms: C_2  and  N_6 
REMARK       I    between atoms: N_6  and  C_9 
REMARK    4  A    between atoms: C_9  and  C_15 
REMARK    5  A    between atoms: O_26  and  C_13 
REMARK    6  A    between atoms: O_27  and  C_14 
ROOT
ATOM      1  N   UNL d   1      46.089 -19.812  43.428  0.00  0.00    -0.183 NA
ATOM      2  C   UNL d   1      46.274 -19.422  44.137  0.00  0.00     0.281 C 
ATOM      3  O   UNL d   1      46.580 -19.853  44.767  0.00  0.00    -0.265 OA
ENDROOT
BRANCH   2   4
ATOM      4  C   UNL d   1      46.148 -18.623  44.193  0.00  0.00     0.058 A 
ATOM      5  C   UNL d   1      45.537 -18.262  43.784  0.00  0.00     0.005 A 
ATOM      6  C   UNL d   1      45.411 -17.451  43.843  0.00  0.00     0.013 A 
ATOM      7  C   UNL d   1      45.907 -16.991  44.321  0.00  0.00     0.104 A 
ATOM      8  C   UNL d   1      46.527 -17.349  44.737  0.00  0.00     0.013 A 
ATOM      9  C   UNL d   1      46.646 -18.164  44.672  0.00  0.00     0.005 A 
BRANCH   7  10
ATOM     10  S   UNL d   1      45.783 -16.177  44.381  0.00  0.00     0.272 S 
ATOM     11  O   UNL d   1      46.564 -16.043  44.137  0.00  0.00    -0.200 OA
ATOM     12  O   UNL d   1      45.008 -16.316  44.624  0.00  0.00    -0.200 OA
BRANCH  10  13
ATOM     13  N   UNL d   1      45.656 -15.366  44.442  0.00  0.00    -0.225 N 
ATOM     14  C   UNL d   1      46.289 -14.857  44.545  0.00  0.00     0.118 A 
ATOM     15  C   UNL d   1      46.151 -14.045  44.605  0.00  0.00     0.142 A 
ATOM     16  O   UNL d   1      45.391 -13.753  44.563  0.00  0.00    -0.300 OA
ATOM     17  C   UNL d   1      44.756 -14.266  44.460  0.00  0.00     0.142 A 
ATOM     18  C   UNL d   1      44.887 -15.070  44.400  0.00  0.00     0.118 A 
ENDBRANCH  10  13
ENDBRANCH   7  10
ENDBRANCH   2   4
BRANCH   1  19
ATOM     19  C   UNL d   1      45.777 -19.382  42.782  0.00  0.00     0.197 A 
ATOM     20  N   UNL d   1      46.195 -19.134  42.115  0.00  0.00    -0.218 NA
ATOM     21  C   UNL d   1      45.673 -18.733  41.625  0.00  0.00     0.114 A 
ATOM     22  C   UNL d   1      45.767 -18.365  40.896  0.00  0.00     0.112 A 
ATOM     23  C   UNL d   1      44.933 -18.733  41.990  0.00  0.00     0.074 A 
ATOM     24  C   UNL d   1      45.128 -17.998  40.525  0.00  0.00     0.028 A 
ATOM     25  C   UNL d   1      44.385 -18.002  40.899  0.00  0.00     0.027 A 
ATOM     26  C   UNL d   1      44.288 -18.367  41.626  0.00  0.00     0.102 A 
ATOM     27  S   UNL d   1      45.007 -19.139  42.709  0.00  0.00    -0.045 SA
BRANCH  22  28
ATOM     28  O   UNL d   1      46.514 -18.361  40.519  0.00  0.00    -0.327 OA
ATOM     29  C   UNL d   1      46.622 -18.773  39.813  0.00  0.00     0.181 C 
ENDBRANCH  22  28
BRANCH  26  30
ATOM     30  O   UNL d   1      43.542 -18.371  42.002  0.00  0.00    -0.328 OA
ATOM     31  C   UNL d   1      42.973 -18.922  41.777  0.00  0.00     0.181 C 
ENDBRANCH  26  30
ENDBRANCH   1  19
TORSDOF 6
ENDMDL
