MODEL 1
REMARK VINA RESULT:      46.3      0.000      0.000
REMARK  6 active torsions:
REMARK  status: ('A' for Active; 'I' for Inactive)
REMARK    1  A    between atoms: C_8  and  N_1 
REMARK    2  A    between atoms: C_6  and  C_3 
REMARK    3  A    between atoms: C_7  and  C_6 
REMARK       I    between atoms: N_11  and  C_7 
REMARK    4  A    between atoms: C_9  and  C_8 
REMARK       I    between atoms: N_12  and  C_9 
REMARK    5  A    between atoms: C_17  and  N_11 
REMARK    6  A    between atoms: C_16  and  N_12 
ROOT
ATOM      1  N   UNL d   1      13.229  12.556  -4.555  0.00  0.00    -0.230 N 
ATOM      2  C   UNL d   1      13.522  12.508  -5.328  0.00  0.00     0.299 A 
ATOM      3  C   UNL d   1      13.401  13.795  -5.008  0.00  0.00     0.095 A 
ATOM      4  C   UNL d   1      13.155  13.352  -4.356  0.00  0.00     0.274 A 
ATOM      5  S   UNL d   1      13.625  13.279  -5.599  0.00  0.00    -0.022 SA
ATOM      6  O   UNL d   1      13.678  11.813  -5.742  0.00  0.00    -0.259 OA
ATOM      7  O   UNL d   1      12.882  13.651  -3.635  0.00  0.00    -0.266 OA
ENDROOT
BRANCH   1   8
ATOM      8  C   UNL d   1      13.044  11.913  -4.067  0.00  0.00     0.149 C 
BRANCH   8   9
ATOM      9  C   UNL d   1      13.312  11.900  -3.287  0.00  0.00     0.297 C 
ATOM     10  N   UNL d   1      14.108  12.003  -3.127  0.00  0.00    -0.207 NA
ATOM     11  O   UNL d   1      12.774  11.782  -2.668  0.00  0.00    -0.264 OA
BRANCH  10  12
ATOM     12  C   UNL d   1      14.378  11.989  -2.344  0.00  0.00     0.085 A 
ATOM     13  C   UNL d   1      13.860  12.167  -1.732  0.00  0.00     0.019 A 
ATOM     14  C   UNL d   1      14.126  12.154  -0.953  0.00  0.00     0.002 A 
ATOM     15  C   UNL d   1      14.915  11.963  -0.790  0.00  0.00     0.000 A 
ATOM     16  C   UNL d   1      15.434  11.784  -1.414  0.00  0.00     0.002 A 
ATOM     17  C   UNL d   1      15.186  11.949  -0.015  0.00  0.00     0.000 C 
ATOM     18  C   UNL d   1      15.164  11.798  -2.189  0.00  0.00     0.019 A 
ENDBRANCH  10  12
ENDBRANCH   8   9
ENDBRANCH   1   8
BRANCH   3  19
ATOM     19  C   UNL d   1      13.416  14.619  -5.044  0.00  0.00     0.074 C 
BRANCH  19  20
ATOM     20  C   UNL d   1      13.605  15.055  -4.373  0.00  0.00     0.280 C 
ATOM     21  N   UNL d   1      14.379  15.276  -4.224  0.00  0.00    -0.208 NA
ATOM     22  O   UNL d   1      13.012  15.274  -3.839  0.00  0.00    -0.265 OA
BRANCH  21  23
ATOM     23  C   UNL d   1      14.565  15.711  -3.553  0.00  0.00     0.085 A 
ATOM     24  C   UNL d   1      14.235  15.509  -2.829  0.00  0.00     0.020 A 
ATOM     25  C   UNL d   1      14.423  15.947  -2.155  0.00  0.00     0.013 A 
ATOM     26  C   UNL d   1      14.937  16.582  -2.207  0.00  0.00     0.058 A 
ATOM     27  C   UNL d   1      15.273  16.789  -2.938  0.00  0.00     0.013 A 
ATOM     28 CL   UNL d   1      15.126  17.021  -1.534  0.00  0.00    -0.082 Cl
ATOM     29  C   UNL d   1      15.084  16.350  -3.611  0.00  0.00     0.020 A 
ENDBRANCH  21  23
ENDBRANCH  19  20
ENDBRANCH   3  19
TORSDOF 6
ENDMDL
