MODEL 1
REMARK VINA RESULT:     -10.1      0.000      0.000
REMARK  3 active torsions:
REMARK  status: ('A' for Active; 'I' for Inactive)
REMARK    1  A    between atoms: C_2  and  N_1 
REMARK    2  A    between atoms: N_8  and  C_3 
REMARK       I    between atoms: C_9  and  N_8 
REMARK    3  A    between atoms: C_10  and  C_9 
ROOT
ATOM      1  N   UNL d   1      53.236  33.310  53.856  0.00  0.00    -0.189 N 
ATOM      2  C   UNL d   1      53.582  32.559  53.844  0.00  0.00     0.171 A 
ATOM      3  N   UNL d   1      53.688  33.796  54.338  0.00  0.00    -0.162 NA
ATOM      4  C   UNL d   1      54.249  32.602  54.327  0.00  0.00     0.060 A 
ATOM      5  C   UNL d   1      54.319  33.347  54.629  0.00  0.00     0.105 A 
ATOM      6  C   UNL d   1      54.918  33.613  55.139  0.00  0.00     0.023 C 
ENDROOT
BRANCH   1   7
ATOM      7  C   UNL d   1      52.549  33.561  53.459  0.00  0.00     0.197 A 
ATOM      8  N   UNL d   1      51.810  33.577  53.823  0.00  0.00    -0.221 NA
ATOM      9  C   UNL d   1      51.261  33.857  53.260  0.00  0.00     0.090 A 
ATOM     10  C   UNL d   1      50.462  33.992  53.286  0.00  0.00     0.020 A 
ATOM     11  C   UNL d   1      51.686  34.003  52.568  0.00  0.00     0.050 A 
ATOM     12  C   UNL d   1      50.060  34.277  52.625  0.00  0.00     0.002 A 
ATOM     13  C   UNL d   1      50.481  34.420  51.945  0.00  0.00     0.001 A 
ATOM     14  C   UNL d   1      51.292  34.286  51.908  0.00  0.00     0.008 A 
ATOM     15  S   UNL d   1      52.474  33.819  52.701  0.00  0.00    -0.047 SA
ENDBRANCH   1   7
BRANCH   2  16
ATOM     16  N   UNL d   1      53.313  31.895  53.431  0.00  0.00    -0.189 NA
ATOM     17  C   UNL d   1      53.458  31.153  53.734  0.00  0.00     0.281 C 
ATOM     18  O   UNL d   1      53.869  31.069  54.443  0.00  0.00    -0.265 OA
BRANCH  17  19
ATOM     19  C   UNL d   1      53.192  30.486  53.324  0.00  0.00     0.058 A 
ATOM     20  C   UNL d   1      52.923  29.809  52.913  0.00  0.00     0.005 A 
ATOM     21  C   UNL d   1      53.212  29.743  53.684  0.00  0.00     0.005 A 
ENDBRANCH  17  19
ENDBRANCH   2  16
TORSDOF 3
ENDMDL
MODEL 2
REMARK VINA RESULT:      -9.6      1.202      3.751
REMARK  3 active torsions:
REMARK  status: ('A' for Active; 'I' for Inactive)
REMARK    1  A    between atoms: C_2  and  N_1 
REMARK    2  A    between atoms: N_8  and  C_3 
REMARK       I    between atoms: C_9  and  N_8 
REMARK    3  A    between atoms: C_10  and  C_9 
ROOT
ATOM      1  N   UNL d   1      53.382  31.736  53.544  0.00  0.00    -0.189 N 
ATOM      2  C   UNL d   1      52.741  31.904  53.047  0.00  0.00     0.171 A 
ATOM      3  N   UNL d   1      53.467  30.921  53.589  0.00  0.00    -0.162 NA
ATOM      4  C   UNL d   1      52.444  31.177  52.796  0.00  0.00     0.060 A 
ATOM      5  C   UNL d   1      52.878  30.579  53.121  0.00  0.00     0.105 A 
ATOM      6  C   UNL d   1      52.754  29.766  53.002  0.00  0.00     0.023 C 
ENDROOT
BRANCH   1   7
ATOM      7  C   UNL d   1      53.873  32.276  53.942  0.00  0.00     0.197 A 
ATOM      8  N   UNL d   1      53.784  32.445  54.744  0.00  0.00    -0.221 NA
ATOM      9  C   UNL d   1      54.369  33.005  54.946  0.00  0.00     0.090 A 
ATOM     10  C   UNL d   1      54.560  33.379  55.639  0.00  0.00     0.020 A 
ATOM     11  C   UNL d   1      54.797  33.160  54.257  0.00  0.00     0.050 A 
ATOM     12  C   UNL d   1      55.182  33.919  55.671  0.00  0.00     0.002 A 
ATOM     13  C   UNL d   1      55.602  34.070  54.992  0.00  0.00     0.001 A 
ATOM     14  C   UNL d   1      55.416  33.695  54.282  0.00  0.00     0.008 A 
ATOM     15  S   UNL d   1      54.485  32.708  53.648  0.00  0.00    -0.047 SA
ENDBRANCH   1   7
BRANCH   2  16
ATOM     16  N   UNL d   1      52.455  32.652  52.843  0.00  0.00    -0.189 NA
ATOM     17  C   UNL d   1      51.651  32.788  52.857  0.00  0.00     0.281 C 
ATOM     18  O   UNL d   1      51.135  32.184  53.073  0.00  0.00    -0.265 OA
BRANCH  17  19
ATOM     19  C   UNL d   1      51.360  33.534  52.653  0.00  0.00     0.058 A 
ATOM     20  C   UNL d   1      51.063  34.289  52.450  0.00  0.00     0.005 A 
ATOM     21  C   UNL d   1      50.728  33.861  53.072  0.00  0.00     0.005 A 
ENDBRANCH  17  19
ENDBRANCH   2  16
TORSDOF 3
ENDMDL
MODEL 3
REMARK VINA RESULT:      -9.5      0.772      2.452
REMARK  3 active torsions:
REMARK  status: ('A' for Active; 'I' for Inactive)
REMARK    1  A    between atoms: C_2  and  N_1 
REMARK    2  A    between atoms: N_8  and  C_3 
REMARK       I    between atoms: C_9  and  N_8 
REMARK    3  A    between atoms: C_10  and  C_9 
ROOT
ATOM      1  N   UNL d   1      52.684  31.952  53.225  0.00  0.00    -0.189 N 
ATOM      2  C   UNL d   1      53.424  32.023  53.590  0.00  0.00     0.171 A 
ATOM      3  N   UNL d   1      52.550  31.159  53.065  0.00  0.00    -0.162 NA
ATOM      4  C   UNL d   1      53.730  31.259  53.647  0.00  0.00     0.060 A 
ATOM      5  C   UNL d   1      53.206  30.733  53.331  0.00  0.00     0.105 A 
ATOM      6  C   UNL d   1      53.311  29.910  53.284  0.00  0.00     0.023 C 
ENDROOT
BRANCH   1   7
ATOM      7  C   UNL d   1      52.148  32.560  53.039  0.00  0.00     0.197 A 
ATOM      8  N   UNL d   1      52.241  33.043  52.377  0.00  0.00    -0.221 NA
ATOM      9  C   UNL d   1      51.603  33.582  52.371  0.00  0.00     0.090 A 
ATOM     10  C   UNL d   1      51.393  34.183  51.870  0.00  0.00     0.020 A 
ATOM     11  C   UNL d   1      51.141  33.409  53.033  0.00  0.00     0.050 A 
ATOM     12  C   UNL d   1      50.715  34.632  52.010  0.00  0.00     0.002 A 
ATOM     13  C   UNL d   1      50.262  34.460  52.662  0.00  0.00     0.001 A 
ATOM     14  C   UNL d   1      50.467  33.851  53.177  0.00  0.00     0.008 A 
ATOM     15  S   UNL d   1      51.484  32.781  53.434  0.00  0.00    -0.047 SA
ENDBRANCH   1   7
BRANCH   2  16
ATOM     16  N   UNL d   1      53.785  32.721  53.848  0.00  0.00    -0.189 NA
ATOM     17  C   UNL d   1      54.192  32.720  54.554  0.00  0.00     0.281 C 
ATOM     18  O   UNL d   1      54.240  32.031  55.001  0.00  0.00    -0.265 OA
BRANCH  17  19
ATOM     19  C   UNL d   1      54.555  33.415  54.815  0.00  0.00     0.058 A 
ATOM     20  C   UNL d   1      54.923  34.116  55.084  0.00  0.00     0.005 A 
ATOM     21  C   UNL d   1      54.818  33.477  55.596  0.00  0.00     0.005 A 
ENDBRANCH  17  19
ENDBRANCH   2  16
TORSDOF 3
ENDMDL
MODEL 4
REMARK VINA RESULT:      -9.0      1.248      3.533
REMARK  3 active torsions:
REMARK  status: ('A' for Active; 'I' for Inactive)
REMARK    1  A    between atoms: C_2  and  N_1 
REMARK    2  A    between atoms: N_8  and  C_3 
REMARK       I    between atoms: C_9  and  N_8 
REMARK    3  A    between atoms: C_10  and  C_9 
ROOT
ATOM      1  N   UNL d   1      53.879  32.666  54.325  0.00  0.00    -0.189 N 
ATOM      2  C   UNL d   1      53.430  33.359  54.264  0.00  0.00     0.171 A 
ATOM      3  N   UNL d   1      54.591  32.850  54.686  0.00  0.00    -0.162 NA
ATOM      4  C   UNL d   1      53.886  33.962  54.595  0.00  0.00     0.060 A 
ATOM      5  C   UNL d   1      54.589  33.660  54.852  0.00  0.00     0.105 A 
ATOM      6  C   UNL d   1      55.199  34.089  55.218  0.00  0.00     0.023 C 
ENDROOT
BRANCH   1   7
ATOM      7  C   UNL d   1      53.671  31.902  54.072  0.00  0.00     0.197 A 
ATOM      8  N   UNL d   1      53.466  31.303  54.601  0.00  0.00    -0.221 NA
ATOM      9  C   UNL d   1      53.294  30.621  54.151  0.00  0.00     0.090 A 
ATOM     10  C   UNL d   1      53.064  29.870  54.351  0.00  0.00     0.020 A 
ATOM     11  C   UNL d   1      53.400  30.828  53.359  0.00  0.00     0.050 A 
ATOM     12  C   UNL d   1      52.932  29.300  53.770  0.00  0.00     0.002 A 
ATOM     13  C   UNL d   1      53.037  29.506  52.991  0.00  0.00     0.001 A 
ATOM     14  C   UNL d   1      53.270  30.266  52.777  0.00  0.00     0.008 A 
ATOM     15  S   UNL d   1      53.631  31.614  53.322  0.00  0.00    -0.047 SA
ENDBRANCH   1   7
BRANCH   2  16
ATOM     16  N   UNL d   1      52.675  33.435  53.936  0.00  0.00    -0.189 NA
ATOM     17  C   UNL d   1      52.441  34.156  53.638  0.00  0.00     0.281 C 
ATOM     18  O   UNL d   1      52.954  34.800  53.666  0.00  0.00    -0.265 OA
BRANCH  17  19
ATOM     19  C   UNL d   1      51.686  34.237  53.310  0.00  0.00     0.058 A 
ATOM     20  C   UNL d   1      50.926  34.319  52.973  0.00  0.00     0.005 A 
ATOM     21  C   UNL d   1      51.600  34.478  52.525  0.00  0.00     0.005 A 
ENDBRANCH  17  19
ENDBRANCH   2  16
TORSDOF 3
ENDMDL
MODEL 5
REMARK VINA RESULT:      -8.1      1.013      3.145
REMARK  3 active torsions:
REMARK  status: ('A' for Active; 'I' for Inactive)
REMARK    1  A    between atoms: C_2  and  N_1 
REMARK    2  A    between atoms: N_8  and  C_3 
REMARK       I    between atoms: C_9  and  N_8 
REMARK    3  A    between atoms: C_10  and  C_9 
ROOT
ATOM      1  N   UNL d   1      52.520  33.322  53.458  0.00  0.00    -0.189 N 
ATOM      2  C   UNL d   1      52.302  32.656  53.018  0.00  0.00     0.171 A 
ATOM      3  N   UNL d   1      51.923  33.880  53.397  0.00  0.00    -0.162 NA
ATOM      4  C   UNL d   1      51.563  32.824  52.692  0.00  0.00     0.060 A 
ATOM      5  C   UNL d   1      51.328  33.563  52.918  0.00  0.00     0.105 A 
ATOM      6  C   UNL d   1      50.616  33.934  52.704  0.00  0.00     0.023 C 
ENDROOT
BRANCH   1   7
ATOM      7  C   UNL d   1      53.218  33.436  53.897  0.00  0.00     0.197 A 
ATOM      8  N   UNL d   1      53.238  33.373  54.718  0.00  0.00    -0.221 NA
ATOM      9  C   UNL d   1      54.023  33.522  54.961  0.00  0.00     0.090 A 
ATOM     10  C   UNL d   1      54.383  33.540  55.686  0.00  0.00     0.020 A 
ATOM     11  C   UNL d   1      54.457  33.673  54.275  0.00  0.00     0.050 A 
ATOM     12  C   UNL d   1      55.188  33.708  55.754  0.00  0.00     0.002 A 
ATOM     13  C   UNL d   1      55.613  33.856  55.078  0.00  0.00     0.001 A 
ATOM     14  C   UNL d   1      55.256  33.840  54.336  0.00  0.00     0.008 A 
ATOM     15  S   UNL d   1      53.954  33.617  53.629  0.00  0.00    -0.047 SA
ENDBRANCH   1   7
BRANCH   2  16
ATOM     16  N   UNL d   1      52.737  31.959  52.923  0.00  0.00    -0.189 NA
ATOM     17  C   UNL d   1      52.359  31.242  52.999  0.00  0.00     0.281 C 
ATOM     18  O   UNL d   1      51.554  31.215  53.169  0.00  0.00    -0.265 OA
BRANCH  17  19
ATOM     19  C   UNL d   1      52.790  30.542  52.904  0.00  0.00     0.058 A 
ATOM     20  C   UNL d   1      53.223  29.833  52.812  0.00  0.00     0.005 A 
ATOM     21  C   UNL d   1      52.602  29.876  53.354  0.00  0.00     0.005 A 
ENDBRANCH  17  19
ENDBRANCH   2  16
TORSDOF 3
ENDMDL
MODEL 6
REMARK VINA RESULT:      -7.9      1.203      3.697
REMARK  3 active torsions:
REMARK  status: ('A' for Active; 'I' for Inactive)
REMARK    1  A    between atoms: C_2  and  N_1 
REMARK    2  A    between atoms: N_8  and  C_3 
REMARK       I    between atoms: C_9  and  N_8 
REMARK    3  A    between atoms: C_10  and  C_9 
ROOT
ATOM      1  N   UNL d   1      52.505  32.744  53.280  0.00  0.00    -0.189 N 
ATOM      2  C   UNL d   1      52.985  33.377  53.511  0.00  0.00     0.171 A 
ATOM      3  N   UNL d   1      51.799  33.045  52.993  0.00  0.00    -0.162 NA
ATOM      4  C   UNL d   1      52.554  34.064  53.359  0.00  0.00     0.060 A 
ATOM      5  C   UNL d   1      51.836  33.869  53.045  0.00  0.00     0.105 A 
ATOM      6  C   UNL d   1      51.243  34.405  52.817  0.00  0.00     0.023 C 
ENDROOT
BRANCH   1   7
ATOM      7  C   UNL d   1      52.681  31.932  53.319  0.00  0.00     0.197 A 
ATOM      8  N   UNL d   1      52.702  31.518  54.032  0.00  0.00    -0.221 NA
ATOM      9  C   UNL d   1      52.894  30.725  53.855  0.00  0.00     0.090 A 
ATOM     10  C   UNL d   1      52.995  30.065  54.313  0.00  0.00     0.020 A 
ATOM     11  C   UNL d   1      52.984  30.682  53.035  0.00  0.00     0.050 A 
ATOM     12  C   UNL d   1      53.188  29.339  53.973  0.00  0.00     0.002 A 
ATOM     13  C   UNL d   1      53.276  29.299  53.166  0.00  0.00     0.001 A 
ATOM     14  C   UNL d   1      53.176  29.964  52.691  0.00  0.00     0.008 A 
ATOM     15  S   UNL d   1      52.851  31.426  52.717  0.00  0.00    -0.047 SA
ENDBRANCH   1   7
BRANCH   2  16
ATOM     16  N   UNL d   1      53.746  33.333  53.833  0.00  0.00    -0.189 NA
ATOM     17  C   UNL d   1      53.980  33.891  54.378  0.00  0.00     0.281 C 
ATOM     18  O   UNL d   1      53.462  34.490  54.604  0.00  0.00    -0.265 OA
BRANCH  17  19
ATOM     19  C   UNL d   1      54.740  33.850  54.702  0.00  0.00     0.058 A 
ATOM     20  C   UNL d   1      55.506  33.809  55.033  0.00  0.00     0.005 A 
ATOM     21  C   UNL d   1      54.839  33.794  55.520  0.00  0.00     0.005 A 
ENDBRANCH  17  19
ENDBRANCH   2  16
TORSDOF 3
ENDMDL
