MODEL 1
REMARK VINA RESULT:      -2.8      0.000      0.000
REMARK  5 active torsions:
REMARK  status: ('A' for Active; 'I' for Inactive)
REMARK    1  A    between atoms: C_4  and  S_1 
REMARK    2  A    between atoms: N_5  and  S_1 
REMARK       I    between atoms: N_2  and  C_3 
REMARK    3  A    between atoms: C_3  and  C_12 
REMARK    4  A    between atoms: C_19  and  N_5 
REMARK    5  A    between atoms: C_20  and  C_19 
ROOT
ATOM      1  C   UNL d   1      32.513  17.868 -23.634  0.00  0.00     0.057 A 
ATOM      2  C   UNL d   1      32.412  18.012 -22.826  0.00  0.00     0.005 A 
ATOM      3  C   UNL d   1      32.843  18.444 -24.118  0.00  0.00     0.005 A 
ATOM      4  C   UNL d   1      32.975  19.314 -22.989  0.00  0.00     0.020 A 
ATOM      5  C   UNL d   1      32.643  18.731 -22.511  0.00  0.00     0.002 A 
ATOM      6  C   UNL d   1      33.074  19.166 -23.794  0.00  0.00     0.002 A 
ENDROOT
BRANCH   4   7
ATOM      7  C   UNL d   1      33.206  20.037 -22.669  0.00  0.00     0.112 C 
BRANCH   7   8
ATOM      8  N   UNL d   1      32.869  20.299 -21.957  0.00  0.00    -0.157 NA
BRANCH   8   9
ATOM      9  S   UNL d   1      32.881  21.110 -21.770  0.00  0.00     0.285 S 
ATOM     10  O   UNL d   1      33.235  21.278 -22.503  0.00  0.00    -0.198 OA
ATOM     11  O   UNL d   1      32.524  20.944 -21.031  0.00  0.00    -0.198 OA
BRANCH   9  12
ATOM     12  C   UNL d   1      32.891  21.923 -21.578  0.00  0.00     0.106 A 
ATOM     13  C   UNL d   1      33.018  22.163 -20.808  0.00  0.00     0.024 A 
ATOM     14  C   UNL d   1      33.027  22.965 -20.622  0.00  0.00     0.059 A 
ATOM     15 CL   UNL d   1      33.155  23.215 -19.844  0.00  0.00    -0.082 Cl
ATOM     16  C   UNL d   1      32.908  23.530 -21.212  0.00  0.00     0.011 A 
ATOM     17  C   UNL d   1      32.780  23.282 -21.984  0.00  0.00     0.002 A 
ATOM     18  C   UNL d   1      32.771  22.476 -22.172  0.00  0.00     0.013 A 
ENDBRANCH   9  12
ENDBRANCH   8   9
ENDBRANCH   7   8
ENDBRANCH   4   7
BRANCH   1  19
ATOM     19  C   UNL d   1      32.279  17.135 -23.964  0.00  0.00     0.265 C 
ATOM     20  N   UNL d   1      31.493  17.022 -24.202  0.00  0.00    -0.268 N 
ATOM     21  C   UNL d   1      30.943  17.632 -24.114  0.00  0.00     0.108 A 
ATOM     22  C   UNL d   1      31.265  16.298 -24.528  0.00  0.00     0.108 A 
ATOM     23  C   UNL d   1      30.153  17.516 -24.355  0.00  0.00     0.118 A 
ATOM     24  C   UNL d   1      29.600  18.128 -24.266  0.00  0.00     0.028 C 
ATOM     25  O   UNL d   1      29.926  16.792 -24.680  0.00  0.00    -0.304 OA
ATOM     26  C   UNL d   1      30.474  16.178 -24.770  0.00  0.00     0.118 A 
ATOM     27  C   UNL d   1      30.241  15.453 -25.097  0.00  0.00     0.028 C 
ATOM     28  O   UNL d   1      32.835  16.526 -24.051  0.00  0.00    -0.267 OA
ENDBRANCH   1  19
TORSDOF 5
ENDMDL
MODEL 2
REMARK VINA RESULT:       0.0      2.277      6.102
REMARK  5 active torsions:
REMARK  status: ('A' for Active; 'I' for Inactive)
REMARK    1  A    between atoms: C_4  and  S_1 
REMARK    2  A    between atoms: N_5  and  S_1 
REMARK       I    between atoms: N_2  and  C_3 
REMARK    3  A    between atoms: C_3  and  C_12 
REMARK    4  A    between atoms: C_19  and  N_5 
REMARK    5  A    between atoms: C_20  and  C_19 
ROOT
ATOM      1  C   UNL d   1      32.461  22.046 -21.408  0.00  0.00     0.057 A 
ATOM      2  C   UNL d   1      33.172  21.932 -21.815  0.00  0.00     0.005 A 
ATOM      3  C   UNL d   1      31.828  21.536 -21.532  0.00  0.00     0.005 A 
ATOM      4  C   UNL d   1      32.611  20.794 -22.473  0.00  0.00     0.020 A 
ATOM      5  C   UNL d   1      33.241  21.309 -22.343  0.00  0.00     0.002 A 
ATOM      6  C   UNL d   1      31.905  20.912 -22.064  0.00  0.00     0.002 A 
ENDROOT
BRANCH   4   7
ATOM      7  C   UNL d   1      32.684  20.169 -23.004  0.00  0.00     0.112 C 
BRANCH   7   8
ATOM      8  N   UNL d   1      32.983  19.440 -22.743  0.00  0.00    -0.157 NA
BRANCH   8   9
ATOM      9  S   UNL d   1      32.788  18.744 -23.155  0.00  0.00     0.285 S 
ATOM     10  O   UNL d   1      32.950  19.121 -23.878  0.00  0.00    -0.198 OA
ATOM     11  O   UNL d   1      32.623  18.361 -22.429  0.00  0.00    -0.198 OA
BRANCH   9  12
ATOM     12  C   UNL d   1      32.590  18.043 -23.565  0.00  0.00     0.106 A 
ATOM     13  C   UNL d   1      31.808  17.851 -23.700  0.00  0.00     0.024 A 
ATOM     14  C   UNL d   1      31.617  17.160 -24.103  0.00  0.00     0.059 A 
ATOM     15 CL   UNL d   1      30.827  16.959 -24.243  0.00  0.00    -0.082 Cl
ATOM     16  C   UNL d   1      32.213  16.657 -24.373  0.00  0.00     0.011 A 
ATOM     17  C   UNL d   1      32.997  16.856 -24.234  0.00  0.00     0.002 A 
ATOM     18  C   UNL d   1      33.191  17.550 -23.829  0.00  0.00     0.013 A 
ENDBRANCH   9  12
ENDBRANCH   8   9
ENDBRANCH   7   8
ENDBRANCH   4   7
BRANCH   1  19
ATOM     19  C   UNL d   1      32.382  22.680 -20.867  0.00  0.00     0.265 C 
ATOM     20  N   UNL d   1      32.556  22.561 -20.065  0.00  0.00    -0.268 N 
ATOM     21  C   UNL d   1      32.807  21.819 -19.801  0.00  0.00     0.108 A 
ATOM     22  C   UNL d   1      32.478  23.189 -19.533  0.00  0.00     0.108 A 
ATOM     23  C   UNL d   1      32.981  21.703 -18.995  0.00  0.00     0.118 A 
ATOM     24  C   UNL d   1      33.233  20.959 -18.729  0.00  0.00     0.028 C 
ATOM     25  O   UNL d   1      32.902  22.330 -18.464  0.00  0.00    -0.304 OA
ATOM     26  C   UNL d   1      32.652  23.075 -18.723  0.00  0.00     0.118 A 
ATOM     27  C   UNL d   1      32.574  23.702 -18.187  0.00  0.00     0.028 C 
ATOM     28  O   UNL d   1      32.130  23.423 -21.136  0.00  0.00    -0.267 OA
ENDBRANCH   1  19
TORSDOF 5
ENDMDL
