MODEL 1
REMARK VINA RESULT:      -0.6      0.000      0.000
REMARK  6 active torsions:
REMARK  status: ('A' for Active; 'I' for Inactive)
REMARK    1  A    between atoms: C_16  and  N_1 
REMARK    2  A    between atoms: C_11  and  C_2 
REMARK    3  A    between atoms: S_15  and  C_3 
REMARK    4  A    between atoms: C_8  and  C_11 
REMARK    5  A    between atoms: C_13  and  C_17 
REMARK       I    between atoms: N_14  and  C_13 
REMARK    6  A    between atoms: C_17  and  S_15 
ROOT
ATOM      1  N   UNL d   1     -41.406-122.411 -51.557  0.00  0.00    -0.269 N 
ATOM      2  C   UNL d   1     -41.461-122.853 -50.864  0.00  0.00     0.172 A 
ATOM      3  C   UNL d   1     -41.462-122.927 -52.181  0.00  0.00     0.201 A 
ATOM      4  N   UNL d   1     -41.550-123.639 -51.075  0.00  0.00    -0.128 NA
ATOM      5  N   UNL d   1     -41.551-123.685 -51.900  0.00  0.00    -0.121 NA
ENDROOT
BRANCH   2   6
ATOM      6  C   UNL d   1     -41.422-122.483 -50.140  0.00  0.00     0.059 C 
BRANCH   6   7
ATOM      7  C   UNL d   1     -41.762-122.841 -49.481  0.00  0.00     0.094 A 
ATOM      8  C   UNL d   1     -42.580-122.891 -49.416  0.00  0.00     0.082 A 
ATOM      9  C   UNL d   1     -42.919-123.251 -48.753  0.00  0.00     0.285 A 
ATOM     10  O   UNL d   1     -43.757-123.306 -48.682  0.00  0.00    -0.265 OA
ATOM     11  N   UNL d   1     -42.421-123.560 -48.158  0.00  0.00    -0.152 NA
ATOM     12  C   UNL d   1     -41.609-123.508 -48.226  0.00  0.00     0.371 A 
ATOM     13  N   UNL d   1     -41.274-123.144 -48.896  0.00  0.00    -0.191 NA
ATOM     14  O   UNL d   1     -41.126-123.817 -47.630  0.00  0.00    -0.242 OA
ENDBRANCH   6   7
ENDBRANCH   2   6
BRANCH   1  15
ATOM     15  C   UNL d   1     -41.312-121.600 -51.638  0.00  0.00     0.067 A 
ATOM     16  C   UNL d   1     -41.219-121.128 -50.962  0.00  0.00     0.018 A 
ATOM     17  C   UNL d   1     -41.123-120.304 -51.042  0.00  0.00     0.002 A 
ATOM     18  C   UNL d   1     -41.123-119.965 -51.795  0.00  0.00     0.000 A 
ATOM     19  C   UNL d   1     -41.216-120.441 -52.467  0.00  0.00     0.002 A 
ATOM     20  C   UNL d   1     -41.310-121.256 -52.385  0.00  0.00     0.018 A 
ENDBRANCH   1  15
BRANCH   3  21
ATOM     21  S   UNL d   1     -41.433-122.705 -52.995  0.00  0.00    -0.043 SA
BRANCH  21  22
ATOM     22  C   UNL d   1     -41.939-123.081 -53.543  0.00  0.00     0.099 C 
BRANCH  22  23
ATOM     23  C   UNL d   1     -41.698-123.163 -54.331  0.00  0.00     0.271 C 
ATOM     24  N   UNL d   1     -42.033-122.677 -54.914  0.00  0.00    -0.272 N 
ATOM     25  C   UNL d   1     -42.608-122.075 -54.867  0.00  0.00     0.083 A 
ATOM     26  C   UNL d   1     -41.799-122.750 -55.705  0.00  0.00     0.083 A 
ATOM     27  C   UNL d   1     -42.724-121.781 -55.629  0.00  0.00     0.021 A 
ATOM     28  C   UNL d   1     -42.225-122.199 -56.144  0.00  0.00     0.021 A 
ATOM     29  O   UNL d   1     -41.126-123.726 -54.543  0.00  0.00    -0.266 OA
ENDBRANCH  22  23
ENDBRANCH  21  22
ENDBRANCH   3  21
TORSDOF 6
ENDMDL
