MODEL 1
REMARK VINA RESULT:      38.2      0.000      0.000
REMARK  3 active torsions:
REMARK  status: ('A' for Active; 'I' for Inactive)
REMARK       I    between atoms: C_6  and  N_9 
REMARK    1  A    between atoms: C_7  and  C_6 
REMARK    2  A    between atoms: N_9  and  C_17 
REMARK    3  A    between atoms: C_17  and  C_16 
ROOT
ATOM      1  N   UNL d   1      15.610  16.283  -0.633  0.00  0.00    -0.304 N 
ATOM      2  C   UNL d   1      15.330  16.663  -1.305  0.00  0.00     0.064 A 
ATOM      3  C   UNL d   1      15.387  15.492  -0.672  0.00  0.00     0.064 A 
ATOM      4  C   UNL d   1      14.967  15.388  -1.373  0.00  0.00     0.018 A 
ATOM      5  C   UNL d   1      14.933  16.106  -1.761  0.00  0.00     0.019 A 
ATOM      6  C   UNL d   1      15.512  14.860  -0.161  0.00  0.00     0.018 A 
ATOM      7  C   UNL d   1      14.667  14.635  -1.567  0.00  0.00     0.003 A 
ATOM      8  C   UNL d   1      14.792  14.000  -1.056  0.00  0.00     0.019 A 
ATOM      9  C   UNL d   1      15.217  14.113  -0.349  0.00  0.00     0.003 A 
ATOM     10  C   UNL d   1      16.041  16.630  -0.022  0.00  0.00     0.099 C 
ATOM     11  C   UNL d   1      15.428  17.459  -1.491  0.00  0.00     0.019 C 
ENDROOT
BRANCH   8  12
ATOM     12  C   UNL d   1      14.497  13.255  -1.245  0.00  0.00     0.102 C 
BRANCH  12  13
ATOM     13  N   UNL d   1      14.061  13.142  -1.925  0.00  0.00    -0.206 NA
ATOM     14  C   UNL d   1      14.116  12.446  -2.350  0.00  0.00     0.285 C 
ATOM     15  O   UNL d   1      14.619  11.848  -2.088  0.00  0.00    -0.265 OA
BRANCH  14  16
ATOM     16  C   UNL d   1      13.676  12.330  -3.038  0.00  0.00     0.087 A 
ATOM     17  S   UNL d   1      13.764  12.734  -3.752  0.00  0.00    -0.082 SA
ATOM     18  C   UNL d   1      13.209  12.436  -4.280  0.00  0.00     0.036 A 
ATOM     19  C   UNL d   1      12.769  11.845  -3.901  0.00  0.00     0.008 A 
ATOM     20  C   UNL d   1      13.062  11.783  -3.132  0.00  0.00     0.012 A 
ENDBRANCH  14  16
ENDBRANCH  12  13
ENDBRANCH   8  12
TORSDOF 3
ENDMDL
