MODEL 1
REMARK VINA RESULT:      12.9      0.000      0.000
REMARK  3 active torsions:
REMARK  status: ('A' for Active; 'I' for Inactive)
REMARK    1  A    between atoms: N_4  and  C_1 
REMARK       I    between atoms: C_7  and  N_4 
REMARK    2  A    between atoms: C_10  and  C_7 
REMARK    3  A    between atoms: O_16  and  C_15 
ROOT
ATOM      1  N   UNL d   1      46.173 -16.052  43.868  0.00  0.00    -0.183 NA
ATOM      2  C   UNL d   1      45.687 -15.661  44.413  0.00  0.00     0.281 C 
ATOM      3  O   UNL d   1      45.232 -16.106  44.955  0.00  0.00    -0.265 OA
ENDROOT
BRANCH   1   4
ATOM      4  C   UNL d   1      46.210 -16.882  43.856  0.00  0.00     0.197 A 
ATOM      5  N   UNL d   1      46.269 -17.354  43.173  0.00  0.00    -0.221 NA
ATOM      6  C   UNL d   1      46.290 -18.148  43.412  0.00  0.00     0.092 A 
ATOM      7  C   UNL d   1      46.345 -18.850  42.983  0.00  0.00     0.039 A 
ATOM      8  C   UNL d   1      46.243 -18.169  44.244  0.00  0.00     0.068 A 
ATOM      9  C   UNL d   1      46.354 -19.581  43.387  0.00  0.00     0.082 A 
ATOM     10  N   UNL d   1      46.307 -19.597  44.207  0.00  0.00    -0.301 N 
ATOM     11  C   UNL d   1      46.252 -18.893  44.633  0.00  0.00     0.088 A 
ATOM     12  C   UNL d   1      46.316 -20.330  44.608  0.00  0.00     0.100 C 
ATOM     13  S   UNL d   1      46.194 -17.386  44.510  0.00  0.00    -0.045 SA
ENDBRANCH   1   4
BRANCH   2  14
ATOM     14  C   UNL d   1      45.651 -14.836  44.425  0.00  0.00     0.060 A 
ATOM     15  C   UNL d   1      45.132 -14.440  43.926  0.00  0.00     0.029 A 
ATOM     16  C   UNL d   1      45.098 -13.623  43.940  0.00  0.00     0.094 A 
ATOM     17  C   UNL d   1      45.582 -13.196  44.452  0.00  0.00     0.024 A 
ATOM     18  C   UNL d   1      46.101 -13.601  44.949  0.00  0.00     0.002 A 
ATOM     19  C   UNL d   1      46.135 -14.418  44.936  0.00  0.00     0.005 A 
BRANCH  16  20
ATOM     20  O   UNL d   1      44.568 -13.209  43.431  0.00  0.00    -0.328 OA
ATOM     21  C   UNL d   1      44.765 -12.464  43.135  0.00  0.00     0.181 C 
ENDBRANCH  16  20
ENDBRANCH   2  14
TORSDOF 3
ENDMDL
