MODEL 1
REMARK VINA RESULT:      -8.1      0.000      0.000
REMARK  5 active torsions:
REMARK  status: ('A' for Active; 'I' for Inactive)
REMARK    1  A    between atoms: C_10  and  N_1 
REMARK    2  A    between atoms: C_7  and  C_4 
REMARK    3  A    between atoms: O_16  and  C_9 
REMARK    4  A    between atoms: C_15  and  C_10 
REMARK    5  A    between atoms: O_17  and  C_11 
ROOT
ATOM      1  N   UNL d   1     -48.565  14.192  22.165  0.00  0.00    -0.193 N 
ATOM      2  N   UNL d   1     -48.004  13.605  22.325  0.00  0.00    -0.163 NA
ATOM      3  C   UNL d   1     -48.393  14.968  22.356  0.00  0.00     0.281 A 
ATOM      4  C   UNL d   1     -47.284  13.806  22.673  0.00  0.00     0.102 A 
ATOM      5  C   UNL d   1     -47.684  15.180  22.701  0.00  0.00     0.064 A 
ATOM      6  C   UNL d   1     -47.124  14.593  22.861  0.00  0.00     0.026 A 
ATOM      7  O   UNL d   1     -48.953  15.554  22.195  0.00  0.00    -0.265 OA
ENDROOT
BRANCH   4   8
ATOM      8  C   UNL d   1     -46.733  13.229  22.831  0.00  0.00     0.021 A 
ATOM      9  C   UNL d   1     -46.050  13.155  22.354  0.00  0.00     0.028 A 
ATOM     10  C   UNL d   1     -45.500  12.572  22.519  0.00  0.00     0.116 A 
ATOM     11  C   UNL d   1     -45.612  12.056  23.153  0.00  0.00     0.116 A 
ATOM     12  C   UNL d   1     -46.294  12.125  23.634  0.00  0.00     0.026 A 
ATOM     13  C   UNL d   1     -46.844  12.712  23.465  0.00  0.00     0.004 A 
BRANCH  10  14
ATOM     14  O   UNL d   1     -44.830  12.501  22.049  0.00  0.00    -0.326 OA
ATOM     15  C   UNL d   1     -44.387  13.164  21.847  0.00  0.00     0.181 C 
ENDBRANCH  10  14
BRANCH  11  16
ATOM     16  O   UNL d   1     -45.059  11.466  23.322  0.00  0.00    -0.326 OA
ATOM     17  C   UNL d   1     -45.312  10.766  23.680  0.00  0.00     0.181 C 
ENDBRANCH  11  16
ENDBRANCH   4   8
BRANCH   1  18
ATOM     18  C   UNL d   1     -49.280  13.985  21.818  0.00  0.00     0.104 C 
BRANCH  18  19
ATOM     19  C   UNL d   1     -49.763  13.438  22.186  0.00  0.00     0.019 A 
ATOM     20  C   UNL d   1     -50.202  13.654  22.851  0.00  0.00     0.002 A 
ATOM     21  C   UNL d   1     -50.688  13.104  23.221  0.00  0.00     0.000 A 
ATOM     22  C   UNL d   1     -50.730  12.331  22.916  0.00  0.00     0.000 A 
ATOM     23  C   UNL d   1     -50.293  12.117  22.254  0.00  0.00     0.000 A 
ATOM     24  C   UNL d   1     -49.806  12.676  21.888  0.00  0.00     0.002 A 
ENDBRANCH  18  19
ENDBRANCH   1  18
TORSDOF 5
ENDMDL
MODEL 2
REMARK VINA RESULT:      -8.0      1.470      2.490
REMARK  5 active torsions:
REMARK  status: ('A' for Active; 'I' for Inactive)
REMARK    1  A    between atoms: C_10  and  N_1 
REMARK    2  A    between atoms: C_7  and  C_4 
REMARK    3  A    between atoms: O_16  and  C_9 
REMARK    4  A    between atoms: C_15  and  C_10 
REMARK    5  A    between atoms: O_17  and  C_11 
ROOT
ATOM      1  N   UNL d   1     -49.867  12.779  23.371  0.00  0.00    -0.193 N 
ATOM      2  N   UNL d   1     -49.057  12.933  23.308  0.00  0.00    -0.163 NA
ATOM      3  C   UNL d   1     -50.156  12.062  23.108  0.00  0.00     0.281 A 
ATOM      4  C   UNL d   1     -48.553  12.367  22.982  0.00  0.00     0.102 A 
ATOM      5  C   UNL d   1     -49.668  11.493  22.783  0.00  0.00     0.064 A 
ATOM      6  C   UNL d   1     -48.858  11.647  22.720  0.00  0.00     0.026 A 
ATOM      7  O   UNL d   1     -50.965  11.907  23.171  0.00  0.00    -0.265 OA
ENDROOT
BRANCH   4   8
ATOM      8  C   UNL d   1     -47.756  12.519  22.920  0.00  0.00     0.021 A 
ATOM      9  C   UNL d   1     -47.204  12.057  23.345  0.00  0.00     0.028 A 
ATOM     10  C   UNL d   1     -46.404  12.215  23.278  0.00  0.00     0.116 A 
ATOM     11  C   UNL d   1     -46.136  12.827  22.793  0.00  0.00     0.116 A 
ATOM     12  C   UNL d   1     -46.685  13.293  22.365  0.00  0.00     0.026 A 
ATOM     13  C   UNL d   1     -47.488  13.131  22.435  0.00  0.00     0.004 A 
BRANCH  10  14
ATOM     14  O   UNL d   1     -45.862  11.761  23.696  0.00  0.00    -0.326 OA
ATOM     15  C   UNL d   1     -45.871  10.940  23.638  0.00  0.00     0.181 C 
ENDBRANCH  10  14
BRANCH  11  16
ATOM     16  O   UNL d   1     -45.329  12.990  22.722  0.00  0.00    -0.326 OA
ATOM     17  C   UNL d   1     -45.067  13.473  22.106  0.00  0.00     0.181 C 
ENDBRANCH  11  16
ENDBRANCH   4   8
BRANCH   1  18
ATOM     18  C   UNL d   1     -50.363  13.346  23.696  0.00  0.00     0.104 C 
BRANCH  18  19
ATOM     19  C   UNL d   1     -50.412  14.086  23.350  0.00  0.00     0.019 A 
ATOM     20  C   UNL d   1     -50.009  14.725  23.682  0.00  0.00     0.002 A 
ATOM     21  C   UNL d   1     -50.057  15.468  23.335  0.00  0.00     0.000 A 
ATOM     22  C   UNL d   1     -50.516  15.565  22.647  0.00  0.00     0.000 A 
ATOM     23  C   UNL d   1     -50.917  14.928  22.318  0.00  0.00     0.000 A 
ATOM     24  C   UNL d   1     -50.862  14.183  22.674  0.00  0.00     0.002 A 
ENDBRANCH  18  19
ENDBRANCH   1  18
TORSDOF 5
ENDMDL
MODEL 3
REMARK VINA RESULT:      -6.0      1.503      4.009
REMARK  5 active torsions:
REMARK  status: ('A' for Active; 'I' for Inactive)
REMARK    1  A    between atoms: C_10  and  N_1 
REMARK    2  A    between atoms: C_7  and  C_4 
REMARK    3  A    between atoms: O_16  and  C_9 
REMARK    4  A    between atoms: C_15  and  C_10 
REMARK    5  A    between atoms: O_17  and  C_11 
ROOT
ATOM      1  N   UNL d   1     -47.231  14.480  22.890  0.00  0.00    -0.193 N 
ATOM      2  N   UNL d   1     -47.848  13.937  22.982  0.00  0.00    -0.163 NA
ATOM      3  C   UNL d   1     -47.388  15.205  22.549  0.00  0.00     0.281 A 
ATOM      4  C   UNL d   1     -48.609  14.131  22.731  0.00  0.00     0.102 A 
ATOM      5  C   UNL d   1     -48.137  15.410  22.296  0.00  0.00     0.064 A 
ATOM      6  C   UNL d   1     -48.754  14.867  22.388  0.00  0.00     0.026 A 
ATOM      7  O   UNL d   1     -46.771  15.747  22.458  0.00  0.00    -0.265 OA
ENDROOT
BRANCH   4   8
ATOM      8  C   UNL d   1     -49.217  13.596  22.821  0.00  0.00     0.021 A 
ATOM      9  C   UNL d   1     -49.697  13.389  22.168  0.00  0.00     0.028 A 
ATOM     10  C   UNL d   1     -50.305  12.851  22.267  0.00  0.00     0.116 A 
ATOM     11  C   UNL d   1     -50.451  12.511  23.004  0.00  0.00     0.116 A 
ATOM     12  C   UNL d   1     -49.973  12.715  23.661  0.00  0.00     0.026 A 
ATOM     13  C   UNL d   1     -49.362  13.256  23.559  0.00  0.00     0.004 A 
BRANCH  10  14
ATOM     14  O   UNL d   1     -50.777  12.648  21.625  0.00  0.00    -0.326 OA
ATOM     15  C   UNL d   1     -50.880  13.172  21.000  0.00  0.00     0.181 C 
ENDBRANCH  10  14
BRANCH  11  16
ATOM     16  O   UNL d   1     -51.064  11.967  23.108  0.00  0.00    -0.326 OA
ATOM     17  C   UNL d   1     -51.001  11.394  23.698  0.00  0.00     0.181 C 
ENDBRANCH  11  16
ENDBRANCH   4   8
BRANCH   1  18
ATOM     18  C   UNL d   1     -46.475  14.280  23.142  0.00  0.00     0.104 C 
BRANCH  18  19
ATOM     19  C   UNL d   1     -46.119  13.603  22.853  0.00  0.00     0.019 A 
ATOM     20  C   UNL d   1     -46.175  12.895  23.272  0.00  0.00     0.002 A 
ATOM     21  C   UNL d   1     -45.817  12.214  22.982  0.00  0.00     0.000 A 
ATOM     22  C   UNL d   1     -45.400  12.251  22.263  0.00  0.00     0.000 A 
ATOM     23  C   UNL d   1     -45.344  12.957  21.846  0.00  0.00     0.000 A 
ATOM     24  C   UNL d   1     -45.708  13.637  22.146  0.00  0.00     0.002 A 
ENDBRANCH  18  19
ENDBRANCH   1  18
TORSDOF 5
ENDMDL
MODEL 4
REMARK VINA RESULT:      -5.7      8.260      9.595
REMARK  5 active torsions:
REMARK  status: ('A' for Active; 'I' for Inactive)
REMARK    1  A    between atoms: C_10  and  N_1 
REMARK    2  A    between atoms: C_7  and  C_4 
REMARK    3  A    between atoms: O_16  and  C_9 
REMARK    4  A    between atoms: C_15  and  C_10 
REMARK    5  A    between atoms: O_17  and  C_11 
ROOT
ATOM      1  N   UNL d   1     -40.299  14.659  18.120  0.00  0.00    -0.193 N 
ATOM      2  N   UNL d   1     -39.831  14.651  18.802  0.00  0.00    -0.163 NA
ATOM      3  C   UNL d   1     -40.859  15.247  18.030  0.00  0.00     0.281 A 
ATOM      4  C   UNL d   1     -39.932  15.232  19.379  0.00  0.00     0.102 A 
ATOM      5  C   UNL d   1     -40.969  15.828  18.594  0.00  0.00     0.064 A 
ATOM      6  C   UNL d   1     -40.500  15.821  19.275  0.00  0.00     0.026 A 
ATOM      7  O   UNL d   1     -41.327  15.255  17.349  0.00  0.00    -0.265 OA
ENDROOT
BRANCH   4   8
ATOM      8  C   UNL d   1     -39.470  15.225  20.050  0.00  0.00     0.021 A 
ATOM      9  C   UNL d   1     -39.493  14.570  20.570  0.00  0.00     0.028 A 
ATOM     10  C   UNL d   1     -39.027  14.570  21.242  0.00  0.00     0.116 A 
ATOM     11  C   UNL d   1     -38.533  15.209  21.412  0.00  0.00     0.116 A 
ATOM     12  C   UNL d   1     -38.507  15.867  20.894  0.00  0.00     0.026 A 
ATOM     13  C   UNL d   1     -38.977  15.864  20.220  0.00  0.00     0.004 A 
BRANCH  10  14
ATOM     14  O   UNL d   1     -39.050  13.927  21.753  0.00  0.00    -0.326 OA
ATOM     15  C   UNL d   1     -39.769  13.604  21.988  0.00  0.00     0.181 C 
ENDBRANCH  10  14
BRANCH  11  16
ATOM     16  O   UNL d   1     -38.061  15.213  22.090  0.00  0.00    -0.326 OA
ATOM     17  C   UNL d   1     -37.940  15.922  22.494  0.00  0.00     0.181 C 
ENDBRANCH  11  16
ENDBRANCH   4   8
BRANCH   1  18
ATOM     18  C   UNL d   1     -40.194  14.078  17.550  0.00  0.00     0.104 C 
BRANCH  18  19
ATOM     19  C   UNL d   1     -39.451  13.954  17.233  0.00  0.00     0.019 A 
ATOM     20  C   UNL d   1     -39.013  13.288  17.451  0.00  0.00     0.002 A 
ATOM     21  C   UNL d   1     -38.266  13.164  17.132  0.00  0.00     0.000 A 
ATOM     22  C   UNL d   1     -37.960  13.715  16.590  0.00  0.00     0.000 A 
ATOM     23  C   UNL d   1     -38.396  14.377  16.373  0.00  0.00     0.000 A 
ATOM     24  C   UNL d   1     -39.147  14.495  16.699  0.00  0.00     0.002 A 
ENDBRANCH  18  19
ENDBRANCH   1  18
TORSDOF 5
ENDMDL
MODEL 5
REMARK VINA RESULT:      -5.7      8.021      9.624
REMARK  5 active torsions:
REMARK  status: ('A' for Active; 'I' for Inactive)
REMARK    1  A    between atoms: C_10  and  N_1 
REMARK    2  A    between atoms: C_7  and  C_4 
REMARK    3  A    between atoms: O_16  and  C_9 
REMARK    4  A    between atoms: C_15  and  C_10 
REMARK    5  A    between atoms: O_17  and  C_11 
ROOT
ATOM      1  N   UNL d   1     -39.838  15.375  20.343  0.00  0.00    -0.193 N 
ATOM      2  N   UNL d   1     -39.446  15.071  19.682  0.00  0.00    -0.163 NA
ATOM      3  C   UNL d   1     -40.614  15.617  20.268  0.00  0.00     0.281 A 
ATOM      4  C   UNL d   1     -39.839  15.014  18.959  0.00  0.00     0.102 A 
ATOM      5  C   UNL d   1     -41.015  15.566  19.558  0.00  0.00     0.064 A 
ATOM      6  C   UNL d   1     -40.623  15.262  18.896  0.00  0.00     0.026 A 
ATOM      7  O   UNL d   1     -41.006  15.921  20.929  0.00  0.00    -0.265 OA
ENDROOT
BRANCH   4   8
ATOM      8  C   UNL d   1     -39.453  14.714  18.308  0.00  0.00     0.021 A 
ATOM      9  C   UNL d   1     -39.375  13.888  18.207  0.00  0.00     0.028 A 
ATOM     10  C   UNL d   1     -38.986  13.594  17.550  0.00  0.00     0.116 A 
ATOM     11  C   UNL d   1     -38.669  14.106  16.985  0.00  0.00     0.116 A 
ATOM     12  C   UNL d   1     -38.744  14.934  17.081  0.00  0.00     0.026 A 
ATOM     13  C   UNL d   1     -39.136  15.226  17.743  0.00  0.00     0.004 A 
BRANCH  10  14
ATOM     14  O   UNL d   1     -38.910  12.782  17.451  0.00  0.00    -0.326 OA
ATOM     15  C   UNL d   1     -38.574  12.318  18.042  0.00  0.00     0.181 C 
ENDBRANCH  10  14
BRANCH  11  16
ATOM     16  O   UNL d   1     -38.275  13.813  16.320  0.00  0.00    -0.326 OA
ATOM     17  C   UNL d   1     -38.087  14.327  15.703  0.00  0.00     0.181 C 
ENDBRANCH  11  16
ENDBRANCH   4   8
BRANCH   1  18
ATOM     18  C   UNL d   1     -39.441  15.429  21.060  0.00  0.00     0.104 C 
BRANCH  18  19
ATOM     19  C   UNL d   1     -39.105  14.758  21.386  0.00  0.00     0.019 A 
ATOM     20  C   UNL d   1     -39.580  14.197  21.761  0.00  0.00     0.002 A 
ATOM     21  C   UNL d   1     -39.242  13.524  22.089  0.00  0.00     0.000 A 
ATOM     22  C   UNL d   1     -38.418  13.417  22.037  0.00  0.00     0.000 A 
ATOM     23  C   UNL d   1     -37.946  13.976  21.664  0.00  0.00     0.000 A 
ATOM     24  C   UNL d   1     -38.294  14.651  21.336  0.00  0.00     0.002 A 
ENDBRANCH  18  19
ENDBRANCH   1  18
TORSDOF 5
ENDMDL
MODEL 6
REMARK VINA RESULT:      -5.3      7.504      9.789
REMARK  5 active torsions:
REMARK  status: ('A' for Active; 'I' for Inactive)
REMARK    1  A    between atoms: C_10  and  N_1 
REMARK    2  A    between atoms: C_7  and  C_4 
REMARK    3  A    between atoms: O_16  and  C_9 
REMARK    4  A    between atoms: C_15  and  C_10 
REMARK    5  A    between atoms: O_17  and  C_11 
ROOT
ATOM      1  N   UNL d   1     -38.831  14.279  20.638  0.00  0.00    -0.193 N 
ATOM      2  N   UNL d   1     -38.882  14.665  19.908  0.00  0.00    -0.163 NA
ATOM      3  C   UNL d   1     -38.362  13.613  20.702  0.00  0.00     0.281 A 
ATOM      4  C   UNL d   1     -38.463  14.377  19.258  0.00  0.00     0.102 A 
ATOM      5  C   UNL d   1     -37.943  13.317  20.066  0.00  0.00     0.064 A 
ATOM      6  C   UNL d   1     -37.994  13.703  19.337  0.00  0.00     0.026 A 
ATOM      7  O   UNL d   1     -38.311  13.227  21.431  0.00  0.00    -0.265 OA
ENDROOT
BRANCH   4   8
ATOM      8  C   UNL d   1     -38.514  14.757  18.540  0.00  0.00     0.021 A 
ATOM      9  C   UNL d   1     -39.143  14.588  18.016  0.00  0.00     0.028 A 
ATOM     10  C   UNL d   1     -39.187  14.974  17.296  0.00  0.00     0.116 A 
ATOM     11  C   UNL d   1     -38.616  15.530  17.081  0.00  0.00     0.116 A 
ATOM     12  C   UNL d   1     -37.984  15.703  17.603  0.00  0.00     0.026 A 
ATOM     13  C   UNL d   1     -37.943  15.313  18.325  0.00  0.00     0.004 A 
BRANCH  10  14
ATOM     14  O   UNL d   1     -39.806  14.807  16.782  0.00  0.00    -0.326 OA
ATOM     15  C   UNL d   1     -40.575  15.029  16.967  0.00  0.00     0.181 C 
ENDBRANCH  10  14
BRANCH  11  16
ATOM     16  O   UNL d   1     -38.657  15.922  16.355  0.00  0.00    -0.326 OA
ATOM     17  C   UNL d   1     -38.010  15.894  15.844  0.00  0.00     0.181 C 
ENDBRANCH  11  16
ENDBRANCH   4   8
BRANCH   1  18
ATOM     18  C   UNL d   1     -39.249  14.571  21.281  0.00  0.00     0.104 C 
BRANCH  18  19
ATOM     19  C   UNL d   1     -40.023  14.816  21.181  0.00  0.00     0.019 A 
ATOM     20  C   UNL d   1     -40.629  14.259  21.118  0.00  0.00     0.002 A 
ATOM     21  C   UNL d   1     -41.407  14.505  21.017  0.00  0.00     0.000 A 
ATOM     22  C   UNL d   1     -41.572  15.320  20.981  0.00  0.00     0.000 A 
ATOM     23  C   UNL d   1     -40.968  15.873  21.044  0.00  0.00     0.000 A 
ATOM     24  C   UNL d   1     -40.189  15.617  21.145  0.00  0.00     0.002 A 
ENDBRANCH  18  19
ENDBRANCH   1  18
TORSDOF 5
ENDMDL
