MODEL 1
REMARK VINA RESULT:      64.3      0.000      0.000
REMARK  4 active torsions:
REMARK  status: ('A' for Active; 'I' for Inactive)
REMARK    1  A    between atoms: N_10  and  C_3 
REMARK    2  A    between atoms: C_12  and  C_5 
REMARK    3  A    between atoms: C_11  and  C_8 
REMARK    4  A    between atoms: C_13  and  N_10 
ROOT
ATOM      1  C   UNL d   1     -56.893 -99.194 -44.874  0.00  0.00     0.168 A 
ATOM      2  N   UNL d   1     -57.364 -99.119 -45.563  0.00  0.00    -0.184 N 
ATOM      3  C   UNL d   1     -58.150 -98.962 -45.476  0.00  0.00     0.217 A 
ATOM      4  N   UNL d   1     -57.236 -99.109 -44.137  0.00  0.00    -0.231 NA
ATOM      5  C   UNL d   1     -56.103 -99.352 -44.937  0.00  0.00     0.057 A 
ATOM      6  N   UNL d   1     -56.231 -99.362 -46.347  0.00  0.00    -0.160 NA
ATOM      7  C   UNL d   1     -58.504 -98.874 -44.742  0.00  0.00     0.067 A 
ATOM      8  C   UNL d   1     -58.041 -98.948 -44.064  0.00  0.00     0.064 A 
ATOM      9  C   UNL d   1     -55.768 -99.436 -45.668  0.00  0.00     0.124 A 
ENDROOT
BRANCH   5  10
ATOM     10  C   UNL d   1     -55.640 -99.426 -44.258  0.00  0.00     0.004 A 
ATOM     11  C   UNL d   1     -55.474-100.166 -43.975  0.00  0.00     0.000 A 
ATOM     12  C   UNL d   1     -55.010-100.240 -43.296  0.00  0.00     0.000 A 
ATOM     13  C   UNL d   1     -54.728 -99.572 -42.922  0.00  0.00     0.000 A 
ATOM     14  C   UNL d   1     -54.902 -98.838 -43.216  0.00  0.00     0.000 A 
ATOM     15  C   UNL d   1     -55.366 -98.764 -43.895  0.00  0.00     0.000 A 
ENDBRANCH   5  10
BRANCH   3  16
ATOM     16  N   UNL d   1     -58.628 -98.886 -46.177  0.00  0.00    -0.383 NA
BRANCH  16  17
ATOM     17  C   UNL d   1     -59.107 -98.810 -46.871  0.00  0.00     0.134 C 
ATOM     18  C   UNL d   1     -59.949 -98.761 -46.795  0.00  0.00     0.035 C 
ATOM     19  C   UNL d   1     -58.737 -98.785 -47.640  0.00  0.00     0.035 C 
ENDBRANCH  16  17
ENDBRANCH   3  16
BRANCH   8  20
ATOM     20  C   UNL d   1     -58.395 -98.859 -43.292  0.00  0.00     0.036 C 
ATOM     21  C   UNL d   1     -59.242 -98.854 -43.215  0.00  0.00     0.006 C 
ATOM     22  C   UNL d   1     -57.896 -98.776 -42.603  0.00  0.00     0.006 C 
ATOM     23  C   UNL d   1     -58.739 -98.771 -42.529  0.00  0.00     0.006 C 
ENDBRANCH   8  20
TORSDOF 4
ENDMDL
