MODEL 1
REMARK VINA RESULT:      -5.4      0.000      0.000
REMARK  7 active torsions:
REMARK  status: ('A' for Active; 'I' for Inactive)
REMARK    1  A    between atoms: N_4  and  C_2 
REMARK    2  A    between atoms: C_8  and  C_3 
REMARK       I    between atoms: C_7  and  N_4 
REMARK    3  A    between atoms: C_13  and  C_7 
REMARK    4  A    between atoms: S_11  and  C_16 
REMARK    5  A    between atoms: C_12  and  S_11 
REMARK    6  A    between atoms: C_19  and  C_13 
REMARK    7  A    between atoms: C_16  and  C_19 
ROOT
ATOM      1  N   UNL d   1     -45.174  13.318  21.709  0.00  0.00    -0.183 NA
ATOM      2  C   UNL d   1     -44.487  12.870  21.845  0.00  0.00     0.281 C 
ATOM      3  O   UNL d   1     -44.412  12.409  22.514  0.00  0.00    -0.265 OA
ENDROOT
BRANCH   1   4
ATOM      4  C   UNL d   1     -45.786  13.291  22.264  0.00  0.00     0.197 A 
ATOM      5  N   UNL d   1     -46.431  12.772  22.249  0.00  0.00    -0.219 NA
ATOM      6  C   UNL d   1     -46.901  12.942  22.908  0.00  0.00     0.108 A 
ATOM      7  C   UNL d   1     -46.546  13.559  23.324  0.00  0.00     0.059 A 
ATOM      8  S   UNL d   1     -45.856  13.778  22.930  0.00  0.00    -0.046 SA
BRANCH   6   9
ATOM      9  C   UNL d   1     -47.593  12.564  23.109  0.00  0.00     0.100 A 
ATOM     10  N   UNL d   1     -48.327  12.914  22.927  0.00  0.00    -0.242 NA
ATOM     11  C   UNL d   1     -49.025  12.524  23.134  0.00  0.00     0.099 A 
ATOM     12  C   UNL d   1     -48.994  11.794  23.517  0.00  0.00     0.021 A 
ATOM     13  C   UNL d   1     -48.265  11.451  23.695  0.00  0.00     0.003 A 
ATOM     14  C   UNL d   1     -47.562  11.838  23.490  0.00  0.00     0.021 A 
ENDBRANCH   6   9
ENDBRANCH   1   4
BRANCH   2  15
ATOM     15  C   UNL d   1     -43.875  12.900  21.286  0.00  0.00     0.063 C 
BRANCH  15  16
ATOM     16  C   UNL d   1     -43.110  13.108  21.531  0.00  0.00     0.012 C 
BRANCH  16  17
ATOM     17  C   UNL d   1     -42.612  13.523  21.024  0.00  0.00     0.036 C 
BRANCH  17  18
ATOM     18  S   UNL d   1     -41.812  13.585  21.188  0.00  0.00    -0.086 SA
BRANCH  18  19
ATOM     19  C   UNL d   1     -41.353  14.151  20.802  0.00  0.00     0.029 A 
ATOM     20  C   UNL d   1     -40.921  13.941  20.130  0.00  0.00     0.005 A 
ATOM     21  C   UNL d   1     -40.461  14.503  19.743  0.00  0.00    -0.012 A 
ATOM     22  C   UNL d   1     -40.432  15.278  20.025  0.00  0.00     0.026 A 
ATOM     23  C   UNL d   1     -40.863  15.489  20.694  0.00  0.00    -0.012 A 
ATOM     24  C   UNL d   1     -41.324  14.926  21.084  0.00  0.00     0.005 A 
ENDBRANCH  18  19
ENDBRANCH  17  18
ENDBRANCH  16  17
ENDBRANCH  15  16
ENDBRANCH   2  15
TORSDOF 7
ENDMDL
MODEL 2
REMARK VINA RESULT:      -4.7      2.249      6.705
REMARK  7 active torsions:
REMARK  status: ('A' for Active; 'I' for Inactive)
REMARK    1  A    between atoms: N_4  and  C_2 
REMARK    2  A    between atoms: C_8  and  C_3 
REMARK       I    between atoms: C_7  and  N_4 
REMARK    3  A    between atoms: C_13  and  C_7 
REMARK    4  A    between atoms: S_11  and  C_16 
REMARK    5  A    between atoms: C_12  and  S_11 
REMARK    6  A    between atoms: C_19  and  C_13 
REMARK    7  A    between atoms: C_16  and  C_19 
ROOT
ATOM      1  N   UNL d   1     -41.787  13.934  21.215  0.00  0.00    -0.183 NA
ATOM      2  C   UNL d   1     -42.323  13.315  21.078  0.00  0.00     0.281 C 
ATOM      3  O   UNL d   1     -42.295  12.880  20.388  0.00  0.00    -0.265 OA
ENDROOT
BRANCH   1   4
ATOM      4  C   UNL d   1     -41.218  14.106  20.640  0.00  0.00     0.197 A 
ATOM      5  N   UNL d   1     -41.371  14.373  19.872  0.00  0.00    -0.219 NA
ATOM      6  C   UNL d   1     -40.643  14.472  19.494  0.00  0.00     0.108 A 
ATOM      7  C   UNL d   1     -40.047  14.267  20.027  0.00  0.00     0.059 A 
ATOM      8  S   UNL d   1     -40.398  14.041  20.737  0.00  0.00    -0.046 SA
BRANCH   6   9
ATOM      9  C   UNL d   1     -40.535  14.726  18.729  0.00  0.00     0.100 A 
ATOM     10  N   UNL d   1     -40.389  14.173  18.122  0.00  0.00    -0.242 NA
ATOM     11  C   UNL d   1     -40.281  14.440  17.348  0.00  0.00     0.099 A 
ATOM     12  C   UNL d   1     -40.316  15.246  17.177  0.00  0.00     0.021 A 
ATOM     13  C   UNL d   1     -40.460  15.790  17.782  0.00  0.00     0.003 A 
ATOM     14  C   UNL d   1     -40.570  15.529  18.559  0.00  0.00     0.021 A 
ENDBRANCH   6   9
ENDBRANCH   1   4
BRANCH   2  15
ATOM     15  C   UNL d   1     -42.892  13.145  21.656  0.00  0.00     0.063 C 
BRANCH  15  16
ATOM     16  C   UNL d   1     -43.677  13.000  21.426  0.00  0.00     0.012 C 
BRANCH  16  17
ATOM     17  C   UNL d   1     -44.278  12.989  21.988  0.00  0.00     0.036 C 
BRANCH  17  18
ATOM     18  S   UNL d   1     -45.061  12.948  21.756  0.00  0.00    -0.086 SA
BRANCH  18  19
ATOM     19  C   UNL d   1     -45.664  13.065  22.307  0.00  0.00     0.029 A 
ATOM     20  C   UNL d   1     -45.946  12.426  22.748  0.00  0.00     0.005 A 
ATOM     21  C   UNL d   1     -46.547  12.539  23.299  0.00  0.00    -0.012 A 
ATOM     22  C   UNL d   1     -46.868  13.291  23.412  0.00  0.00     0.026 A 
ATOM     23  C   UNL d   1     -46.587  13.929  22.973  0.00  0.00    -0.012 A 
ATOM     24  C   UNL d   1     -45.984  13.817  22.420  0.00  0.00     0.005 A 
ENDBRANCH  18  19
ENDBRANCH  17  18
ENDBRANCH  16  17
ENDBRANCH  15  16
ENDBRANCH   2  15
TORSDOF 7
ENDMDL
