MODEL 1
REMARK VINA RESULT:     197.4      0.000      0.000
REMARK  5 active torsions:
REMARK  status: ('A' for Active; 'I' for Inactive)
REMARK       I    between atoms: N_3  and  C_1 
REMARK    1  A    between atoms: C_4  and  C_1 
REMARK    2  A    between atoms: N_2  and  C_4 
REMARK       I    between atoms: C_5  and  N_2 
REMARK    3  A    between atoms: C_18  and  C_4 
REMARK    4  A    between atoms: C_9  and  C_5 
REMARK    5  A    between atoms: C_7  and  N_6 
ROOT
ATOM      1  C   UNL d   1     -56.554-101.654 -40.937  0.00  0.00     0.283 C 
ATOM      2  N   UNL d   1     -56.398-101.348 -41.686  0.00  0.00    -0.268 N 
ATOM      3  N   UNL d   1     -56.086-100.738 -43.179  0.00  0.00    -0.286 N 
ATOM      4  O   UNL d   1     -56.674-102.464 -40.833  0.00  0.00    -0.265 OA
ATOM      5  C   UNL d   1     -56.279-100.539 -41.783  0.00  0.00     0.102 A 
ATOM      6  C   UNL d   1     -56.361-101.858 -42.334  0.00  0.00     0.102 A 
ATOM      7  C   UNL d   1     -56.203-101.548 -43.086  0.00  0.00     0.101 A 
ATOM      8  C   UNL d   1     -56.124-100.239 -42.533  0.00  0.00     0.101 A 
ENDROOT
BRANCH   1   9
ATOM      9  C   UNL d   1     -56.591-101.144 -40.289  0.00  0.00     0.141 C 
BRANCH   9  10
ATOM     10  N   UNL d   1     -56.174-101.325 -39.594  0.00  0.00    -0.203 NA
ATOM     11  C   UNL d   1     -56.387-101.982 -39.148  0.00  0.00     0.279 C 
ATOM     12  O   UNL d   1     -57.009-102.459 -39.387  0.00  0.00    -0.265 OA
BRANCH  11  13
ATOM     13  C   UNL d   1     -55.971-102.159 -38.458  0.00  0.00     0.058 A 
ATOM     14  C   UNL d   1     -55.236-102.523 -38.499  0.00  0.00     0.005 A 
ATOM     15  C   UNL d   1     -54.818-102.702 -37.817  0.00  0.00     0.000 A 
ATOM     16  C   UNL d   1     -55.139-102.513 -37.081  0.00  0.00     0.000 A 
ATOM     17  C   UNL d   1     -55.878-102.146 -37.024  0.00  0.00     0.000 A 
ATOM     18  C   UNL d   1     -54.725-102.689 -36.383  0.00  0.00     0.000 C 
ATOM     19  C   UNL d   1     -56.291-101.971 -37.721  0.00  0.00     0.005 A 
ENDBRANCH  11  13
ENDBRANCH   9  10
BRANCH   9  20
ATOM     20  C   UNL d   1     -57.037-100.457 -40.323  0.00  0.00     0.022 C 
ATOM     21  C   UNL d   1     -56.919 -99.925 -40.953  0.00  0.00     0.002 C 
ATOM     22  C   UNL d   1     -57.597-100.288 -39.743  0.00  0.00     0.002 C 
ENDBRANCH   9  20
ENDBRANCH   1   9
BRANCH   3  23
ATOM     23  C   UNL d   1     -55.929-100.433 -43.932  0.00  0.00     0.148 A 
ATOM     24  N   UNL d   1     -55.758-100.944 -44.556  0.00  0.00    -0.227 NA
ATOM     25  C   UNL d   1     -55.603-100.636 -45.305  0.00  0.00     0.101 A 
ATOM     26  C   UNL d   1     -55.615 -99.825 -45.434  0.00  0.00     0.021 A 
ATOM     27  C   UNL d   1     -55.788 -99.312 -44.799  0.00  0.00     0.005 A 
ATOM     28  C   UNL d   1     -55.944 -99.618 -44.052  0.00  0.00     0.037 A 
ENDBRANCH   3  23
TORSDOF 5
ENDMDL
