MODEL 1
REMARK VINA RESULT:      -5.4      0.000      0.000
REMARK  2 active torsions:
REMARK  status: ('A' for Active; 'I' for Inactive)
REMARK       I    between atoms: C_3  and  N_1 
REMARK       I    between atoms: C_4  and  N_2 
REMARK    1  A    between atoms: C_5  and  C_3 
REMARK    2  A    between atoms: C_6  and  C_4 
ROOT
ATOM      1  N   UNL d   1      56.811  -0.703  31.782  0.00  0.00    -0.270 N 
ATOM      2  N   UNL d   1      57.884  -0.308  30.592  0.00  0.00    -0.269 N 
ATOM      3  C   UNL d   1      56.282  -0.902  32.369  0.00  0.00     0.271 C 
ATOM      4  C   UNL d   1      58.415  -0.122  30.002  0.00  0.00     0.271 C 
ATOM      5  C   UNL d   1      56.998   0.095  31.641  0.00  0.00     0.085 A 
ATOM      6  C   UNL d   1      57.529   0.279  31.051  0.00  0.00     0.101 A 
ATOM      7  C   UNL d   1      57.154  -1.309  31.335  0.00  0.00     0.102 A 
ATOM      8  C   UNL d   1      57.697  -1.105  30.733  0.00  0.00     0.102 A 
ATOM      9  O   UNL d   1      56.096  -1.707  32.508  0.00  0.00    -0.266 OA
ATOM     10  O   UNL d   1      58.598   0.659  29.863  0.00  0.00    -0.266 OA
ATOM     11  C   UNL d   1      56.643   0.682  32.100  0.00  0.00     0.021 C 
ENDROOT
BRANCH   3  12
ATOM     12  C   UNL d   1      55.923  -0.325  32.831  0.00  0.00     0.086 A 
ATOM     13  S   UNL d   1      55.743   0.427  33.128  0.00  0.00    -0.082 SA
ATOM     14  C   UNL d   1      55.178   0.337  33.717  0.00  0.00     0.036 A 
ATOM     15  C   UNL d   1      55.006  -0.473  33.787  0.00  0.00     0.008 A 
ATOM     16  C   UNL d   1      55.472  -0.880  33.234  0.00  0.00     0.012 A 
ENDBRANCH   3  12
BRANCH   4  17
ATOM     17  C   UNL d   1      58.856  -0.558  29.458  0.00  0.00     0.086 A 
ATOM     18  S   UNL d   1      58.987  -1.257  29.042  0.00  0.00    -0.082 SA
ATOM     19  C   UNL d   1      59.655  -1.142  28.564  0.00  0.00     0.036 A 
ATOM     20  C   UNL d   1      59.926  -0.362  28.696  0.00  0.00     0.008 A 
ATOM     21  C   UNL d   1      59.426  -0.019  29.246  0.00  0.00     0.012 A 
ENDBRANCH   4  17
TORSDOF 2
ENDMDL
MODEL 2
REMARK VINA RESULT:      -5.1      0.438      4.635
REMARK  2 active torsions:
REMARK  status: ('A' for Active; 'I' for Inactive)
REMARK       I    between atoms: C_3  and  N_1 
REMARK       I    between atoms: C_4  and  N_2 
REMARK    1  A    between atoms: C_5  and  C_3 
REMARK    2  A    between atoms: C_6  and  C_4 
ROOT
ATOM      1  N   UNL d   1      58.166  -0.227  30.358  0.00  0.00    -0.270 N 
ATOM      2  N   UNL d   1      57.074  -0.485  31.568  0.00  0.00    -0.269 N 
ATOM      3  C   UNL d   1      58.705  -0.095  29.761  0.00  0.00     0.271 C 
ATOM      4  C   UNL d   1      56.535  -0.603  32.168  0.00  0.00     0.271 C 
ATOM      5  C   UNL d   1      57.892  -0.997  30.511  0.00  0.00     0.085 A 
ATOM      6  C   UNL d   1      57.353  -1.114  31.111  0.00  0.00     0.101 A 
ATOM      7  C   UNL d   1      57.901   0.419  30.802  0.00  0.00     0.102 A 
ATOM      8  C   UNL d   1      57.348   0.284  31.414  0.00  0.00     0.102 A 
ATOM      9  O   UNL d   1      58.978   0.682  29.609  0.00  0.00    -0.266 OA
ATOM     10  O   UNL d   1      56.267  -1.358  32.319  0.00  0.00    -0.266 OA
ATOM     11  C   UNL d   1      58.171  -1.625  30.054  0.00  0.00     0.021 C 
ENDROOT
BRANCH   3  12
ATOM     12  C   UNL d   1      58.989  -0.714  29.300  0.00  0.00     0.086 A 
ATOM     13  S   UNL d   1      59.033  -1.468  28.959  0.00  0.00    -0.082 SA
ATOM     14  C   UNL d   1      59.694  -1.486  28.472  0.00  0.00     0.036 A 
ATOM     15  C   UNL d   1      60.062  -0.742  28.510  0.00  0.00     0.008 A 
ATOM     16  C   UNL d   1      59.619  -0.266  29.027  0.00  0.00     0.012 A 
ENDBRANCH   3  12
BRANCH   4  17
ATOM     17  C   UNL d   1      56.155  -0.115  32.713  0.00  0.00     0.086 A 
ATOM     18  S   UNL d   1      56.082   0.615  33.088  0.00  0.00    -0.082 SA
ATOM     19  C   UNL d   1      55.451   0.560  33.623  0.00  0.00     0.036 A 
ATOM     20  C   UNL d   1      55.143  -0.216  33.567  0.00  0.00     0.008 A 
ATOM     21  C   UNL d   1      55.585  -0.615  33.005  0.00  0.00     0.012 A 
ENDBRANCH   4  17
TORSDOF 2
ENDMDL
MODEL 3
REMARK VINA RESULT:      -4.3      1.380      1.620
REMARK  2 active torsions:
REMARK  status: ('A' for Active; 'I' for Inactive)
REMARK       I    between atoms: C_3  and  N_1 
REMARK       I    between atoms: C_4  and  N_2 
REMARK    1  A    between atoms: C_5  and  C_3 
REMARK    2  A    between atoms: C_6  and  C_4 
ROOT
ATOM      1  N   UNL d   1      57.207   0.586  32.787  0.00  0.00    -0.270 N 
ATOM      2  N   UNL d   1      57.753   0.523  31.231  0.00  0.00    -0.269 N 
ATOM      3  C   UNL d   1      56.941   0.617  33.556  0.00  0.00     0.271 C 
ATOM      4  C   UNL d   1      58.032   0.492  30.466  0.00  0.00     0.271 C 
ATOM      5  C   UNL d   1      56.665   0.522  32.159  0.00  0.00     0.085 A 
ATOM      6  C   UNL d   1      56.944   0.491  31.395  0.00  0.00     0.101 A 
ATOM      7  C   UNL d   1      58.021   0.619  32.647  0.00  0.00     0.102 A 
ATOM      8  C   UNL d   1      58.294   0.587  31.858  0.00  0.00     0.102 A 
ATOM      9  O   UNL d   1      57.490   0.682  34.186  0.00  0.00    -0.266 OA
ATOM     10  O   UNL d   1      57.501   0.429  29.851  0.00  0.00    -0.266 OA
ATOM     11  C   UNL d   1      55.856   0.491  32.324  0.00  0.00     0.021 C 
ENDROOT
BRANCH   3  12
ATOM     12  C   UNL d   1      56.138   0.587  33.730  0.00  0.00     0.086 A 
ATOM     13  S   UNL d   1      55.321   0.527  33.606  0.00  0.00    -0.082 SA
ATOM     14  C   UNL d   1      54.950   0.576  34.338  0.00  0.00     0.036 A 
ATOM     15  C   UNL d   1      55.538   0.666  34.918  0.00  0.00     0.008 A 
ATOM     16  C   UNL d   1      56.275   0.672  34.535  0.00  0.00     0.012 A 
ENDBRANCH   3  12
BRANCH   4  17
ATOM     17  C   UNL d   1      58.779   0.509  30.117  0.00  0.00     0.086 A 
ATOM     18  S   UNL d   1      59.584   0.680  30.164  0.00  0.00    -0.082 SA
ATOM     19  C   UNL d   1      59.925   0.482  29.434  0.00  0.00     0.036 A 
ATOM     20  C   UNL d   1      59.313   0.188  28.944  0.00  0.00     0.008 A 
ATOM     21  C   UNL d   1      58.619   0.212  29.379  0.00  0.00     0.012 A 
ENDBRANCH   4  17
TORSDOF 2
ENDMDL
MODEL 4
REMARK VINA RESULT:      -4.0      1.414      4.667
REMARK  2 active torsions:
REMARK  status: ('A' for Active; 'I' for Inactive)
REMARK       I    between atoms: C_3  and  N_1 
REMARK       I    between atoms: C_4  and  N_2 
REMARK    1  A    between atoms: C_5  and  C_3 
REMARK    2  A    between atoms: C_6  and  C_4 
ROOT
ATOM      1  N   UNL d   1      57.879   0.601  30.977  0.00  0.00    -0.270 N 
ATOM      2  N   UNL d   1      57.175   0.610  32.470  0.00  0.00    -0.269 N 
ATOM      3  C   UNL d   1      58.224   0.596  30.239  0.00  0.00     0.271 C 
ATOM      4  C   UNL d   1      56.818   0.615  33.202  0.00  0.00     0.271 C 
ATOM      5  C   UNL d   1      58.354   0.642  31.659  0.00  0.00     0.085 A 
ATOM      6  C   UNL d   1      57.996   0.646  32.391  0.00  0.00     0.101 A 
ATOM      7  C   UNL d   1      57.055   0.565  31.030  0.00  0.00     0.102 A 
ATOM      8  C   UNL d   1      56.702   0.570  31.788  0.00  0.00     0.102 A 
ATOM      9  O   UNL d   1      57.743   0.555  29.554  0.00  0.00    -0.266 OA
ATOM     10  O   UNL d   1      57.283   0.654  33.871  0.00  0.00    -0.266 OA
ATOM     11  C   UNL d   1      59.175   0.677  31.580  0.00  0.00     0.021 C 
ENDROOT
BRANCH   3  12
ATOM     12  C   UNL d   1      59.040   0.631  30.150  0.00  0.00     0.086 A 
ATOM     13  S   UNL d   1      59.840   0.678  30.360  0.00  0.00    -0.082 SA
ATOM     14  C   UNL d   1      60.284   0.668  29.669  0.00  0.00     0.036 A 
ATOM     15  C   UNL d   1      59.758   0.614  29.028  0.00  0.00     0.008 A 
ATOM     16  C   UNL d   1      58.986   0.591  29.332  0.00  0.00     0.012 A 
ENDBRANCH   3  12
BRANCH   4  17
ATOM     17  C   UNL d   1      56.039   0.587  33.471  0.00  0.00     0.086 A 
ATOM     18  S   UNL d   1      55.233   0.514  33.315  0.00  0.00    -0.082 SA
ATOM     19  C   UNL d   1      54.833   0.559  34.040  0.00  0.00     0.036 A 
ATOM     20  C   UNL d   1      55.410   0.659  34.638  0.00  0.00     0.008 A 
ATOM     21  C   UNL d   1      56.142   0.674  34.272  0.00  0.00     0.012 A 
ENDBRANCH   4  17
TORSDOF 2
ENDMDL
MODEL 5
REMARK VINA RESULT:      -3.7      1.509      4.746
REMARK  2 active torsions:
REMARK  status: ('A' for Active; 'I' for Inactive)
REMARK       I    between atoms: C_3  and  N_1 
REMARK       I    between atoms: C_4  and  N_2 
REMARK    1  A    between atoms: C_5  and  C_3 
REMARK    2  A    between atoms: C_6  and  C_4 
ROOT
ATOM      1  N   UNL d   1      58.054   0.669  31.804  0.00  0.00    -0.270 N 
ATOM      2  N   UNL d   1      56.616   0.666  32.613  0.00  0.00    -0.269 N 
ATOM      3  C   UNL d   1      58.767   0.671  31.407  0.00  0.00     0.271 C 
ATOM      4  C   UNL d   1      55.911   0.664  33.021  0.00  0.00     0.271 C 
ATOM      5  C   UNL d   1      57.340   0.658  31.378  0.00  0.00     0.085 A 
ATOM      6  C   UNL d   1      56.636   0.657  31.787  0.00  0.00     0.101 A 
ATOM      7  C   UNL d   1      58.061   0.678  32.631  0.00  0.00     0.102 A 
ATOM      8  C   UNL d   1      57.330   0.677  33.037  0.00  0.00     0.102 A 
ATOM      9  O   UNL d   1      59.485   0.682  31.839  0.00  0.00    -0.266 OA
ATOM     10  O   UNL d   1      55.210   0.654  32.605  0.00  0.00    -0.266 OA
ATOM     11  C   UNL d   1      57.359   0.649  30.553  0.00  0.00     0.021 C 
ENDROOT
BRANCH   3  12
ATOM     12  C   UNL d   1      58.796   0.662  30.586  0.00  0.00     0.086 A 
ATOM     13  S   UNL d   1      58.530   0.681  29.802  0.00  0.00    -0.082 SA
ATOM     14  C   UNL d   1      59.185   0.616  29.311  0.00  0.00     0.036 A 
ATOM     15  C   UNL d   1      59.860   0.556  29.791  0.00  0.00     0.008 A 
ATOM     16  C   UNL d   1      59.613   0.585  30.583  0.00  0.00     0.012 A 
ENDBRANCH   3  12
BRANCH   4  17
ATOM     17  C   UNL d   1      55.700   0.671  33.818  0.00  0.00     0.086 A 
ATOM     18  S   UNL d   1      55.915   0.679  34.613  0.00  0.00    -0.082 SA
ATOM     19  C   UNL d   1      55.218   0.682  35.062  0.00  0.00     0.036 A 
ATOM     20  C   UNL d   1      54.576   0.676  34.526  0.00  0.00     0.008 A 
ATOM     21  C   UNL d   1      54.889   0.669  33.770  0.00  0.00     0.012 A 
ENDBRANCH   4  17
TORSDOF 2
ENDMDL
MODEL 6
REMARK VINA RESULT:      -2.9      9.597     10.229
REMARK  2 active torsions:
REMARK  status: ('A' for Active; 'I' for Inactive)
REMARK       I    between atoms: C_3  and  N_1 
REMARK       I    between atoms: C_4  and  N_2 
REMARK    1  A    between atoms: C_5  and  C_3 
REMARK    2  A    between atoms: C_6  and  C_4 
ROOT
ATOM      1  N   UNL d   1      58.219  -9.796  31.341  0.00  0.00    -0.270 N 
ATOM      2  N   UNL d   1      59.334  -9.786  32.557  0.00  0.00    -0.269 N 
ATOM      3  C   UNL d   1      57.665  -9.801  30.743  0.00  0.00     0.271 C 
ATOM      4  C   UNL d   1      59.878  -9.781  33.164  0.00  0.00     0.271 C 
ATOM      5  C   UNL d   1      59.030  -9.799  31.159  0.00  0.00     0.085 A 
ATOM      6  C   UNL d   1      59.572  -9.794  31.767  0.00  0.00     0.101 A 
ATOM      7  C   UNL d   1      57.955  -9.789  32.125  0.00  0.00     0.102 A 
ATOM      8  C   UNL d   1      58.523  -9.784  32.738  0.00  0.00     0.102 A 
ATOM      9  O   UNL d   1      56.848  -9.798  30.930  0.00  0.00    -0.266 OA
ATOM     10  O   UNL d   1      60.673  -9.784  32.987  0.00  0.00    -0.266 OA
ATOM     11  C   UNL d   1      59.269  -9.806  30.369  0.00  0.00     0.021 C 
ENDROOT
BRANCH   3  12
ATOM     12  C   UNL d   1      57.893  -9.808  29.953  0.00  0.00     0.086 A 
ATOM     13  S   UNL d   1      58.390  -9.818  29.292  0.00  0.00    -0.082 SA
ATOM     14  C   UNL d   1      57.918  -9.817  28.620  0.00  0.00     0.036 A 
ATOM     15  C   UNL d   1      57.124  -9.806  28.864  0.00  0.00     0.008 A 
ATOM     16  C   UNL d   1      57.113  -9.801  29.695  0.00  0.00     0.012 A 
ENDBRANCH   3  12
BRANCH   4  17
ATOM     17  C   UNL d   1      59.831  -9.774  33.988  0.00  0.00     0.086 A 
ATOM     18  S   UNL d   1      59.380  -9.803  34.677  0.00  0.00    -0.082 SA
ATOM     19  C   UNL d   1      59.901  -9.749  35.320  0.00  0.00     0.036 A 
ATOM     20  C   UNL d   1      60.676  -9.687  35.009  0.00  0.00     0.008 A 
ATOM     21  C   UNL d   1      60.614  -9.704  34.193  0.00  0.00     0.012 A 
ENDBRANCH   4  17
TORSDOF 2
ENDMDL
MODEL 7
REMARK VINA RESULT:      -2.5      9.738      9.928
REMARK  2 active torsions:
REMARK  status: ('A' for Active; 'I' for Inactive)
REMARK       I    between atoms: C_3  and  N_1 
REMARK       I    between atoms: C_4  and  N_2 
REMARK    1  A    between atoms: C_5  and  C_3 
REMARK    2  A    between atoms: C_6  and  C_4 
ROOT
ATOM      1  N   UNL d   1      59.591  -9.754  33.035  0.00  0.00    -0.270 N 
ATOM      2  N   UNL d   1      60.022  -9.785  31.443  0.00  0.00    -0.269 N 
ATOM      3  C   UNL d   1      59.374  -9.739  33.821  0.00  0.00     0.271 C 
ATOM      4  C   UNL d   1      60.225  -9.800  30.653  0.00  0.00     0.271 C 
ATOM      5  C   UNL d   1      60.395  -9.771  32.823  0.00  0.00     0.085 A 
ATOM      6  C   UNL d   1      60.597  -9.786  32.035  0.00  0.00     0.101 A 
ATOM      7  C   UNL d   1      58.996  -9.752  32.460  0.00  0.00     0.102 A 
ATOM      8  C   UNL d   1      59.219  -9.768  31.654  0.00  0.00     0.102 A 
ATOM      9  O   UNL d   1      58.563  -9.722  34.030  0.00  0.00    -0.266 OA
ATOM     10  O   UNL d   1      61.013  -9.817  30.445  0.00  0.00    -0.266 OA
ATOM     11  C   UNL d   1      60.970  -9.772  33.416  0.00  0.00     0.021 C 
ENDROOT
BRANCH   3  12
ATOM     12  C   UNL d   1      59.940  -9.740  34.418  0.00  0.00     0.086 A 
ATOM     13  S   UNL d   1      60.686  -9.737  34.776  0.00  0.00    -0.082 SA
ATOM     14  C   UNL d   1      60.576  -9.744  35.590  0.00  0.00     0.036 A 
ATOM     15  C   UNL d   1      59.758  -9.751  35.738  0.00  0.00     0.008 A 
ATOM     16  C   UNL d   1      59.367  -9.748  35.005  0.00  0.00     0.012 A 
ENDBRANCH   3  12
BRANCH   4  17
ATOM     17  C   UNL d   1      59.804  -9.804  29.944  0.00  0.00     0.086 A 
ATOM     18  S   UNL d   1      59.086  -9.814  29.540  0.00  0.00    -0.082 SA
ATOM     19  C   UNL d   1      59.255  -9.806  28.728  0.00  0.00     0.036 A 
ATOM     20  C   UNL d   1      60.088  -9.790  28.646  0.00  0.00     0.008 A 
ATOM     21  C   UNL d   1      60.407  -9.789  29.400  0.00  0.00     0.012 A 
ENDBRANCH   4  17
TORSDOF 2
ENDMDL
