MODEL 1
REMARK VINA RESULT:      88.8      0.000      0.000
REMARK  6 active torsions:
REMARK  status: ('A' for Active; 'I' for Inactive)
REMARK    1  A    between atoms: C_7  and  C_1 
REMARK    2  A    between atoms: C_10  and  C_2 
REMARK    3  A    between atoms: C_8  and  C_7 
REMARK    4  A    between atoms: C_9  and  C_8 
REMARK    5  A    between atoms: C_13  and  C_9 
REMARK    6  A    between atoms: O_20  and  C_16 
ROOT
ATOM      1  C   UNL d   1      59.603  49.424  50.209  0.00  0.00     0.097 A 
ATOM      2  C   UNL d   1      58.911  49.488  50.653  0.00  0.00     0.009 A 
ATOM      3  C   UNL d   1      59.560  49.403  49.381  0.00  0.00     0.282 A 
ATOM      4  C   UNL d   1      58.175  49.532  50.280  0.00  0.00     0.018 A 
ATOM      5  N   UNL d   1      58.827  49.447  49.020  0.00  0.00    -0.208 NA
ATOM      6  C   UNL d   1      58.132  49.511  49.452  0.00  0.00     0.085 A 
ATOM      7  C   UNL d   1      57.498  49.595  50.723  0.00  0.00     0.008 A 
ATOM      8  O   UNL d   1      60.247  49.339  48.932  0.00  0.00    -0.265 OA
ATOM      9  C   UNL d   1      57.414  49.554  49.091  0.00  0.00     0.020 A 
ATOM     10  C   UNL d   1      56.758  49.640  50.351  0.00  0.00     0.035 A 
ATOM     11  C   UNL d   1      56.715  49.619  49.523  0.00  0.00     0.008 A 
ATOM     12 BR   UNL d   1      56.048  49.705  50.795  0.00  0.00    -0.049 Br
ENDROOT
BRANCH   1  13
ATOM     13  C   UNL d   1      60.361  49.378  50.580  0.00  0.00     0.200 C 
ATOM     14  O   UNL d   1      60.457  49.702  51.328  0.00  0.00    -0.286 OA
BRANCH  13  15
ATOM     15  C   UNL d   1      60.986  49.020  50.207  0.00  0.00     0.042 C 
BRANCH  15  16
ATOM     16  C   UNL d   1      61.460  48.474  50.614  0.00  0.00     0.005 C 
BRANCH  16  17
ATOM     17  C   UNL d   1      61.593  47.731  50.309  0.00  0.00     0.022 A 
ATOM     18  C   UNL d   1      61.521  47.083  50.802  0.00  0.00     0.094 A 
ATOM     19  C   UNL d   1      61.655  46.319  50.500  0.00  0.00     0.024 A 
ATOM     20  C   UNL d   1      61.858  46.242  49.704  0.00  0.00     0.002 A 
ATOM     21  C   UNL d   1      61.927  46.892  49.223  0.00  0.00     0.000 A 
ATOM     22  C   UNL d   1      61.797  47.633  49.516  0.00  0.00     0.002 A 
BRANCH  18  23
ATOM     23  O   UNL d   1      61.317  47.161  51.602  0.00  0.00    -0.328 OA
ATOM     24  C   UNL d   1      61.079  46.505  52.033  0.00  0.00     0.181 C 
ENDBRANCH  18  23
ENDBRANCH  16  17
ENDBRANCH  15  16
ENDBRANCH  13  15
ENDBRANCH   1  13
BRANCH   2  25
ATOM     25  C   UNL d   1      58.955  49.509  51.494  0.00  0.00     0.000 A 
ATOM     26  C   UNL d   1      58.279  49.350  51.946  0.00  0.00     0.000 A 
ATOM     27  C   UNL d   1      58.322  49.371  52.776  0.00  0.00     0.000 A 
ATOM     28  C   UNL d   1      59.040  49.550  53.134  0.00  0.00     0.000 A 
ATOM     29  C   UNL d   1      59.713  49.708  52.678  0.00  0.00     0.000 A 
ATOM     30  C   UNL d   1      59.671  49.687  51.865  0.00  0.00     0.000 A 
ENDBRANCH   2  25
TORSDOF 6
ENDMDL
