MODEL 1
REMARK VINA RESULT:      36.4      0.000      0.000
REMARK  2 active torsions:
REMARK  status: ('A' for Active; 'I' for Inactive)
REMARK    1  A    between atoms: C_7  and  C_4 
REMARK    2  A    between atoms: O_13  and  C_11 
ROOT
ATOM      1  N   UNL d   1     -56.619 -99.021 -44.283  0.00  0.00    -0.211 NA
ATOM      2  C   UNL d   1     -55.828 -99.286 -44.302  0.00  0.00     0.140 A 
ATOM      3  C   UNL d   1     -55.666-100.078 -44.450  0.00  0.00     0.051 A 
ATOM      4  C   UNL d   1     -57.233 -99.561 -44.413  0.00  0.00     0.183 A 
ATOM      5  C   UNL d   1     -56.281-100.612 -44.579  0.00  0.00     0.104 A 
ATOM      6  O   UNL d   1     -57.065-100.354 -44.561  0.00  0.00    -0.289 OA
ATOM      7  S   UNL d   1     -55.210 -98.755 -44.173  0.00  0.00    -0.057 SA
ATOM      8  C   UNL d   1     -54.885-100.346 -44.470  0.00  0.00     0.004 A 
ATOM      9  C   UNL d   1     -56.124-101.404 -44.728  0.00  0.00     0.025 A 
ATOM     10  C   UNL d   1     -54.716-101.144 -44.619  0.00  0.00     0.000 A 
ATOM     11  C   UNL d   1     -55.339-101.669 -44.747  0.00  0.00     0.002 A 
ENDROOT
BRANCH   4  12
ATOM     12  C   UNL d   1     -58.009 -99.293 -44.393  0.00  0.00     0.043 A 
ATOM     13  C   UNL d   1     -58.392 -99.163 -43.685  0.00  0.00     0.028 A 
ATOM     14  C   UNL d   1     -59.165 -98.896 -43.670  0.00  0.00     0.094 A 
ATOM     15  C   UNL d   1     -59.567 -98.755 -44.377  0.00  0.00     0.024 A 
ATOM     16  C   UNL d   1     -59.181 -98.887 -45.097  0.00  0.00     0.002 A 
ATOM     17  C   UNL d   1     -58.404 -99.155 -45.113  0.00  0.00     0.004 A 
BRANCH  14  18
ATOM     18  O   UNL d   1     -59.547 -98.766 -42.953  0.00  0.00    -0.328 OA
ATOM     19  C   UNL d   1     -59.949 -99.380 -42.579  0.00  0.00     0.181 C 
ENDBRANCH  14  18
ENDBRANCH   4  12
TORSDOF 2
ENDMDL
MODEL 2
REMARK VINA RESULT:      38.6      0.689      1.243
REMARK  2 active torsions:
REMARK  status: ('A' for Active; 'I' for Inactive)
REMARK    1  A    between atoms: C_7  and  C_4 
REMARK    2  A    between atoms: O_13  and  C_11 
ROOT
ATOM      1  N   UNL d   1     -56.597 -99.017 -44.235  0.00  0.00    -0.211 NA
ATOM      2  C   UNL d   1     -55.808 -99.275 -44.315  0.00  0.00     0.140 A 
ATOM      3  C   UNL d   1     -55.653-100.052 -44.536  0.00  0.00     0.051 A 
ATOM      4  C   UNL d   1     -57.217 -99.546 -44.380  0.00  0.00     0.183 A 
ATOM      5  C   UNL d   1     -56.274-100.576 -44.680  0.00  0.00     0.104 A 
ATOM      6  O   UNL d   1     -57.056-100.323 -44.602  0.00  0.00    -0.289 OA
ATOM      7  S   UNL d   1     -55.185 -98.755 -44.172  0.00  0.00    -0.057 SA
ATOM      8  C   UNL d   1     -54.874-100.314 -44.617  0.00  0.00     0.004 A 
ATOM      9  C   UNL d   1     -56.125-101.353 -44.901  0.00  0.00     0.025 A 
ATOM     10  C   UNL d   1     -54.712-101.096 -44.840  0.00  0.00     0.000 A 
ATOM     11  C   UNL d   1     -55.341-101.611 -44.980  0.00  0.00     0.002 A 
ENDROOT
BRANCH   4  12
ATOM     12  C   UNL d   1     -57.991 -99.284 -44.300  0.00  0.00     0.043 A 
ATOM     13  C   UNL d   1     -58.484 -99.221 -44.946  0.00  0.00     0.028 A 
ATOM     14  C   UNL d   1     -59.254 -98.960 -44.861  0.00  0.00     0.094 A 
ATOM     15  C   UNL d   1     -59.541 -98.756 -44.114  0.00  0.00     0.024 A 
ATOM     16  C   UNL d   1     -59.042 -98.819 -43.456  0.00  0.00     0.002 A 
ATOM     17  C   UNL d   1     -58.268 -99.081 -43.541  0.00  0.00     0.004 A 
BRANCH  14  18
ATOM     18  O   UNL d   1     -59.749 -98.898 -45.516  0.00  0.00    -0.328 OA
ATOM     19  C   UNL d   1     -59.429 -98.830 -46.272  0.00  0.00     0.181 C 
ENDBRANCH  14  18
ENDBRANCH   4  12
TORSDOF 2
ENDMDL
