MODEL 1
REMARK VINA RESULT:      92.7      0.000      0.000
REMARK  5 active torsions:
REMARK  status: ('A' for Active; 'I' for Inactive)
REMARK    1  A    between atoms: C_9  and  N_1 
REMARK    2  A    between atoms: C_6  and  C_2 
REMARK    3  A    between atoms: O_10  and  C_6 
REMARK    4  A    between atoms: C_13  and  C_9 
REMARK    5  A    between atoms: C_19  and  O_10 
ROOT
ATOM      1  N   UNL d   1      60.702  49.070  50.971  0.00  0.00    -0.271 N 
ATOM      2  C   UNL d   1      60.567  47.916  50.325  0.00  0.00     0.120 A 
ATOM      3  C   UNL d   1      61.115  48.412  50.692  0.00  0.00     0.177 A 
ATOM      4  C   UNL d   1      59.906  48.979  50.777  0.00  0.00     0.167 A 
ATOM      5  C   UNL d   1      59.823  48.270  50.379  0.00  0.00     0.124 A 
ATOM      6  N   UNL d   1      59.249  49.458  50.915  0.00  0.00    -0.225 NA
ATOM      7  N   UNL d   1      59.081  48.029  50.114  0.00  0.00    -0.241 NA
ATOM      8  C   UNL d   1      58.510  49.225  50.654  0.00  0.00     0.101 A 
ATOM      9  C   UNL d   1      58.429  48.509  50.253  0.00  0.00     0.099 A 
ATOM     10  N   UNL d   1      61.928  48.279  50.769  0.00  0.00    -0.128 N 
ATOM     11  C   UNL d   1      57.860  49.706  50.794  0.00  0.00     0.021 A 
ATOM     12  C   UNL d   1      57.676  48.277  49.991  0.00  0.00     0.021 A 
ATOM     13  C   UNL d   1      57.110  49.466  50.528  0.00  0.00     0.002 A 
ATOM     14  C   UNL d   1      57.030  48.758  50.132  0.00  0.00     0.002 A 
ENDROOT
BRANCH   2  15
ATOM     15  C   UNL d   1      60.740  47.187  49.963  0.00  0.00     0.300 C 
ATOM     16  O   UNL d   1      60.720  47.118  49.153  0.00  0.00    -0.259 OA
BRANCH  15  17
ATOM     17  O   UNL d   1      60.931  46.529  50.436  0.00  0.00    -0.303 OA
BRANCH  17  18
ATOM     18  C   UNL d   1      61.271  45.866  50.085  0.00  0.00     0.102 C 
ATOM     19  C   UNL d   1      61.765  46.356  49.628  0.00  0.00     0.030 C 
ATOM     20  C   UNL d   1      60.783  45.372  50.536  0.00  0.00     0.030 C 
ATOM     21  C   UNL d   1      61.612  45.194  49.732  0.00  0.00     0.030 C 
ENDBRANCH  17  18
ENDBRANCH  15  17
ENDBRANCH   2  15
BRANCH   1  22
ATOM     22  C   UNL d   1      61.031  49.707  51.375  0.00  0.00     0.108 C 
BRANCH  22  23
ATOM     23  C   UNL d   1      61.049  49.707  52.204  0.00  0.00     0.118 A 
ATOM     24  O   UNL d   1      61.729  49.708  52.672  0.00  0.00    -0.304 OA
ATOM     25  C   UNL d   1      61.487  49.708  53.466  0.00  0.00     0.123 A 
ATOM     26  C   UNL d   1      60.668  49.707  53.473  0.00  0.00     0.029 A 
ATOM     27  C   UNL d   1      60.395  49.707  52.701  0.00  0.00     0.028 A 
ENDBRANCH  22  23
ENDBRANCH   1  22
TORSDOF 5
ENDMDL
