MODEL 1
REMARK VINA RESULT:      -3.1      0.000      0.000
REMARK  3 active torsions:
REMARK  status: ('A' for Active; 'I' for Inactive)
REMARK    1  A    between atoms: C_2  and  C_1 
REMARK    2  A    between atoms: C_14  and  O_17 
REMARK    3  A    between atoms: O_17  and  C_16 
ROOT
ATOM      1  C   UNL d   1      32.914  20.533 -21.695  0.00  0.00     0.087 A 
ATOM      2  C   UNL d   1      32.963  20.539 -22.522  0.00  0.00     0.201 A 
ATOM      3  C   UNL d   1      33.030  19.838 -22.953  0.00  0.00     0.062 A 
ATOM      4  C   UNL d   1      32.932  19.806 -21.298  0.00  0.00     0.128 A 
ATOM      5  C   UNL d   1      33.048  19.107 -22.554  0.00  0.00     0.105 A 
ATOM      6  O   UNL d   1      33.000  19.089 -21.731  0.00  0.00    -0.305 OA
ATOM      7  C   UNL d   1      33.115  18.407 -22.985  0.00  0.00     0.050 A 
ATOM      8  C   UNL d   1      33.079  19.841 -23.773  0.00  0.00     0.007 A 
ATOM      9  O   UNL d   1      32.946  21.258 -22.931  0.00  0.00    -0.286 OA
ATOM     10  C   UNL d   1      33.163  18.430 -23.800  0.00  0.00     0.105 A 
ATOM     11  C   UNL d   1      33.144  19.161 -24.199  0.00  0.00     0.025 A 
ENDROOT
BRANCH   1  12
ATOM     12  C   UNL d   1      32.848  21.229 -21.271  0.00  0.00     0.116 A 
ATOM     13  N   UNL d   1      32.387  21.882 -21.481  0.00  0.00    -0.238 NA
ATOM     14  C   UNL d   1      32.489  22.454 -20.894  0.00  0.00     0.088 A 
ATOM     15  C   UNL d   1      32.174  23.205 -20.810  0.00  0.00     0.020 A 
ATOM     16  C   UNL d   1      33.006  22.161 -20.328  0.00  0.00     0.049 A 
ATOM     17  C   UNL d   1      32.369  23.676 -20.157  0.00  0.00     0.002 A 
ATOM     18  C   UNL d   1      32.894  23.370 -19.588  0.00  0.00     0.001 A 
ATOM     19  C   UNL d   1      33.210  22.619 -19.673  0.00  0.00     0.008 A 
ATOM     20  S   UNL d   1      33.240  21.391 -20.551  0.00  0.00    -0.066 SA
ENDBRANCH   1  12
BRANCH  10  21
ATOM     21  O   UNL d   1      33.230  17.717 -24.224  0.00  0.00    -0.273 OA
BRANCH  21  22
ATOM     22  C   UNL d   1      32.563  17.266 -24.394  0.00  0.00     0.300 C 
ATOM     23  O   UNL d   1      32.091  17.445 -25.048  0.00  0.00    -0.259 OA
ATOM     24  C   UNL d   1      32.356  16.621 -23.907  0.00  0.00     0.074 C 
ENDBRANCH  21  22
ENDBRANCH  10  21
TORSDOF 3
ENDMDL
MODEL 2
REMARK VINA RESULT:      -3.1      0.877      1.125
REMARK  3 active torsions:
REMARK  status: ('A' for Active; 'I' for Inactive)
REMARK    1  A    between atoms: C_2  and  C_1 
REMARK    2  A    between atoms: C_14  and  O_17 
REMARK    3  A    between atoms: O_17  and  C_16 
ROOT
ATOM      1  C   UNL d   1      32.982  20.064 -22.259  0.00  0.00     0.087 A 
ATOM      2  C   UNL d   1      32.898  19.842 -23.053  0.00  0.00     0.201 A 
ATOM      3  C   UNL d   1      32.982  19.056 -23.290  0.00  0.00     0.062 A 
ATOM      4  C   UNL d   1      33.153  19.481 -21.696  0.00  0.00     0.128 A 
ATOM      5  C   UNL d   1      33.155  18.470 -22.724  0.00  0.00     0.105 A 
ATOM      6  O   UNL d   1      33.241  18.678 -21.931  0.00  0.00    -0.305 OA
ATOM      7  C   UNL d   1      33.239  17.684 -22.962  0.00  0.00     0.050 A 
ATOM      8  C   UNL d   1      32.900  18.834 -24.077  0.00  0.00     0.007 A 
ATOM      9  O   UNL d   1      32.726  20.415 -23.625  0.00  0.00    -0.286 OA
ATOM     10  C   UNL d   1      33.154  17.482 -23.749  0.00  0.00     0.105 A 
ATOM     11  C   UNL d   1      32.981  18.068 -24.314  0.00  0.00     0.025 A 
ENDROOT
BRANCH   1  12
ATOM     12  C   UNL d   1      32.897  20.843 -22.027  0.00  0.00     0.116 A 
ATOM     13  N   UNL d   1      33.216  21.501 -22.413  0.00  0.00    -0.238 NA
ATOM     14  C   UNL d   1      32.991  22.171 -21.986  0.00  0.00     0.088 A 
ATOM     15  C   UNL d   1      33.144  22.966 -22.106  0.00  0.00     0.020 A 
ATOM     16  C   UNL d   1      32.539  21.933 -21.344  0.00  0.00     0.049 A 
ATOM     17  C   UNL d   1      32.847  23.538 -21.586  0.00  0.00     0.002 A 
ATOM     18  C   UNL d   1      32.389  23.287 -20.937  0.00  0.00     0.001 A 
ATOM     19  C   UNL d   1      32.236  22.492 -20.817  0.00  0.00     0.008 A 
ATOM     20  S   UNL d   1      32.471  21.101 -21.356  0.00  0.00    -0.066 SA
ENDBRANCH   1  12
BRANCH  10  21
ATOM     21  O   UNL d   1      33.241  16.686 -23.976  0.00  0.00    -0.273 OA
BRANCH  21  22
ATOM     22  C   UNL d   1      32.620  16.153 -23.885  0.00  0.00     0.300 C 
ATOM     23  O   UNL d   1      31.883  16.305 -24.227  0.00  0.00    -0.259 OA
ATOM     24  C   UNL d   1      32.729  15.453 -23.446  0.00  0.00     0.074 C 
ENDBRANCH  21  22
ENDBRANCH  10  21
TORSDOF 3
ENDMDL
MODEL 3
REMARK VINA RESULT:      -3.1      1.821      5.342
REMARK  3 active torsions:
REMARK  status: ('A' for Active; 'I' for Inactive)
REMARK    1  A    between atoms: C_2  and  C_1 
REMARK    2  A    between atoms: C_14  and  O_17 
REMARK    3  A    between atoms: O_17  and  C_16 
ROOT
ATOM      1  C   UNL d   1      32.855  18.835 -23.625  0.00  0.00     0.087 A 
ATOM      2  C   UNL d   1      32.734  19.007 -22.824  0.00  0.00     0.201 A 
ATOM      3  C   UNL d   1      32.859  19.766 -22.524  0.00  0.00     0.062 A 
ATOM      4  C   UNL d   1      33.107  19.441 -24.130  0.00  0.00     0.128 A 
ATOM      5  C   UNL d   1      33.112  20.376 -23.032  0.00  0.00     0.105 A 
ATOM      6  O   UNL d   1      33.236  20.216 -23.832  0.00  0.00    -0.305 OA
ATOM      7  C   UNL d   1      33.236  21.133 -22.732  0.00  0.00     0.050 A 
ATOM      8  C   UNL d   1      32.739  19.939 -21.729  0.00  0.00     0.007 A 
ATOM      9  O   UNL d   1      32.482  18.411 -22.308  0.00  0.00    -0.286 OA
ATOM     10  C   UNL d   1      33.112  21.287 -21.939  0.00  0.00     0.105 A 
ATOM     11  C   UNL d   1      32.859  20.677 -21.431  0.00  0.00     0.025 A 
ENDROOT
BRANCH   1  12
ATOM     12  C   UNL d   1      32.731  18.083 -23.919  0.00  0.00     0.116 A 
ATOM     13  N   UNL d   1      33.241  17.438 -23.833  0.00  0.00    -0.238 NA
ATOM     14  C   UNL d   1      32.893  16.795 -24.216  0.00  0.00     0.088 A 
ATOM     15  C   UNL d   1      33.143  16.021 -24.311  0.00  0.00     0.020 A 
ATOM     16  C   UNL d   1      32.177  17.036 -24.536  0.00  0.00     0.049 A 
ATOM     17  C   UNL d   1      32.681  15.475 -24.728  0.00  0.00     0.002 A 
ATOM     18  C   UNL d   1      31.956  15.729 -25.049  0.00  0.00     0.001 A 
ATOM     19  C   UNL d   1      31.706  16.503 -24.954  0.00  0.00     0.008 A 
ATOM     20  S   UNL d   1      32.061  17.843 -24.357  0.00  0.00    -0.066 SA
ENDBRANCH   1  12
BRANCH  10  21
ATOM     21  O   UNL d   1      33.241  22.056 -21.648  0.00  0.00    -0.273 OA
BRANCH  21  22
ATOM     22  C   UNL d   1      32.614  22.506 -21.361  0.00  0.00     0.300 C 
ATOM     23  O   UNL d   1      32.107  22.899 -21.880  0.00  0.00    -0.259 OA
ATOM     24  C   UNL d   1      32.485  22.570 -20.539  0.00  0.00     0.074 C 
ENDBRANCH  21  22
ENDBRANCH  10  21
TORSDOF 3
ENDMDL
