MODEL 1
REMARK VINA RESULT:      42.0      0.000      0.000
REMARK  11 active torsions:
REMARK  status: ('A' for Active; 'I' for Inactive)
REMARK    1  A    between atoms: N_2  and  S_1 
REMARK    2  A    between atoms: C_4  and  S_1 
REMARK    3  A    between atoms: C_22  and  N_2 
REMARK    4  A    between atoms: C_3  and  C_8 
REMARK       I    between atoms: N_16  and  C_3 
REMARK    5  A    between atoms: O_28  and  C_7 
REMARK    6  A    between atoms: C_9  and  C_10 
REMARK    7  A    between atoms: O_29  and  C_11 
REMARK    8  A    between atoms: C_30  and  N_16 
REMARK    9  A    between atoms: C_24  and  C_22 
REMARK   10  A    between atoms: C_23  and  C_34 
REMARK   11  A    between atoms: C_34  and  C_30 
ROOT
ATOM      1  C   UNL d   1      45.937 -18.111  41.313  0.00  0.00     0.058 A 
ATOM      2  C   UNL d   1      46.168 -17.423  41.691  0.00  0.00     0.005 A 
ATOM      3  C   UNL d   1      45.849 -18.810  41.759  0.00  0.00     0.005 A 
ATOM      4  C   UNL d   1      46.225 -18.107  42.947  0.00  0.00     0.020 A 
ATOM      5  C   UNL d   1      46.313 -17.414  42.506  0.00  0.00     0.002 A 
ATOM      6  C   UNL d   1      45.994 -18.801  42.575  0.00  0.00     0.002 A 
ENDROOT
BRANCH   1   7
ATOM      7  C   UNL d   1      45.793 -18.123  40.506  0.00  0.00     0.279 C 
ATOM      8  O   UNL d   1      45.818 -18.843  40.095  0.00  0.00    -0.265 OA
ATOM      9  N   UNL d   1      45.625 -17.426  40.105  0.00  0.00    -0.206 NA
BRANCH   9  10
ATOM     10  C   UNL d   1      45.480 -17.444  39.293  0.00  0.00     0.102 C 
BRANCH  10  11
ATOM     11  C   UNL d   1      45.786 -16.851  38.820  0.00  0.00     0.021 C 
BRANCH  11  12
ATOM     12  C   UNL d   1      45.331 -16.541  38.222  0.00  0.00     0.004 A 
ATOM     13  C   UNL d   1      45.646 -15.996  37.689  0.00  0.00     0.026 A 
ATOM     14  C   UNL d   1      45.182 -15.691  37.092  0.00  0.00     0.116 A 
ATOM     15  C   UNL d   1      44.387 -15.929  37.019  0.00  0.00     0.116 A 
ATOM     16  C   UNL d   1      44.072 -16.467  37.541  0.00  0.00     0.026 A 
ATOM     17  C   UNL d   1      44.543 -16.777  38.147  0.00  0.00     0.002 A 
BRANCH  14  18
ATOM     18  O   UNL d   1      45.503 -15.144  36.561  0.00  0.00    -0.326 OA
ATOM     19  C   UNL d   1      46.049 -14.486  36.735  0.00  0.00     0.181 C 
ENDBRANCH  14  18
BRANCH  15  20
ATOM     20  O   UNL d   1      43.912 -15.635  36.430  0.00  0.00    -0.326 OA
ATOM     21  C   UNL d   1      43.142 -15.879  36.364  0.00  0.00     0.181 C 
ENDBRANCH  15  20
ENDBRANCH  11  12
ENDBRANCH  10  11
ENDBRANCH   9  10
ENDBRANCH   1   7
BRANCH   4  22
ATOM     22  C   UNL d   1      46.370 -18.098  43.763  0.00  0.00     0.112 C 
BRANCH  22  23
ATOM     23  N   UNL d   1      45.825 -17.763  44.276  0.00  0.00    -0.157 NA
BRANCH  23  24
ATOM     24  S   UNL d   1      45.796 -16.945  44.393  0.00  0.00     0.285 S 
ATOM     25  O   UNL d   1      46.543 -16.962  44.730  0.00  0.00    -0.198 OA
ATOM     26  O   UNL d   1      45.042 -16.935  44.051  0.00  0.00    -0.198 OA
BRANCH  24  27
ATOM     27  C   UNL d   1      45.753 -16.133  44.503  0.00  0.00     0.105 A 
ATOM     28  C   UNL d   1      45.059 -15.807  44.806  0.00  0.00     0.013 A 
ATOM     29  C   UNL d   1      45.007 -14.983  44.921  0.00  0.00    -0.004 A 
ATOM     30  C   UNL d   1      45.656 -14.501  44.728  0.00  0.00    -0.023 A 
ATOM     31  C   UNL d   1      46.344 -14.833  44.427  0.00  0.00    -0.004 A 
ATOM     32  C   UNL d   1      46.390 -15.652  44.314  0.00  0.00     0.013 A 
BRANCH  30  33
ATOM     33  C   UNL d   1      45.607 -13.684  44.841  0.00  0.00     0.019 C 
ATOM     34  C   UNL d   1      44.792 -13.749  44.954  0.00  0.00     0.004 C 
ATOM     35  C   UNL d   1      46.419 -13.629  44.728  0.00  0.00     0.004 C 
ATOM     36  C   UNL d   1      45.555 -12.871  44.954  0.00  0.00     0.004 C 
ENDBRANCH  30  33
ENDBRANCH  24  27
ENDBRANCH  23  24
ENDBRANCH  22  23
ENDBRANCH   4  22
TORSDOF 11
ENDMDL
