MODEL 1
REMARK VINA RESULT:      -5.0      0.000      0.000
REMARK  4 active torsions:
REMARK  status: ('A' for Active; 'I' for Inactive)
REMARK       I    between atoms: C_2  and  N_1 
REMARK    1  A    between atoms: C_3  and  N_1 
REMARK       I    between atoms: N_6  and  C_2 
REMARK    2  A    between atoms: C_9  and  N_6 
REMARK    3  A    between atoms: C_10  and  C_9 
REMARK    4  A    between atoms: C_11  and  C_10 
ROOT
ATOM      1  N   UNL d   1     -41.727-121.959 -51.500  0.00  0.00    -0.172 NA
ATOM      2  C   UNL d   1     -41.776-122.368 -52.215  0.00  0.00     0.370 C 
ATOM      3  O   UNL d   1     -41.889-123.181 -52.219  0.00  0.00    -0.242 OA
ATOM      4  N   UNL d   1     -41.711-121.954 -52.930  0.00  0.00    -0.189 NA
ENDROOT
BRANCH   1   5
ATOM      5  C   UNL d   1     -41.792-122.372 -50.785  0.00  0.00     0.167 A 
ATOM      6  N   UNL d   1     -42.521-122.438 -50.413  0.00  0.00    -0.225 NA
ATOM      7  C   UNL d   1     -42.584-122.849 -49.703  0.00  0.00     0.101 A 
ATOM      8  C   UNL d   1     -41.916-123.197 -49.361  0.00  0.00     0.021 A 
ATOM      9  C   UNL d   1     -41.187-123.126 -49.742  0.00  0.00     0.005 A 
ATOM     10  C   UNL d   1     -41.123-122.718 -50.449  0.00  0.00     0.039 A 
ENDBRANCH   1   5
BRANCH   4  11
ATOM     11  C   UNL d   1     -41.760-122.363 -53.645  0.00  0.00     0.104 C 
BRANCH  11  12
ATOM     12  C   UNL d   1     -41.832-121.942 -54.347  0.00  0.00     0.021 C 
BRANCH  12  13
ATOM     13  C   UNL d   1     -41.927-122.350 -55.062  0.00  0.00     0.002 C 
ATOM     14  C   UNL d   1     -42.297-121.984 -55.695  0.00  0.00     0.000 C 
ENDBRANCH  12  13
ENDBRANCH  11  12
ENDBRANCH   4  11
TORSDOF 4
ENDMDL
MODEL 2
REMARK VINA RESULT:      -5.0      0.881      4.153
REMARK  4 active torsions:
REMARK  status: ('A' for Active; 'I' for Inactive)
REMARK       I    between atoms: C_2  and  N_1 
REMARK    1  A    between atoms: C_3  and  N_1 
REMARK       I    between atoms: N_6  and  C_2 
REMARK    2  A    between atoms: C_9  and  N_6 
REMARK    3  A    between atoms: C_10  and  C_9 
REMARK    4  A    between atoms: C_11  and  C_10 
ROOT
ATOM      1  N   UNL d   1     -41.349-121.963 -53.196  0.00  0.00    -0.172 NA
ATOM      2  C   UNL d   1     -41.468-122.577 -52.657  0.00  0.00     0.370 C 
ATOM      3  O   UNL d   1     -41.871-123.255 -52.887  0.00  0.00    -0.242 OA
ATOM      4  N   UNL d   1     -41.179-122.508 -51.883  0.00  0.00    -0.189 NA
ENDROOT
BRANCH   1   5
ATOM      5  C   UNL d   1     -41.638-122.033 -53.969  0.00  0.00     0.167 A 
ATOM      6  N   UNL d   1     -42.341-121.666 -54.180  0.00  0.00    -0.225 NA
ATOM      7  C   UNL d   1     -42.626-121.736 -54.948  0.00  0.00     0.101 A 
ATOM      8  C   UNL d   1     -42.208-122.175 -55.511  0.00  0.00     0.021 A 
ATOM      9  C   UNL d   1     -41.501-122.542 -55.290  0.00  0.00     0.005 A 
ATOM     10  C   UNL d   1     -41.216-122.473 -54.525  0.00  0.00     0.039 A 
ENDBRANCH   1   5
BRANCH   4  11
ATOM     11  C   UNL d   1     -41.299-123.122 -51.345  0.00  0.00     0.104 C 
BRANCH  11  12
ATOM     12  C   UNL d   1     -41.210-122.977 -50.541  0.00  0.00     0.021 C 
BRANCH  12  13
ATOM     13  C   UNL d   1     -41.128-123.614 -50.018  0.00  0.00     0.002 C 
ATOM     14  C   UNL d   1     -41.192-123.489 -49.210  0.00  0.00     0.000 C 
ENDBRANCH  12  13
ENDBRANCH  11  12
ENDBRANCH   4  11
TORSDOF 4
ENDMDL
MODEL 3
REMARK VINA RESULT:      -4.1      1.188      1.715
REMARK  4 active torsions:
REMARK  status: ('A' for Active; 'I' for Inactive)
REMARK       I    between atoms: C_2  and  N_1 
REMARK    1  A    between atoms: C_3  and  N_1 
REMARK       I    between atoms: N_6  and  C_2 
REMARK    2  A    between atoms: C_9  and  N_6 
REMARK    3  A    between atoms: C_10  and  C_9 
REMARK    4  A    between atoms: C_11  and  C_10 
ROOT
ATOM      1  N   UNL d   1     -42.147-123.707 -50.576  0.00  0.00    -0.172 NA
ATOM      2  C   UNL d   1     -41.717-123.239 -51.103  0.00  0.00     0.370 C 
ATOM      3  O   UNL d   1     -41.313-122.578 -50.832  0.00  0.00    -0.242 OA
ATOM      4  N   UNL d   1     -41.694-123.440 -51.907  0.00  0.00    -0.189 NA
ENDROOT
BRANCH   1   5
ATOM      5  C   UNL d   1     -42.170-123.507 -49.773  0.00  0.00     0.167 A 
ATOM      6  N   UNL d   1     -41.571-123.755 -49.270  0.00  0.00    -0.225 NA
ATOM      7  C   UNL d   1     -41.596-123.555 -48.473  0.00  0.00     0.101 A 
ATOM      8  C   UNL d   1     -42.222-123.105 -48.174  0.00  0.00     0.021 A 
ATOM      9  C   UNL d   1     -42.821-122.859 -48.687  0.00  0.00     0.005 A 
ATOM     10  C   UNL d   1     -42.798-123.057 -49.481  0.00  0.00     0.039 A 
ENDBRANCH   1   5
BRANCH   4  11
ATOM     11  C   UNL d   1     -41.264-122.972 -52.433  0.00  0.00     0.104 C 
BRANCH  11  12
ATOM     12  C   UNL d   1     -41.182-123.213 -53.214  0.00  0.00     0.021 C 
BRANCH  12  13
ATOM     13  C   UNL d   1     -41.207-122.650 -53.821  0.00  0.00     0.002 C 
ATOM     14  C   UNL d   1     -41.274-122.893 -54.601  0.00  0.00     0.000 C 
ENDBRANCH  12  13
ENDBRANCH  11  12
ENDBRANCH   4  11
TORSDOF 4
ENDMDL
