MODEL 1
REMARK VINA RESULT:      -7.5      0.000      0.000
REMARK  6 active torsions:
REMARK  status: ('A' for Active; 'I' for Inactive)
REMARK    1  A    between atoms: S_6  and  C_1 
REMARK    2  A    between atoms: C_7  and  S_6 
REMARK    3  A    between atoms: C_8  and  C_7 
REMARK    4  A    between atoms: O_14  and  C_9 
REMARK    5  A    between atoms: C_17  and  O_14 
REMARK    6  A    between atoms: C_18  and  C_17 
ROOT
ATOM      1  C   UNL d   1      50.310  34.389  52.576  0.00  0.00     0.038 C 
ENDROOT
BRANCH   1   2
ATOM      2  S   UNL d   1      49.866  34.809  53.130  0.00  0.00    -0.048 SA
BRANCH   2   3
ATOM      3  C   UNL d   1      49.161  35.173  52.904  0.00  0.00     0.194 A 
ATOM      4  N   UNL d   1      48.745  35.050  52.205  0.00  0.00    -0.220 NA
ATOM      5  C   UNL d   1      48.062  35.544  52.223  0.00  0.00     0.101 A 
ATOM      6  C   UNL d   1      47.455  35.645  51.675  0.00  0.00     0.021 A 
ATOM      7  C   UNL d   1      48.055  35.968  52.926  0.00  0.00     0.101 A 
ATOM      8  C   UNL d   1      46.864  36.161  51.839  0.00  0.00     0.002 A 
ATOM      9  C   UNL d   1      46.857  36.586  52.541  0.00  0.00     0.002 A 
ATOM     10  C   UNL d   1      47.441  36.496  53.083  0.00  0.00     0.021 A 
ATOM     11  N   UNL d   1      48.733  35.744  53.354  0.00  0.00    -0.220 NA
ENDBRANCH   2   3
ENDBRANCH   1   2
BRANCH   1  12
ATOM     12  C   UNL d   1      51.020  34.049  52.826  0.00  0.00     0.007 A 
ATOM     13  C   UNL d   1      51.719  34.462  52.678  0.00  0.00     0.003 A 
ATOM     14  C   UNL d   1      52.442  34.146  52.917  0.00  0.00     0.025 A 
ATOM     15  C   UNL d   1      52.467  33.418  53.305  0.00  0.00     0.100 A 
ATOM     16  C   UNL d   1      51.781  33.029  53.442  0.00  0.00     0.025 A 
ATOM     17  C   UNL d   1      51.058  33.345  53.203  0.00  0.00     0.003 A 
BRANCH  15  18
ATOM     18  O   UNL d   1      53.191  33.102  53.545  0.00  0.00    -0.305 OA
BRANCH  18  19
ATOM     19  C   UNL d   1      53.520  33.327  54.267  0.00  0.00     0.123 C 
BRANCH  19  20
ATOM     20  C   UNL d   1      54.203  32.956  54.542  0.00  0.00     0.027 C 
ATOM     21  C   UNL d   1      54.641  33.299  55.157  0.00  0.00     0.002 C 
ENDBRANCH  19  20
ENDBRANCH  18  19
ENDBRANCH  15  18
ENDBRANCH   1  12
TORSDOF 6
ENDMDL
MODEL 2
REMARK VINA RESULT:      -7.4      1.983      5.600
REMARK  6 active torsions:
REMARK  status: ('A' for Active; 'I' for Inactive)
REMARK    1  A    between atoms: S_6  and  C_1 
REMARK    2  A    between atoms: C_7  and  S_6 
REMARK    3  A    between atoms: C_8  and  C_7 
REMARK    4  A    between atoms: O_14  and  C_9 
REMARK    5  A    between atoms: C_17  and  O_14 
REMARK    6  A    between atoms: C_18  and  C_17 
ROOT
ATOM      1  C   UNL d   1      51.247  33.852  52.934  0.00  0.00     0.038 C 
ENDROOT
BRANCH   1   2
ATOM      2  S   UNL d   1      51.872  34.369  53.090  0.00  0.00    -0.048 SA
BRANCH   2   3
ATOM      3  C   UNL d   1      52.550  34.093  53.471  0.00  0.00     0.194 A 
ATOM      4  N   UNL d   1      53.066  33.513  53.200  0.00  0.00    -0.220 NA
ATOM      5  C   UNL d   1      53.674  33.421  53.778  0.00  0.00     0.101 A 
ATOM      6  C   UNL d   1      54.330  32.923  53.795  0.00  0.00     0.021 A 
ATOM      7  C   UNL d   1      53.535  33.939  54.399  0.00  0.00     0.101 A 
ATOM      8  C   UNL d   1      54.825  32.952  54.425  0.00  0.00     0.002 A 
ATOM      9  C   UNL d   1      54.687  33.470  55.047  0.00  0.00     0.002 A 
ATOM     10  C   UNL d   1      54.052  33.960  55.041  0.00  0.00     0.021 A 
ATOM     11  N   UNL d   1      52.840  34.360  54.218  0.00  0.00    -0.220 NA
ENDBRANCH   2   3
ENDBRANCH   1   2
BRANCH   1  12
ATOM     12  C   UNL d   1      50.547  34.172  52.636  0.00  0.00     0.007 A 
ATOM     13  C   UNL d   1      50.386  34.069  51.834  0.00  0.00     0.003 A 
ATOM     14  C   UNL d   1      49.693  34.377  51.509  0.00  0.00     0.025 A 
ATOM     15  C   UNL d   1      49.161  34.790  51.987  0.00  0.00     0.100 A 
ATOM     16  C   UNL d   1      49.331  34.882  52.763  0.00  0.00     0.025 A 
ATOM     17  C   UNL d   1      50.023  34.573  53.088  0.00  0.00     0.003 A 
BRANCH  15  18
ATOM     18  O   UNL d   1      48.469  35.099  51.663  0.00  0.00    -0.305 OA
BRANCH  18  19
ATOM     19  C   UNL d   1      48.006  35.623  52.101  0.00  0.00     0.123 C 
BRANCH  19  20
ATOM     20  C   UNL d   1      47.306  35.920  51.782  0.00  0.00     0.027 C 
ATOM     21  C   UNL d   1      46.829  36.427  52.233  0.00  0.00     0.002 C 
ENDBRANCH  19  20
ENDBRANCH  18  19
ENDBRANCH  15  18
ENDBRANCH   1  12
TORSDOF 6
ENDMDL
MODEL 3
REMARK VINA RESULT:      -6.4      2.013      5.655
REMARK  6 active torsions:
REMARK  status: ('A' for Active; 'I' for Inactive)
REMARK    1  A    between atoms: S_6  and  C_1 
REMARK    2  A    between atoms: C_7  and  S_6 
REMARK    3  A    between atoms: C_8  and  C_7 
REMARK    4  A    between atoms: O_14  and  C_9 
REMARK    5  A    between atoms: C_17  and  O_14 
REMARK    6  A    between atoms: C_18  and  C_17 
ROOT
ATOM      1  C   UNL d   1      50.161  34.305  52.205  0.00  0.00     0.038 C 
ENDROOT
BRANCH   1   2
ATOM      2  S   UNL d   1      50.478  34.242  52.964  0.00  0.00    -0.048 SA
BRANCH   2   3
ATOM      3  C   UNL d   1      51.217  33.891  53.075  0.00  0.00     0.194 A 
ATOM      4  N   UNL d   1      51.908  34.264  53.319  0.00  0.00    -0.220 NA
ATOM      5  C   UNL d   1      52.516  33.681  53.352  0.00  0.00     0.101 A 
ATOM      6  C   UNL d   1      53.311  33.743  53.559  0.00  0.00     0.021 A 
ATOM      7  C   UNL d   1      52.204  32.955  53.130  0.00  0.00     0.101 A 
ATOM      8  C   UNL d   1      53.771  33.086  53.540  0.00  0.00     0.002 A 
ATOM      9  C   UNL d   1      53.459  32.359  53.319  0.00  0.00     0.002 A 
ATOM     10  C   UNL d   1      52.687  32.287  53.115  0.00  0.00     0.021 A 
ATOM     11  N   UNL d   1      51.399  33.076  52.957  0.00  0.00    -0.220 NA
ENDBRANCH   2   3
ENDBRANCH   1   2
BRANCH   1  12
ATOM     12  C   UNL d   1      49.444  34.703  52.117  0.00  0.00     0.007 A 
ATOM     13  C   UNL d   1      49.049  34.634  51.396  0.00  0.00     0.003 A 
ATOM     14  C   UNL d   1      48.330  35.022  51.280  0.00  0.00     0.025 A 
ATOM     15  C   UNL d   1      48.005  35.479  51.886  0.00  0.00     0.100 A 
ATOM     16  C   UNL d   1      48.399  35.537  52.580  0.00  0.00     0.025 A 
ATOM     17  C   UNL d   1      49.118  35.149  52.696  0.00  0.00     0.003 A 
BRANCH  15  18
ATOM     18  O   UNL d   1      47.286  35.866  51.771  0.00  0.00    -0.305 OA
BRANCH  18  19
ATOM     19  C   UNL d   1      46.578  35.478  51.937  0.00  0.00     0.123 C 
BRANCH  19  20
ATOM     20  C   UNL d   1      45.859  35.866  51.823  0.00  0.00     0.027 C 
ATOM     21  C   UNL d   1      45.147  35.479  52.003  0.00  0.00     0.002 C 
ENDBRANCH  19  20
ENDBRANCH  18  19
ENDBRANCH  15  18
ENDBRANCH   1  12
TORSDOF 6
ENDMDL
MODEL 4
REMARK VINA RESULT:      -5.9      2.151      2.816
REMARK  6 active torsions:
REMARK  status: ('A' for Active; 'I' for Inactive)
REMARK    1  A    between atoms: S_6  and  C_1 
REMARK    2  A    between atoms: C_7  and  S_6 
REMARK    3  A    between atoms: C_8  and  C_7 
REMARK    4  A    between atoms: O_14  and  C_9 
REMARK    5  A    between atoms: C_17  and  O_14 
REMARK    6  A    between atoms: C_18  and  C_17 
ROOT
ATOM      1  C   UNL d   1      52.223  32.996  52.666  0.00  0.00     0.038 C 
ENDROOT
BRANCH   1   2
ATOM      2  S   UNL d   1      51.768  33.434  53.197  0.00  0.00    -0.048 SA
BRANCH   2   3
ATOM      3  C   UNL d   1      51.093  33.829  52.935  0.00  0.00     0.194 A 
ATOM      4  N   UNL d   1      50.788  33.829  52.171  0.00  0.00    -0.220 NA
ATOM      5  C   UNL d   1      50.094  34.309  52.173  0.00  0.00     0.101 A 
ATOM      6  C   UNL d   1      49.572  34.503  51.566  0.00  0.00     0.021 A 
ATOM      7  C   UNL d   1      49.971  34.602  52.930  0.00  0.00     0.101 A 
ATOM      8  C   UNL d   1      48.947  34.979  51.727  0.00  0.00     0.002 A 
ATOM      9  C   UNL d   1      48.823  35.272  52.484  0.00  0.00     0.002 A 
ATOM     10  C   UNL d   1      49.325  35.090  53.083  0.00  0.00     0.021 A 
ATOM     11  N   UNL d   1      50.586  34.309  53.409  0.00  0.00    -0.220 NA
ENDBRANCH   2   3
ENDBRANCH   1   2
BRANCH   1  12
ATOM     12  C   UNL d   1      52.623  32.334  52.953  0.00  0.00     0.007 A 
ATOM     13  C   UNL d   1      52.371  31.590  52.698  0.00  0.00     0.003 A 
ATOM     14  C   UNL d   1      52.753  30.911  52.970  0.00  0.00     0.025 A 
ATOM     15  C   UNL d   1      53.385  30.975  53.496  0.00  0.00     0.100 A 
ATOM     16  C   UNL d   1      53.618  31.702  53.735  0.00  0.00     0.025 A 
ATOM     17  C   UNL d   1      53.237  32.381  53.463  0.00  0.00     0.003 A 
BRANCH  15  18
ATOM     18  O   UNL d   1      53.767  30.295  53.768  0.00  0.00    -0.305 OA
BRANCH  18  19
ATOM     19  C   UNL d   1      53.325  29.675  54.085  0.00  0.00     0.123 C 
BRANCH  19  20
ATOM     20  C   UNL d   1      53.674  29.155  54.623  0.00  0.00     0.027 C 
ATOM     21  C   UNL d   1      53.355  28.397  54.730  0.00  0.00     0.002 C 
ENDBRANCH  19  20
ENDBRANCH  18  19
ENDBRANCH  15  18
ENDBRANCH   1  12
TORSDOF 6
ENDMDL
MODEL 5
REMARK VINA RESULT:      -4.6      3.819      4.601
REMARK  6 active torsions:
REMARK  status: ('A' for Active; 'I' for Inactive)
REMARK    1  A    between atoms: S_6  and  C_1 
REMARK    2  A    between atoms: C_7  and  S_6 
REMARK    3  A    between atoms: C_8  and  C_7 
REMARK    4  A    between atoms: O_14  and  C_9 
REMARK    5  A    between atoms: C_17  and  O_14 
REMARK    6  A    between atoms: C_18  and  C_17 
ROOT
ATOM      1  C   UNL d   1      52.944  32.396  52.802  0.00  0.00     0.038 C 
ENDROOT
BRANCH   1   2
ATOM      2  S   UNL d   1      52.375  32.849  53.192  0.00  0.00    -0.048 SA
BRANCH   2   3
ATOM      3  C   UNL d   1      52.574  33.589  53.497  0.00  0.00     0.194 A 
ATOM      4  N   UNL d   1      52.826  34.246  53.071  0.00  0.00    -0.220 NA
ATOM      5  C   UNL d   1      52.963  34.870  53.621  0.00  0.00     0.101 A 
ATOM      6  C   UNL d   1      53.219  35.645  53.505  0.00  0.00     0.021 A 
ATOM      7  C   UNL d   1      52.797  34.602  54.379  0.00  0.00     0.101 A 
ATOM      8  C   UNL d   1      53.302  36.128  54.139  0.00  0.00     0.002 A 
ATOM      9  C   UNL d   1      53.136  35.860  54.898  0.00  0.00     0.002 A 
ATOM     10  C   UNL d   1      52.886  35.108  55.024  0.00  0.00     0.021 A 
ATOM     11  N   UNL d   1      52.555  33.808  54.311  0.00  0.00    -0.220 NA
ENDBRANCH   2   3
ENDBRANCH   1   2
BRANCH   1  12
ATOM     12  C   UNL d   1      53.031  31.607  53.027  0.00  0.00     0.007 A 
ATOM     13  C   UNL d   1      52.386  31.103  52.926  0.00  0.00     0.003 A 
ATOM     14  C   UNL d   1      52.444  30.309  53.143  0.00  0.00     0.025 A 
ATOM     15  C   UNL d   1      53.149  30.019  53.461  0.00  0.00     0.100 A 
ATOM     16  C   UNL d   1      53.766  30.519  53.553  0.00  0.00     0.025 A 
ATOM     17  C   UNL d   1      53.708  31.313  53.336  0.00  0.00     0.003 A 
BRANCH  15  18
ATOM     18  O   UNL d   1      53.208  29.225  53.678  0.00  0.00    -0.305 OA
BRANCH  18  19
ATOM     19  C   UNL d   1      53.160  29.011  54.474  0.00  0.00     0.123 C 
BRANCH  19  20
ATOM     20  C   UNL d   1      53.503  28.306  54.731  0.00  0.00     0.027 C 
ATOM     21  C   UNL d   1      53.466  28.098  55.533  0.00  0.00     0.002 C 
ENDBRANCH  19  20
ENDBRANCH  18  19
ENDBRANCH  15  18
ENDBRANCH   1  12
TORSDOF 6
ENDMDL
