MODEL 1
REMARK VINA RESULT:      -5.3      0.000      0.000
REMARK  3 active torsions:
REMARK  status: ('A' for Active; 'I' for Inactive)
REMARK    1  A    between atoms: N_2  and  S_1 
REMARK    2  A    between atoms: N_3  and  S_1 
REMARK    3  A    between atoms: C_4  and  N_2 
ROOT
ATOM      1  S   UNL d   1     -41.468-122.150 -53.428  0.00  0.00     0.351 S 
ATOM      2  O   UNL d   1     -41.123-122.890 -53.533  0.00  0.00    -0.180 OA
ATOM      3  O   UNL d   1     -41.812-121.406 -53.318  0.00  0.00    -0.180 OA
ENDROOT
BRANCH   1   4
ATOM      4  N   UNL d   1     -41.123-122.015 -52.693  0.00  0.00    -0.144 NA
BRANCH   4   5
ATOM      5  C   UNL d   1     -41.352-122.469 -52.029  0.00  0.00     0.095 A 
ATOM      6  C   UNL d   1     -41.500-122.096 -51.297  0.00  0.00     0.018 A 
ATOM      7  C   UNL d   1     -41.738-122.545 -50.643  0.00  0.00     0.002 A 
ATOM      8  C   UNL d   1     -41.283-121.300 -51.196  0.00  0.00     0.002 C 
ATOM      9  C   UNL d   1     -41.824-123.371 -50.718  0.00  0.00     0.000 A 
ATOM     10  C   UNL d   1     -41.680-123.757 -51.447  0.00  0.00     0.002 A 
ATOM     11  C   UNL d   1     -42.044-123.813 -50.057  0.00  0.00     0.000 C 
ATOM     12  C   UNL d   1     -41.445-123.298 -52.105  0.00  0.00     0.020 A 
ENDBRANCH   4   5
ENDBRANCH   1   4
BRANCH   1  13
ATOM     13  N   UNL d   1     -41.844-122.223 -54.158  0.00  0.00    -0.215 N 
ATOM     14  C   UNL d   1     -41.470-122.642 -54.771  0.00  0.00     0.093 C 
ATOM     15  C   UNL d   1     -41.846-122.711 -55.493  0.00  0.00     0.020 C 
ATOM     16  C   UNL d   1     -42.532-122.284 -55.656  0.00  0.00     0.003 C 
ATOM     17  C   UNL d   1     -42.843-121.781 -55.083  0.00  0.00     0.020 C 
ATOM     18  C   UNL d   1     -42.467-121.705 -54.347  0.00  0.00     0.093 C 
ENDBRANCH   1  13
TORSDOF 3
ENDMDL
MODEL 2
REMARK VINA RESULT:      -5.2      1.089      3.794
REMARK  3 active torsions:
REMARK  status: ('A' for Active; 'I' for Inactive)
REMARK    1  A    between atoms: N_2  and  S_1 
REMARK    2  A    between atoms: N_3  and  S_1 
REMARK    3  A    between atoms: C_4  and  N_2 
ROOT
ATOM      1  S   UNL d   1     -41.398-122.955 -52.040  0.00  0.00     0.351 S 
ATOM      2  O   UNL d   1     -41.143-122.173 -52.018  0.00  0.00    -0.180 OA
ATOM      3  O   UNL d   1     -41.653-123.742 -52.068  0.00  0.00    -0.180 OA
ENDROOT
BRANCH   1   4
ATOM      4  N   UNL d   1     -41.130-123.095 -52.806  0.00  0.00    -0.144 NA
BRANCH   4   5
ATOM      5  C   UNL d   1     -41.499-122.721 -53.457  0.00  0.00     0.095 A 
ATOM      6  C   UNL d   1     -41.557-123.117 -54.190  0.00  0.00     0.018 A 
ATOM      7  C   UNL d   1     -41.933-122.751 -54.831  0.00  0.00     0.002 A 
ATOM      8  C   UNL d   1     -41.124-123.817 -54.308  0.00  0.00     0.002 C 
ATOM      9  C   UNL d   1     -42.248-121.985 -54.743  0.00  0.00     0.000 A 
ATOM     10  C   UNL d   1     -42.199-121.578 -54.013  0.00  0.00     0.002 A 
ATOM     11  C   UNL d   1     -42.606-121.620 -55.391  0.00  0.00     0.000 C 
ATOM     12  C   UNL d   1     -41.823-121.954 -53.368  0.00  0.00     0.020 A 
ENDBRANCH   4   5
ENDBRANCH   1   4
BRANCH   1  13
ATOM     13  N   UNL d   1     -41.690-122.882 -51.273  0.00  0.00    -0.215 N 
ATOM     14  C   UNL d   1     -41.386-122.290 -50.775  0.00  0.00     0.093 C 
ATOM     15  C   UNL d   1     -41.677-122.221 -50.015  0.00  0.00     0.020 C 
ATOM     16  C   UNL d   1     -42.182-122.792 -49.700  0.00  0.00     0.003 C 
ATOM     17  C   UNL d   1     -42.396-123.441 -50.160  0.00  0.00     0.020 C 
ATOM     18  C   UNL d   1     -42.105-123.519 -50.933  0.00  0.00     0.093 C 
ENDBRANCH   1  13
TORSDOF 3
ENDMDL
MODEL 3
REMARK VINA RESULT:      -3.7      1.267      1.806
REMARK  3 active torsions:
REMARK  status: ('A' for Active; 'I' for Inactive)
REMARK    1  A    between atoms: N_2  and  S_1 
REMARK    2  A    between atoms: N_3  and  S_1 
REMARK    3  A    between atoms: C_4  and  N_2 
ROOT
ATOM      1  S   UNL d   1     -41.228-122.718 -52.125  0.00  0.00     0.351 S 
ATOM      2  O   UNL d   1     -41.183-121.897 -52.144  0.00  0.00    -0.180 OA
ATOM      3  O   UNL d   1     -41.273-123.544 -52.099  0.00  0.00    -0.180 OA
ENDROOT
BRANCH   1   4
ATOM      4  N   UNL d   1     -41.127-122.776 -51.310  0.00  0.00    -0.144 NA
BRANCH   4   5
ATOM      5  C   UNL d   1     -41.778-122.676 -50.795  0.00  0.00     0.095 A 
ATOM      6  C   UNL d   1     -41.751-122.982 -50.019  0.00  0.00     0.018 A 
ATOM      7  C   UNL d   1     -42.392-122.873 -49.506  0.00  0.00     0.002 A 
ATOM      8  C   UNL d   1     -41.137-123.503 -49.810  0.00  0.00     0.002 C 
ATOM      9  C   UNL d   1     -43.067-122.462 -49.771  0.00  0.00     0.000 A 
ATOM     10  C   UNL d   1     -43.107-122.149 -50.546  0.00  0.00     0.002 A 
ATOM     11  C   UNL d   1     -43.708-122.373 -49.259  0.00  0.00     0.000 C 
ATOM     12  C   UNL d   1     -42.455-122.257 -51.057  0.00  0.00     0.020 A 
ENDBRANCH   4   5
ENDBRANCH   1   4
BRANCH   1  13
ATOM     13  N   UNL d   1     -41.334-122.731 -52.942  0.00  0.00    -0.215 N 
ATOM     14  C   UNL d   1     -41.131-123.414 -53.370  0.00  0.00     0.093 C 
ATOM     15  C   UNL d   1     -41.237-123.423 -54.180  0.00  0.00     0.020 C 
ATOM     16  C   UNL d   1     -41.436-122.735 -54.589  0.00  0.00     0.003 C 
ATOM     17  C   UNL d   1     -41.528-122.030 -54.174  0.00  0.00     0.020 C 
ATOM     18  C   UNL d   1     -41.422-122.012 -53.352  0.00  0.00     0.093 C 
ENDBRANCH   1  13
TORSDOF 3
ENDMDL
MODEL 4
REMARK VINA RESULT:      -2.6      2.446      4.574
REMARK  3 active torsions:
REMARK  status: ('A' for Active; 'I' for Inactive)
REMARK    1  A    between atoms: N_2  and  S_1 
REMARK    2  A    between atoms: N_3  and  S_1 
REMARK    3  A    between atoms: C_4  and  N_2 
ROOT
ATOM      1  S   UNL d   1     -41.848-123.391 -49.875  0.00  0.00     0.351 S 
ATOM      2  O   UNL d   1     -41.150-123.815 -49.773  0.00  0.00    -0.180 OA
ATOM      3  O   UNL d   1     -42.550-122.966 -49.983  0.00  0.00    -0.180 OA
ENDROOT
BRANCH   1   4
ATOM      4  N   UNL d   1     -41.880-123.501 -50.690  0.00  0.00    -0.144 NA
BRANCH   4   5
ATOM      5  C   UNL d   1     -41.689-122.873 -51.209  0.00  0.00     0.095 A 
ATOM      6  C   UNL d   1     -41.466-123.033 -51.997  0.00  0.00     0.018 A 
ATOM      7  C   UNL d   1     -41.289-122.410 -52.514  0.00  0.00     0.002 A 
ATOM      8  C   UNL d   1     -41.299-123.817 -52.221  0.00  0.00     0.002 C 
ATOM      9  C   UNL d   1     -41.328-121.623 -52.241  0.00  0.00     0.000 A 
ATOM     10  C   UNL d   1     -41.551-121.449 -51.453  0.00  0.00     0.002 A 
ATOM     11  C   UNL d   1     -41.133-121.010 -52.756  0.00  0.00     0.000 C 
ATOM     12  C   UNL d   1     -41.735-122.081 -50.938  0.00  0.00     0.020 A 
ENDBRANCH   4   5
ENDBRANCH   1   4
BRANCH   1  13
ATOM     13  N   UNL d   1     -41.877-123.244 -49.065  0.00  0.00    -0.215 N 
ATOM     14  C   UNL d   1     -41.170-123.119 -48.647  0.00  0.00     0.093 C 
ATOM     15  C   UNL d   1     -41.202-122.974 -47.843  0.00  0.00     0.020 C 
ATOM     16  C   UNL d   1     -41.908-123.058 -47.425  0.00  0.00     0.003 C 
ATOM     17  C   UNL d   1     -42.590-123.290 -47.824  0.00  0.00     0.020 C 
ATOM     18  C   UNL d   1     -42.566-123.440 -48.640  0.00  0.00     0.093 C 
ENDBRANCH   1  13
TORSDOF 3
ENDMDL
