MODEL 1
REMARK VINA RESULT:      65.8      0.000      0.000
REMARK  5 active torsions:
REMARK  status: ('A' for Active; 'I' for Inactive)
REMARK    1  A    between atoms: N_2  and  C_1 
REMARK    2  A    between atoms: N_3  and  C_1 
REMARK       I    between atoms: C_4  and  N_2 
REMARK    3  A    between atoms: C_15  and  C_4 
REMARK    4  A    between atoms: O_17  and  C_9 
REMARK    5  A    between atoms: O_18  and  C_10 
ROOT
ATOM      1  N   UNL d   1     -54.738 -99.985 -41.844  0.00  0.00    -0.281 N 
ATOM      2  C   UNL d   1     -54.773-100.692 -43.095  0.00  0.00     0.020 A 
ATOM      3  C   UNL d   1     -54.757-100.694 -42.270  0.00  0.00     0.082 A 
ATOM      4  C   UNL d   1     -54.770 -99.964 -43.501  0.00  0.00     0.005 A 
ATOM      5  C   UNL d   1     -54.792-101.393 -43.525  0.00  0.00     0.028 A 
ATOM      6  C   UNL d   1     -54.808-101.380 -44.347  0.00  0.00     0.116 A 
ATOM      7  C   UNL d   1     -54.804-100.660 -44.749  0.00  0.00     0.116 A 
ATOM      8  C   UNL d   1     -54.785 -99.953 -44.328  0.00  0.00     0.026 A 
ATOM      9  C   UNL d   1     -54.735 -99.254 -42.252  0.00  0.00     0.082 A 
ATOM     10  C   UNL d   1     -54.751 -99.247 -43.086  0.00  0.00     0.019 A 
ENDROOT
BRANCH   1  11
ATOM     11  C   UNL d   1     -54.723 -99.995 -41.015  0.00  0.00     0.209 C 
ATOM     12  S   UNL d   1     -54.717 -99.283 -40.597  0.00  0.00    -0.038 SA
BRANCH  11  13
ATOM     13  N   UNL d   1     -54.712-100.714 -40.612  0.00  0.00    -0.180 NA
ATOM     14  C   UNL d   1     -54.794-100.725 -39.790  0.00  0.00     0.281 C 
ATOM     15  O   UNL d   1     -54.886-100.017 -39.376  0.00  0.00    -0.265 OA
BRANCH  14  16
ATOM     16  C   UNL d   1     -54.783-101.448 -39.388  0.00  0.00     0.058 A 
ATOM     17  C   UNL d   1     -54.737-101.454 -38.567  0.00  0.00     0.005 A 
ATOM     18  C   UNL d   1     -54.726-102.170 -38.162  0.00  0.00     0.000 A 
ATOM     19  C   UNL d   1     -54.761-102.879 -38.582  0.00  0.00     0.000 A 
ATOM     20  C   UNL d   1     -54.808-102.869 -39.411  0.00  0.00     0.000 A 
ATOM     21  C   UNL d   1     -54.819-102.146 -39.812  0.00  0.00     0.005 A 
ENDBRANCH  14  16
ENDBRANCH  11  13
ENDBRANCH   1  11
BRANCH   6  22
ATOM     22  O   UNL d   1     -54.827-102.086 -44.768  0.00  0.00    -0.326 OA
ATOM     23  C   UNL d   1     -55.007-102.793 -44.382  0.00  0.00     0.181 C 
ENDBRANCH   6  22
BRANCH   7  24
ATOM     24  O   UNL d   1     -54.820-100.650 -45.578  0.00  0.00    -0.326 OA
ATOM     25  C   UNL d   1     -55.012 -99.959 -45.980  0.00  0.00     0.181 C 
ENDBRANCH   7  24
TORSDOF 5
ENDMDL
