MODEL 1
REMARK VINA RESULT:      37.7      0.000      0.000
REMARK  3 active torsions:
REMARK  status: ('A' for Active; 'I' for Inactive)
REMARK    1  A    between atoms: O_3  and  C_1 
REMARK    2  A    between atoms: C_4  and  O_3 
REMARK    3  A    between atoms: C_8  and  C_4 
ROOT
ATOM      1  C   UNL d   1      13.545  13.563  -3.092  0.00  0.00     0.131 A 
ATOM      2  C   UNL d   1      13.779  14.349  -3.201  0.00  0.00     0.106 A 
ATOM      3  C   UNL d   1      13.702  14.710  -3.937  0.00  0.00     0.030 A 
ATOM      4  C   UNL d   1      13.230  13.136  -3.730  0.00  0.00     0.083 A 
ATOM      5  C   UNL d   1      13.387  14.283  -4.575  0.00  0.00     0.060 A 
ATOM      6  C   UNL d   1      13.152  13.502  -4.474  0.00  0.00     0.025 A 
ATOM      7  N   UNL d   1      14.092  14.772  -2.565  0.00  0.00    -0.242 NA
ATOM      8 CL   UNL d   1      12.993  12.355  -3.637  0.00  0.00    -0.080 Cl
ATOM      9 CL   UNL d   1      13.310  14.645  -5.311  0.00  0.00    -0.082 Cl
ATOM     10  C   UNL d   1      13.933  15.485  -4.042  0.00  0.00     0.004 A 
ATOM     11  C   UNL d   1      14.326  15.553  -2.667  0.00  0.00     0.099 A 
ATOM     12  C   UNL d   1      14.247  15.913  -3.408  0.00  0.00     0.021 A 
ENDROOT
BRANCH   1  13
ATOM     13  O   UNL d   1      13.618  13.198  -2.366  0.00  0.00    -0.269 OA
BRANCH  13  14
ATOM     14  C   UNL d   1      14.055  12.502  -2.290  0.00  0.00     0.323 C 
ATOM     15  O   UNL d   1      14.085  11.972  -2.918  0.00  0.00    -0.257 OA
BRANCH  14  16
ATOM     16  C   UNL d   1      14.459  12.337  -1.593  0.00  0.00     0.163 A 
ATOM     17  O   UNL d   1      15.202  12.634  -1.375  0.00  0.00    -0.300 OA
ATOM     18  C   UNL d   1      15.393  12.330  -0.643  0.00  0.00     0.123 A 
ATOM     19  C   UNL d   1      14.764  11.836  -0.395  0.00  0.00     0.029 A 
ATOM     20  C   UNL d   1      14.194  11.848  -0.988  0.00  0.00     0.032 A 
ENDBRANCH  14  16
ENDBRANCH  13  14
ENDBRANCH   1  13
TORSDOF 3
ENDMDL
