MODEL 1
REMARK VINA RESULT:      -8.8      0.000      0.000
REMARK  5 active torsions:
REMARK  status: ('A' for Active; 'I' for Inactive)
REMARK    1  A    between atoms: N_10  and  C_4 
REMARK    2  A    between atoms: C_20  and  N_5 
REMARK    3  A    between atoms: C_12  and  S_19 
REMARK    4  A    between atoms: S_19  and  C_23 
REMARK    5  A    between atoms: C_23  and  C_20 
ROOT
ATOM      1  C   UNL d   1      53.429  30.839  54.019  0.00  0.00     0.191 A 
ATOM      2  C   UNL d   1      53.134  31.287  53.393  0.00  0.00     0.174 A 
ATOM      3  N   UNL d   1      53.828  31.349  54.527  0.00  0.00    -0.042 NA
ATOM      4  C   UNL d   1      53.781  32.104  54.221  0.00  0.00     0.722 A 
ATOM      5  N   UNL d   1      53.350  32.073  53.515  0.00  0.00    -0.132 N 
ATOM      6  N   UNL d   1      53.296  30.025  54.043  0.00  0.00    -0.239 N 
ATOM      7  C   UNL d   1      52.866  29.659  53.441  0.00  0.00     0.358 A 
ATOM      8  N   UNL d   1      52.570  30.106  52.816  0.00  0.00    -0.152 NA
ATOM      9  C   UNL d   1      52.704  30.921  52.791  0.00  0.00     0.303 A 
ATOM     10  O   UNL d   1      52.734  28.843  53.469  0.00  0.00    -0.244 OA
ATOM     11  O   UNL d   1      52.408  31.368  52.165  0.00  0.00    -0.263 OA
ATOM     12  C   UNL d   1      53.588  29.582  54.663  0.00  0.00     0.105 C 
ENDROOT
BRANCH   5  13
ATOM     13  C   UNL d   1      53.168  32.712  53.020  0.00  0.00     0.105 C 
BRANCH  13  14
ATOM     14  C   UNL d   1      52.406  33.040  53.027  0.00  0.00     0.058 C 
BRANCH  14  15
ATOM     15  S   UNL d   1      52.245  33.722  52.572  0.00  0.00    -0.041 SA
BRANCH  15  16
ATOM     16  C   UNL d   1      51.475  34.025  52.560  0.00  0.00     0.215 A 
ATOM     17  N   UNL d   1      51.053  34.068  51.860  0.00  0.00    -0.214 NA
ATOM     18  C   UNL d   1      50.324  34.385  52.022  0.00  0.00     0.107 A 
ATOM     19  C   UNL d   1      49.681  34.551  51.524  0.00  0.00     0.021 A 
ATOM     20  C   UNL d   1      50.274  34.545  52.814  0.00  0.00     0.120 A 
ATOM     21  C   UNL d   1      48.990  34.881  51.840  0.00  0.00     0.002 A 
ATOM     22  C   UNL d   1      48.944  35.040  52.633  0.00  0.00     0.002 A 
ATOM     23  C   UNL d   1      49.589  34.871  53.122  0.00  0.00     0.026 A 
ATOM     24  O   UNL d   1      51.000  34.319  53.158  0.00  0.00    -0.283 OA
ENDBRANCH  15  16
ENDBRANCH  14  15
ENDBRANCH  13  14
ENDBRANCH   5  13
BRANCH   4  25
ATOM     25  N   UNL d   1      54.119  32.758  54.583  0.00  0.00    -0.139 N 
ATOM     26  C   UNL d   1      54.852  33.032  54.332  0.00  0.00     0.098 A 
ATOM     27  C   UNL d   1      55.199  33.690  54.691  0.00  0.00     0.018 A 
ATOM     28  C   UNL d   1      55.939  33.982  54.452  0.00  0.00     0.002 C 
ATOM     29  C   UNL d   1      54.809  34.073  55.303  0.00  0.00     0.003 A 
ATOM     30  C   UNL d   1      54.071  33.804  55.562  0.00  0.00     0.020 A 
ATOM     31  C   UNL d   1      53.727  33.138  55.194  0.00  0.00     0.098 A 
ENDBRANCH   4  25
TORSDOF 5
ENDMDL
MODEL 2
REMARK VINA RESULT:      -6.4      1.608      3.169
REMARK  5 active torsions:
REMARK  status: ('A' for Active; 'I' for Inactive)
REMARK    1  A    between atoms: N_10  and  C_4 
REMARK    2  A    between atoms: C_20  and  N_5 
REMARK    3  A    between atoms: C_12  and  S_19 
REMARK    4  A    between atoms: S_19  and  C_23 
REMARK    5  A    between atoms: C_23  and  C_20 
ROOT
ATOM      1  C   UNL d   1      53.791  33.236  54.504  0.00  0.00     0.191 A 
ATOM      2  C   UNL d   1      53.367  33.651  53.931  0.00  0.00     0.174 A 
ATOM      3  N   UNL d   1      53.702  32.433  54.351  0.00  0.00    -0.042 NA
ATOM      4  C   UNL d   1      53.229  32.349  53.691  0.00  0.00     0.722 A 
ATOM      5  N   UNL d   1      53.017  33.104  53.424  0.00  0.00    -0.132 N 
ATOM      6  N   UNL d   1      54.202  33.647  55.090  0.00  0.00    -0.239 N 
ATOM      7  C   UNL d   1      54.189  34.472  55.103  0.00  0.00     0.358 A 
ATOM      8  N   UNL d   1      53.766  34.886  54.531  0.00  0.00    -0.152 NA
ATOM      9  C   UNL d   1      53.355  34.476  53.944  0.00  0.00     0.303 A 
ATOM     10  O   UNL d   1      54.602  34.879  55.693  0.00  0.00    -0.244 OA
ATOM     11  O   UNL d   1      52.931  34.891  53.371  0.00  0.00    -0.263 OA
ATOM     12  C   UNL d   1      54.621  33.236  55.657  0.00  0.00     0.105 C 
ENDROOT
BRANCH   5  13
ATOM     13  C   UNL d   1      52.541  33.279  52.769  0.00  0.00     0.105 C 
BRANCH  13  14
ATOM     14  C   UNL d   1      51.779  33.589  52.879  0.00  0.00     0.058 C 
BRANCH  14  15
ATOM     15  S   UNL d   1      51.272  33.682  52.222  0.00  0.00    -0.041 SA
BRANCH  15  16
ATOM     16  C   UNL d   1      50.567  34.105  52.315  0.00  0.00     0.215 A 
ATOM     17  N   UNL d   1      50.045  34.192  51.692  0.00  0.00    -0.214 NA
ATOM     18  C   UNL d   1      49.411  34.630  51.949  0.00  0.00     0.107 A 
ATOM     19  C   UNL d   1      48.728  34.880  51.551  0.00  0.00     0.021 A 
ATOM     20  C   UNL d   1      49.521  34.823  52.727  0.00  0.00     0.120 A 
ATOM     21  C   UNL d   1      48.159  35.329  51.954  0.00  0.00     0.002 A 
ATOM     22  C   UNL d   1      48.272  35.520  52.732  0.00  0.00     0.002 A 
ATOM     23  C   UNL d   1      48.956  35.266  53.121  0.00  0.00     0.026 A 
ATOM     24  O   UNL d   1      50.250  34.493  52.963  0.00  0.00    -0.283 OA
ENDBRANCH  15  16
ENDBRANCH  14  15
ENDBRANCH  13  14
ENDBRANCH   5  13
BRANCH   4  25
ATOM     25  N   UNL d   1      53.022  31.620  53.375  0.00  0.00    -0.139 N 
ATOM     26  C   UNL d   1      52.413  31.185  53.716  0.00  0.00     0.098 A 
ATOM     27  C   UNL d   1      52.197  30.451  53.406  0.00  0.00     0.018 A 
ATOM     28  C   UNL d   1      51.585  29.996  53.735  0.00  0.00     0.002 C 
ATOM     29  C   UNL d   1      52.594  30.153  52.752  0.00  0.00     0.003 A 
ATOM     30  C   UNL d   1      53.208  30.584  52.403  0.00  0.00     0.020 A 
ATOM     31  C   UNL d   1      53.420  31.326  52.723  0.00  0.00     0.098 A 
ENDBRANCH   4  25
TORSDOF 5
ENDMDL
MODEL 3
REMARK VINA RESULT:      -6.2      1.211      4.503
REMARK  5 active torsions:
REMARK  status: ('A' for Active; 'I' for Inactive)
REMARK    1  A    between atoms: N_10  and  C_4 
REMARK    2  A    between atoms: C_20  and  N_5 
REMARK    3  A    between atoms: C_12  and  S_19 
REMARK    4  A    between atoms: S_19  and  C_23 
REMARK    5  A    between atoms: C_23  and  C_20 
ROOT
ATOM      1  C   UNL d   1      51.836  34.249  53.426  0.00  0.00     0.191 A 
ATOM      2  C   UNL d   1      51.892  33.529  53.030  0.00  0.00     0.174 A 
ATOM      3  N   UNL d   1      52.537  34.364  53.841  0.00  0.00    -0.042 NA
ATOM      4  C   UNL d   1      53.023  33.723  53.704  0.00  0.00     0.722 A 
ATOM      5  N   UNL d   1      52.627  33.199  53.200  0.00  0.00    -0.132 N 
ATOM      6  N   UNL d   1      51.152  34.706  53.357  0.00  0.00    -0.239 N 
ATOM      7  C   UNL d   1      50.524  34.443  52.891  0.00  0.00     0.358 A 
ATOM      8  N   UNL d   1      50.580  33.722  52.495  0.00  0.00    -0.152 NA
ATOM      9  C   UNL d   1      51.264  33.265  52.564  0.00  0.00     0.303 A 
ATOM     10  O   UNL d   1      49.841  34.904  52.824  0.00  0.00    -0.244 OA
ATOM     11  O   UNL d   1      51.319  32.544  52.168  0.00  0.00    -0.263 OA
ATOM     12  C   UNL d   1      51.097  35.420  53.749  0.00  0.00     0.105 C 
ENDROOT
BRANCH   5  13
ATOM     13  C   UNL d   1      52.915  32.475  52.917  0.00  0.00     0.105 C 
BRANCH  13  14
ATOM     14  C   UNL d   1      52.639  31.763  53.239  0.00  0.00     0.058 C 
BRANCH  14  15
ATOM     15  S   UNL d   1      52.974  31.039  52.990  0.00  0.00    -0.041 SA
BRANCH  15  16
ATOM     16  C   UNL d   1      53.075  30.431  53.542  0.00  0.00     0.215 A 
ATOM     17  N   UNL d   1      53.485  29.751  53.346  0.00  0.00    -0.214 NA
ATOM     18  C   UNL d   1      53.492  29.261  53.994  0.00  0.00     0.107 A 
ATOM     19  C   UNL d   1      53.826  28.510  54.103  0.00  0.00     0.021 A 
ATOM     20  C   UNL d   1      53.092  29.619  54.600  0.00  0.00     0.120 A 
ATOM     21  C   UNL d   1      53.749  28.128  54.835  0.00  0.00     0.002 A 
ATOM     22  C   UNL d   1      53.348  28.489  55.438  0.00  0.00     0.002 A 
ATOM     23  C   UNL d   1      53.018  29.238  55.321  0.00  0.00     0.026 A 
ATOM     24  O   UNL d   1      52.827  30.359  54.319  0.00  0.00    -0.283 OA
ENDBRANCH  15  16
ENDBRANCH  14  15
ENDBRANCH  13  14
ENDBRANCH   5  13
BRANCH   4  25
ATOM     25  N   UNL d   1      53.773  33.648  54.031  0.00  0.00    -0.139 N 
ATOM     26  C   UNL d   1      53.858  33.570  54.845  0.00  0.00     0.098 A 
ATOM     27  C   UNL d   1      54.608  33.494  55.182  0.00  0.00     0.018 A 
ATOM     28  C   UNL d   1      54.716  33.414  56.001  0.00  0.00     0.002 C 
ATOM     29  C   UNL d   1      55.273  33.497  54.701  0.00  0.00     0.003 A 
ATOM     30  C   UNL d   1      55.196  33.575  53.880  0.00  0.00     0.020 A 
ATOM     31  C   UNL d   1      54.434  33.651  53.547  0.00  0.00     0.098 A 
ENDBRANCH   4  25
TORSDOF 5
ENDMDL
