MODEL 1
REMARK VINA RESULT:      10.9      0.000      0.000
REMARK  8 active torsions:
REMARK  status: ('A' for Active; 'I' for Inactive)
REMARK    1  A    between atoms: C_6  and  N_1 
REMARK    2  A    between atoms: C_7  and  C_6 
REMARK    3  A    between atoms: C_12  and  C_7 
REMARK    4  A    between atoms: C_8  and  C_19 
REMARK    5  A    between atoms: C_9  and  C_20 
REMARK    6  A    between atoms: N_13  and  C_12 
REMARK    7  A    between atoms: C_19  and  N_13 
REMARK    8  A    between atoms: C_20  and  N_13 
ROOT
ATOM      1  N   UNL d   1     -41.784-122.498 -52.607  0.00  0.00    -0.303 N 
ATOM      2  C   UNL d   1     -41.559-121.700 -52.560  0.00  0.00     0.064 A 
ATOM      3  C   UNL d   1     -41.858-122.694 -53.412  0.00  0.00     0.064 A 
ATOM      4  C   UNL d   1     -41.679-122.023 -53.861  0.00  0.00     0.018 A 
ATOM      5  C   UNL d   1     -41.493-121.402 -53.338  0.00  0.00     0.018 A 
ATOM      6  C   UNL d   1     -42.064-123.398 -53.788  0.00  0.00     0.018 A 
ATOM      7  C   UNL d   1     -41.405-121.206 -51.917  0.00  0.00     0.018 A 
ATOM      8  C   UNL d   1     -41.707-122.056 -54.687  0.00  0.00     0.002 A 
ATOM      9  C   UNL d   1     -41.276-120.622 -53.460  0.00  0.00     0.002 A 
ATOM     10  C   UNL d   1     -41.123-120.128 -52.823  0.00  0.00     0.000 A 
ATOM     11  C   UNL d   1     -41.187-120.420 -52.050  0.00  0.00     0.002 A 
ATOM     12  C   UNL d   1     -42.093-123.434 -54.622  0.00  0.00     0.002 A 
ATOM     13  C   UNL d   1     -41.913-122.758 -55.065  0.00  0.00     0.000 A 
ENDROOT
BRANCH   1  14
ATOM     14  C   UNL d   1     -41.913-123.006 -51.974  0.00  0.00     0.124 C 
BRANCH  14  15
ATOM     15  C   UNL d   1     -41.720-122.601 -51.284  0.00  0.00     0.231 C 
ATOM     16  O   UNL d   1     -42.048-121.841 -51.270  0.00  0.00    -0.283 OA
BRANCH  15  17
ATOM     17  C   UNL d   1     -41.281-122.767 -50.606  0.00  0.00     0.124 C 
BRANCH  17  18
ATOM     18  N   UNL d   1     -41.634-123.150 -49.972  0.00  0.00    -0.300 N 
BRANCH  18  19
ATOM     19  C   UNL d   1     -42.444-123.060 -49.836  0.00  0.00     0.080 C 
BRANCH  19  20
ATOM     20  C   UNL d   1     -42.952-123.708 -49.909  0.00  0.00     0.019 C 
ATOM     21  C   UNL d   1     -43.763-123.799 -50.021  0.00  0.00     0.002 C 
ENDBRANCH  19  20
ENDBRANCH  18  19
BRANCH  18  22
ATOM     22  C   UNL d   1     -41.187-123.622 -49.472  0.00  0.00     0.080 C 
BRANCH  22  23
ATOM     23  C   UNL d   1     -41.405-123.712 -48.683  0.00  0.00     0.019 C 
ATOM     24  C   UNL d   1     -41.123-123.417 -47.966  0.00  0.00     0.002 C 
ENDBRANCH  22  23
ENDBRANCH  18  22
ENDBRANCH  17  18
ENDBRANCH  15  17
ENDBRANCH  14  15
ENDBRANCH   1  14
TORSDOF 8
ENDMDL
MODEL 2
REMARK VINA RESULT:      11.6      1.099      4.246
REMARK  8 active torsions:
REMARK  status: ('A' for Active; 'I' for Inactive)
REMARK    1  A    between atoms: C_6  and  N_1 
REMARK    2  A    between atoms: C_7  and  C_6 
REMARK    3  A    between atoms: C_12  and  C_7 
REMARK    4  A    between atoms: C_8  and  C_19 
REMARK    5  A    between atoms: C_9  and  C_20 
REMARK    6  A    between atoms: N_13  and  C_12 
REMARK    7  A    between atoms: C_19  and  N_13 
REMARK    8  A    between atoms: C_20  and  N_13 
ROOT
ATOM      1  N   UNL d   1     -42.512-122.308 -50.849  0.00  0.00    -0.303 N 
ATOM      2  C   UNL d   1     -42.133-122.773 -50.273  0.00  0.00     0.064 A 
ATOM      3  C   UNL d   1     -43.304-122.211 -50.615  0.00  0.00     0.064 A 
ATOM      4  C   UNL d   1     -43.417-122.612 -49.900  0.00  0.00     0.018 A 
ATOM      5  C   UNL d   1     -42.693-122.962 -49.682  0.00  0.00     0.018 A 
ATOM      6  C   UNL d   1     -43.934-121.809 -50.965  0.00  0.00     0.018 A 
ATOM      7  C   UNL d   1     -41.358-123.046 -50.208  0.00  0.00     0.018 A 
ATOM      8  C   UNL d   1     -44.158-122.610 -49.535  0.00  0.00     0.002 A 
ATOM      9  C   UNL d   1     -42.470-123.419 -49.041  0.00  0.00     0.002 A 
ATOM     10  C   UNL d   1     -41.700-123.693 -48.972  0.00  0.00     0.000 A 
ATOM     11  C   UNL d   1     -41.143-123.507 -49.556  0.00  0.00     0.002 A 
ATOM     12  C   UNL d   1     -44.684-121.806 -50.597  0.00  0.00     0.002 A 
ATOM     13  C   UNL d   1     -44.788-122.209 -49.882  0.00  0.00     0.000 A 
ENDROOT
BRANCH   1  14
ATOM     14  C   UNL d   1     -42.169-121.999 -51.529  0.00  0.00     0.124 C 
BRANCH  14  15
ATOM     15  C   UNL d   1     -41.903-122.630 -51.985  0.00  0.00     0.231 C 
ATOM     16  O   UNL d   1     -42.209-123.353 -51.721  0.00  0.00    -0.283 OA
BRANCH  15  17
ATOM     17  C   UNL d   1     -41.408-122.718 -52.639  0.00  0.00     0.124 C 
BRANCH  17  18
ATOM     18  N   UNL d   1     -41.624-122.398 -53.363  0.00  0.00    -0.300 N 
BRANCH  18  19
ATOM     19  C   UNL d   1     -41.337-121.655 -53.586  0.00  0.00     0.080 C 
BRANCH  19  20
ATOM     20  C   UNL d   1     -41.295-121.043 -53.033  0.00  0.00     0.019 C 
ATOM     21  C   UNL d   1     -41.272-120.220 -53.078  0.00  0.00     0.002 C 
ENDBRANCH  19  20
ENDBRANCH  18  19
BRANCH  18  22
ATOM     22  C   UNL d   1     -42.122-122.811 -53.867  0.00  0.00     0.080 C 
BRANCH  22  23
ATOM     23  C   UNL d   1     -41.808-123.264 -54.480  0.00  0.00     0.019 C 
ATOM     24  C   UNL d   1     -41.131-123.213 -54.949  0.00  0.00     0.002 C 
ENDBRANCH  22  23
ENDBRANCH  18  22
ENDBRANCH  17  18
ENDBRANCH  15  17
ENDBRANCH  14  15
ENDBRANCH   1  14
TORSDOF 8
ENDMDL
