MODEL 1
REMARK VINA RESULT:      66.8      0.000      0.000
REMARK  3 active torsions:
REMARK  status: ('A' for Active; 'I' for Inactive)
REMARK    1  A    between atoms: C_2  and  C_1 
REMARK       I    between atoms: N_8  and  C_2 
REMARK    2  A    between atoms: C_12  and  C_4 
REMARK    3  A    between atoms: C_9  and  N_8 
ROOT
ATOM      1  C   UNL d   1     -50.916  24.900  33.657  0.00  0.00     0.106 A 
ATOM      2  C   UNL d   1     -50.797  24.032  33.504  0.00  0.00     0.093 A 
ATOM      3  C   UNL d   1     -50.378  25.355  33.826  0.00  0.00     0.093 A 
ATOM      4  C   UNL d   1     -49.426  24.312  33.762  0.00  0.00     0.369 A 
ATOM      5  N   UNL d   1     -50.029  23.776  33.568  0.00  0.00    -0.191 NA
ATOM      6  N   UNL d   1     -49.601  25.101  33.891  0.00  0.00    -0.191 NA
ATOM      7  O   UNL d   1     -48.645  24.044  33.826  0.00  0.00    -0.242 OA
ATOM      8  C   UNL d   1     -51.421  23.538  33.314  0.00  0.00     0.021 C 
ENDROOT
BRANCH   1   9
ATOM      9  C   UNL d   1     -51.678  25.200  33.602  0.00  0.00     0.331 C 
ATOM     10  N   UNL d   1     -52.319  24.750  33.836  0.00  0.00    -0.365 NA
ATOM     11  O   UNL d   1     -51.794  25.959  33.310  0.00  0.00    -0.251 OA
BRANCH  10  12
ATOM     12  C   UNL d   1     -52.983  24.249  34.092  0.00  0.00     0.135 A 
ATOM     13  C   UNL d   1     -53.101  24.057  34.944  0.00  0.00     0.030 A 
ATOM     14  C   UNL d   1     -52.536  24.380  35.539  0.00  0.00     0.003 C 
ATOM     15  C   UNL d   1     -53.760  23.560  35.197  0.00  0.00     0.003 A 
ATOM     16  C   UNL d   1     -54.327  23.235  34.605  0.00  0.00     0.000 A 
ATOM     17  C   UNL d   1     -54.214  23.423  33.759  0.00  0.00     0.003 A 
ATOM     18  C   UNL d   1     -53.546  23.927  33.499  0.00  0.00     0.032 A 
ENDBRANCH  10  12
ENDBRANCH   1   9
BRANCH   3  19
ATOM     19  C   UNL d   1     -50.556  26.145  33.955  0.00  0.00     0.018 A 
ATOM     20  C   UNL d   1     -50.703  26.651  33.319  0.00  0.00     0.002 A 
ATOM     21  C   UNL d   1     -50.879  27.436  33.459  0.00  0.00     0.000 A 
ATOM     22  C   UNL d   1     -50.912  27.723  34.227  0.00  0.00     0.000 A 
ATOM     23  C   UNL d   1     -50.767  27.223  34.855  0.00  0.00     0.000 A 
ATOM     24  C   UNL d   1     -50.590  26.438  34.728  0.00  0.00     0.002 A 
ENDBRANCH   3  19
TORSDOF 3
ENDMDL
