MODEL 1
REMARK VINA RESULT:      54.3      0.000      0.000
REMARK  4 active torsions:
REMARK  status: ('A' for Active; 'I' for Inactive)
REMARK    1  A    between atoms: S_2  and  N_1 
REMARK    2  A    between atoms: C_7  and  S_2 
REMARK    3  A    between atoms: C_10  and  C_3 
REMARK    4  A    between atoms: C_14  and  C_10 
ROOT
ATOM      1  N   UNL d   1      14.427  13.603  -1.882  0.00  0.00    -0.214 N 
ATOM      2  C   UNL d   1      14.544  14.360  -1.557  0.00  0.00     0.157 A 
ATOM      3  N   UNL d   1      14.891  14.255  -0.813  0.00  0.00    -0.226 NA
ATOM      4  C   UNL d   1      14.701  13.044  -1.338  0.00  0.00     0.094 A 
ATOM      5  C   UNL d   1      14.989  13.440  -0.674  0.00  0.00     0.100 A 
ATOM      6  C   UNL d   1      14.725  12.215  -1.364  0.00  0.00     0.020 A 
ATOM      7  C   UNL d   1      15.304  13.016  -0.028  0.00  0.00     0.021 A 
ATOM      8  C   UNL d   1      15.038  11.785  -0.722  0.00  0.00     0.002 A 
ATOM      9  C   UNL d   1      15.323  12.204  -0.063  0.00  0.00     0.002 A 
ENDROOT
BRANCH   1  10
ATOM     10  S   UNL d   1      14.092  13.461  -2.623  0.00  0.00     0.272 S 
ATOM     11  O   UNL d   1      14.816  13.674  -2.964  0.00  0.00    -0.200 OA
ATOM     12  O   UNL d   1      13.375  13.249  -2.280  0.00  0.00    -0.200 OA
BRANCH  10  13
ATOM     13  C   UNL d   1      13.770  13.322  -3.367  0.00  0.00     0.104 A 
ATOM     14  C   UNL d   1      13.529  13.966  -3.824  0.00  0.00     0.013 A 
ATOM     15  C   UNL d   1      13.205  13.830  -4.572  0.00  0.00     0.007 A 
ATOM     16  C   UNL d   1      13.130  13.070  -4.840  0.00  0.00     0.035 A 
ATOM     17  C   UNL d   1      13.366  12.433  -4.391  0.00  0.00     0.007 A 
ATOM     18 BR   UNL d   1      12.798  12.930  -5.605  0.00  0.00    -0.049 Br
ATOM     19  C   UNL d   1      13.689  12.566  -3.649  0.00  0.00     0.013 A 
ENDBRANCH  10  13
ENDBRANCH   1  10
BRANCH   2  20
ATOM     20  C   UNL d   1      14.344  15.093  -1.923  0.00  0.00     0.038 C 
BRANCH  20  21
ATOM     21  C   UNL d   1      14.701  15.795  -1.676  0.00  0.00     0.003 A 
ATOM     22  C   UNL d   1      14.813  16.420  -2.217  0.00  0.00     0.000 A 
ATOM     23  C   UNL d   1      15.168  17.118  -1.972  0.00  0.00     0.000 A 
ATOM     24  C   UNL d   1      15.417  17.210  -1.194  0.00  0.00     0.000 A 
ATOM     25  C   UNL d   1      15.307  16.589  -0.656  0.00  0.00     0.000 A 
ATOM     26  C   UNL d   1      14.951  15.886  -0.896  0.00  0.00     0.000 A 
ENDBRANCH  20  21
ENDBRANCH   2  20
TORSDOF 4
ENDMDL
