MODEL 1
REMARK VINA RESULT:      17.9      0.000      0.000
REMARK  2 active torsions:
REMARK  status: ('A' for Active; 'I' for Inactive)
REMARK    1  A    between atoms: N_6  and  C_4 
REMARK    2  A    between atoms: C_9  and  N_6 
ROOT
ATOM      1  S   UNL d   1     -55.343-100.662 -44.356  0.00  0.00     0.216 S 
ATOM      2  C   UNL d   1     -56.011-100.199 -44.206  0.00  0.00     0.121 A 
ATOM      3  C   UNL d   1     -54.800-100.186 -44.724  0.00  0.00     0.142 A 
ATOM      4  C   UNL d   1     -55.879 -99.433 -44.482  0.00  0.00     0.132 A 
ATOM      5  C   UNL d   1     -55.124 -99.432 -44.803  0.00  0.00     0.225 A 
ATOM      6  O   UNL d   1     -55.913-101.140 -43.977  0.00  0.00    -0.217 OA
ATOM      7  O   UNL d   1     -54.803-101.274 -44.410  0.00  0.00    -0.217 OA
ATOM      8  O   UNL d   1     -54.728 -98.780 -45.158  0.00  0.00    -0.284 OA
ENDROOT
BRANCH   4   9
ATOM      9  N   UNL d   1     -56.317 -98.755 -44.490  0.00  0.00    -0.242 NA
BRANCH   9  10
ATOM     10  C   UNL d   1     -57.132 -98.770 -44.426  0.00  0.00     0.082 A 
ATOM     11  C   UNL d   1     -57.582 -98.762 -45.095  0.00  0.00     0.020 A 
ATOM     12  C   UNL d   1     -58.423 -98.777 -45.024  0.00  0.00     0.013 A 
ATOM     13  C   UNL d   1     -58.768 -98.799 -44.285  0.00  0.00     0.058 A 
ATOM     14  C   UNL d   1     -58.321 -98.807 -43.601  0.00  0.00     0.013 A 
ATOM     15 CL   UNL d   1     -59.608 -98.814 -44.226  0.00  0.00    -0.082 Cl
ATOM     16  C   UNL d   1     -57.493 -98.792 -43.676  0.00  0.00     0.020 A 
ENDBRANCH   9  10
ENDBRANCH   4   9
TORSDOF 2
ENDMDL
MODEL 2
REMARK VINA RESULT:      18.4      2.604      3.542
REMARK  2 active torsions:
REMARK  status: ('A' for Active; 'I' for Inactive)
REMARK    1  A    between atoms: N_6  and  C_4 
REMARK    2  A    between atoms: C_9  and  N_6 
ROOT
ATOM      1  S   UNL d   1     -59.089 -98.778 -43.400  0.00  0.00     0.216 S 
ATOM      2  C   UNL d   1     -58.282 -98.759 -43.578  0.00  0.00     0.121 A 
ATOM      3  C   UNL d   1     -59.490 -98.799 -44.104  0.00  0.00     0.142 A 
ATOM      4  C   UNL d   1     -58.185 -98.770 -44.397  0.00  0.00     0.132 A 
ATOM      5  C   UNL d   1     -58.939 -98.794 -44.718  0.00  0.00     0.225 A 
ATOM      6  O   UNL d   1     -58.663 -98.755 -42.682  0.00  0.00    -0.217 OA
ATOM      7  O   UNL d   1     -59.814 -98.791 -43.019  0.00  0.00    -0.217 OA
ATOM      8  O   UNL d   1     -59.140 -98.813 -45.535  0.00  0.00    -0.284 OA
ENDROOT
BRANCH   4   9
ATOM      9  N   UNL d   1     -57.543 -98.760 -44.886  0.00  0.00    -0.242 NA
BRANCH   9  10
ATOM     10  C   UNL d   1     -56.855 -99.161 -44.701  0.00  0.00     0.082 A 
ATOM     11  C   UNL d   1     -56.160 -98.755 -44.655  0.00  0.00     0.020 A 
ATOM     12  C   UNL d   1     -55.453 -99.173 -44.463  0.00  0.00     0.013 A 
ATOM     13  C   UNL d   1     -55.480 -99.977 -44.327  0.00  0.00     0.058 A 
ATOM     14  C   UNL d   1     -56.179-100.398 -44.370  0.00  0.00     0.013 A 
ATOM     15 CL   UNL d   1     -54.768-100.384 -44.136  0.00  0.00    -0.082 Cl
ATOM     16  C   UNL d   1     -56.873 -99.981 -44.560  0.00  0.00     0.020 A 
ENDBRANCH   9  10
ENDBRANCH   4   9
TORSDOF 2
ENDMDL
