MODEL 1
REMARK VINA RESULT:      -8.3      0.000      0.000
REMARK  5 active torsions:
REMARK  status: ('A' for Active; 'I' for Inactive)
REMARK    1  A    between atoms: C_10  and  N_3 
REMARK    2  A    between atoms: C_11  and  N_8 
REMARK    3  A    between atoms: C_14  and  C_10 
REMARK    4  A    between atoms: C_19  and  C_11 
REMARK    5  A    between atoms: C_20  and  C_19 
ROOT
ATOM      1  C   UNL d   1      53.101  33.894  53.741  0.00  0.00     0.174 A 
ATOM      2  C   UNL d   1      52.729  33.187  53.455  0.00  0.00     0.158 A 
ATOM      3  N   UNL d   1      51.481  33.889  53.343  0.00  0.00    -0.219 N 
ATOM      4  N   UNL d   1      53.870  33.719  53.881  0.00  0.00    -0.203 NA
ATOM      5  N   UNL d   1      52.649  34.579  53.819  0.00  0.00    -0.240 N 
ATOM      6  C   UNL d   1      51.853  34.595  53.629  0.00  0.00     0.343 A 
ATOM      7  C   UNL d   1      51.916  33.184  53.255  0.00  0.00     0.287 A 
ATOM      8  N   UNL d   1      53.278  32.592  53.425  0.00  0.00    -0.279 N 
ATOM      9  C   UNL d   1      53.988  32.911  53.687  0.00  0.00     0.185 A 
ATOM     10  O   UNL d   1      51.407  35.302  53.715  0.00  0.00    -0.245 OA
ATOM     11  O   UNL d   1      51.551  32.491  52.975  0.00  0.00    -0.265 OA
ATOM     12 BR   UNL d   1      54.698  32.446  53.732  0.00  0.00    -0.008 Br
ATOM     13  C   UNL d   1      53.023  35.290  54.107  0.00  0.00     0.105 C 
ENDROOT
BRANCH   8  14
ATOM     14  C   UNL d   1      53.188  31.781  53.179  0.00  0.00     0.082 C 
BRANCH  14  15
ATOM     15  C   UNL d   1      53.427  31.134  53.625  0.00  0.00     0.019 C 
BRANCH  15  16
ATOM     16  C   UNL d   1      53.265  30.370  53.413  0.00  0.00     0.002 C 
ATOM     17  C   UNL d   1      53.166  30.164  52.629  0.00  0.00     0.000 C 
ATOM     18  C   UNL d   1      53.200  29.797  54.017  0.00  0.00     0.000 C 
ENDBRANCH  15  16
ENDBRANCH  14  15
ENDBRANCH   8  14
BRANCH   3  19
ATOM     19  C   UNL d   1      50.663  33.887  53.143  0.00  0.00     0.151 C 
BRANCH  19  20
ATOM     20  C   UNL d   1      50.408  34.231  52.444  0.00  0.00     0.315 C 
ATOM     21  O   UNL d   1      50.823  34.112  51.739  0.00  0.00    -0.262 OA
ATOM     22  N   UNL d   1      49.731  34.697  52.453  0.00  0.00    -0.101 N 
ENDBRANCH  19  20
ENDBRANCH   3  19
TORSDOF 5
ENDMDL
MODEL 2
REMARK VINA RESULT:      -8.2      1.509      3.567
REMARK  5 active torsions:
REMARK  status: ('A' for Active; 'I' for Inactive)
REMARK    1  A    between atoms: C_10  and  N_3 
REMARK    2  A    between atoms: C_11  and  N_8 
REMARK    3  A    between atoms: C_14  and  C_10 
REMARK    4  A    between atoms: C_19  and  C_11 
REMARK    5  A    between atoms: C_20  and  C_19 
ROOT
ATOM      1  C   UNL d   1      53.379  33.198  54.049  0.00  0.00     0.174 A 
ATOM      2  C   UNL d   1      52.830  33.098  53.411  0.00  0.00     0.158 A 
ATOM      3  N   UNL d   1      53.233  31.726  53.281  0.00  0.00    -0.219 N 
ATOM      4  N   UNL d   1      53.320  33.958  54.299  0.00  0.00    -0.203 NA
ATOM      5  N   UNL d   1      53.839  32.557  54.285  0.00  0.00    -0.240 N 
ATOM      6  C   UNL d   1      53.781  31.826  53.919  0.00  0.00     0.343 A 
ATOM      7  C   UNL d   1      52.756  32.358  53.024  0.00  0.00     0.287 A 
ATOM      8  N   UNL d   1      52.444  33.798  53.280  0.00  0.00    -0.279 N 
ATOM      9  C   UNL d   1      52.739  34.337  53.824  0.00  0.00     0.185 A 
ATOM     10  O   UNL d   1      54.258  31.182  54.171  0.00  0.00    -0.245 OA
ATOM     11  O   UNL d   1      52.218  32.260  52.398  0.00  0.00    -0.265 OA
ATOM     12 BR   UNL d   1      52.462  35.140  53.855  0.00  0.00    -0.008 Br
ATOM     13  C   UNL d   1      54.392  32.658  54.928  0.00  0.00     0.105 C 
ENDROOT
BRANCH   8  14
ATOM     14  C   UNL d   1      51.843  33.989  52.706  0.00  0.00     0.082 C 
BRANCH  14  15
ATOM     15  C   UNL d   1      51.103  34.291  52.895  0.00  0.00     0.019 C 
BRANCH  15  16
ATOM     16  C   UNL d   1      50.510  34.374  52.350  0.00  0.00     0.002 C 
ATOM     17  C   UNL d   1      50.674  34.378  51.550  0.00  0.00     0.000 C 
ATOM     18  C   UNL d   1      49.727  34.455  52.627  0.00  0.00     0.000 C 
ENDBRANCH  15  16
ENDBRANCH  14  15
ENDBRANCH   8  14
BRANCH   3  19
ATOM     19  C   UNL d   1      53.159  30.981  52.894  0.00  0.00     0.151 C 
BRANCH  19  20
ATOM     20  C   UNL d   1      52.727  30.377  53.238  0.00  0.00     0.315 C 
ATOM     21  O   UNL d   1      51.911  30.448  53.345  0.00  0.00    -0.262 OA
ATOM     22  N   UNL d   1      53.118  29.694  53.478  0.00  0.00    -0.101 N 
ENDBRANCH  19  20
ENDBRANCH   3  19
TORSDOF 5
ENDMDL
MODEL 3
REMARK VINA RESULT:      -7.4      1.810      3.036
REMARK  5 active torsions:
REMARK  status: ('A' for Active; 'I' for Inactive)
REMARK    1  A    between atoms: C_10  and  N_3 
REMARK    2  A    between atoms: C_11  and  N_8 
REMARK    3  A    between atoms: C_14  and  C_10 
REMARK    4  A    between atoms: C_19  and  C_11 
REMARK    5  A    between atoms: C_20  and  C_19 
ROOT
ATOM      1  C   UNL d   1      52.863  32.115  53.131  0.00  0.00     0.174 A 
ATOM      2  C   UNL d   1      53.282  31.688  53.732  0.00  0.00     0.158 A 
ATOM      3  N   UNL d   1      53.645  32.929  54.359  0.00  0.00    -0.219 N 
ATOM      4  N   UNL d   1      52.551  31.574  52.628  0.00  0.00    -0.203 NA
ATOM      5  N   UNL d   1      52.848  32.938  53.162  0.00  0.00    -0.240 N 
ATOM      6  C   UNL d   1      53.226  33.355  53.757  0.00  0.00     0.343 A 
ATOM      7  C   UNL d   1      53.675  32.096  54.350  0.00  0.00     0.287 A 
ATOM      8  N   UNL d   1      53.220  30.894  53.588  0.00  0.00    -0.279 N 
ATOM      9  C   UNL d   1      52.769  30.812  52.906  0.00  0.00     0.185 A 
ATOM     10  O   UNL d   1      53.201  34.194  53.774  0.00  0.00    -0.245 OA
ATOM     11  O   UNL d   1      54.086  31.679  54.939  0.00  0.00    -0.265 OA
ATOM     12 BR   UNL d   1      52.585  30.049  52.579  0.00  0.00    -0.008 Br
ATOM     13  C   UNL d   1      52.426  33.367  52.557  0.00  0.00     0.105 C 
ENDROOT
BRANCH   8  14
ATOM     14  C   UNL d   1      53.539  30.234  54.023  0.00  0.00     0.082 C 
BRANCH  14  15
ATOM     15  C   UNL d   1      53.103  29.576  54.249  0.00  0.00     0.019 C 
BRANCH  15  16
ATOM     16  C   UNL d   1      53.409  28.982  54.706  0.00  0.00     0.002 C 
ATOM     17  C   UNL d   1      53.983  28.481  54.413  0.00  0.00     0.000 C 
ATOM     18  C   UNL d   1      53.123  28.895  55.486  0.00  0.00     0.000 C 
ENDBRANCH  15  16
ENDBRANCH  14  15
ENDBRANCH   8  14
BRANCH   3  19
ATOM     19  C   UNL d   1      54.039  33.341  54.978  0.00  0.00     0.151 C 
BRANCH  19  20
ATOM     20  C   UNL d   1      54.833  33.531  54.908  0.00  0.00     0.315 C 
ATOM     21  O   UNL d   1      55.254  33.344  54.222  0.00  0.00    -0.262 OA
ATOM     22  N   UNL d   1      55.208  33.913  55.532  0.00  0.00    -0.101 N 
ENDBRANCH  19  20
ENDBRANCH   3  19
TORSDOF 5
ENDMDL
MODEL 4
REMARK VINA RESULT:      -6.6      1.768      3.519
REMARK  5 active torsions:
REMARK  status: ('A' for Active; 'I' for Inactive)
REMARK    1  A    between atoms: C_10  and  N_3 
REMARK    2  A    between atoms: C_11  and  N_8 
REMARK    3  A    between atoms: C_14  and  C_10 
REMARK    4  A    between atoms: C_19  and  C_11 
REMARK    5  A    between atoms: C_20  and  C_19 
ROOT
ATOM      1  C   UNL d   1      52.249  33.107  53.467  0.00  0.00     0.174 A 
ATOM      2  C   UNL d   1      53.066  32.942  53.627  0.00  0.00     0.158 A 
ATOM      3  N   UNL d   1      52.887  31.599  53.149  0.00  0.00    -0.219 N 
ATOM      4  N   UNL d   1      52.114  33.869  53.676  0.00  0.00    -0.203 NA
ATOM      5  N   UNL d   1      51.776  32.511  53.152  0.00  0.00    -0.240 N 
ATOM      6  C   UNL d   1      52.071  31.764  52.990  0.00  0.00     0.343 A 
ATOM      7  C   UNL d   1      53.387  32.185  53.467  0.00  0.00     0.287 A 
ATOM      8  N   UNL d   1      53.417  33.605  53.931  0.00  0.00    -0.279 N 
ATOM      9  C   UNL d   1      52.836  34.185  53.966  0.00  0.00     0.185 A 
ATOM     10  O   UNL d   1      51.575  31.168  52.669  0.00  0.00    -0.245 OA
ATOM     11  O   UNL d   1      54.187  32.023  53.624  0.00  0.00    -0.265 OA
ATOM     12 BR   UNL d   1      53.001  34.966  54.259  0.00  0.00    -0.008 Br
ATOM     13  C   UNL d   1      50.954  32.677  52.991  0.00  0.00     0.105 C 
ENDROOT
BRANCH   8  14
ATOM     14  C   UNL d   1      54.222  33.729  54.181  0.00  0.00     0.082 C 
BRANCH  14  15
ATOM     15  C   UNL d   1      54.439  33.985  54.930  0.00  0.00     0.019 C 
BRANCH  15  16
ATOM     16  C   UNL d   1      55.197  33.931  55.211  0.00  0.00     0.002 C 
ATOM     17  C   UNL d   1      55.834  34.106  54.733  0.00  0.00     0.000 C 
ATOM     18  C   UNL d   1      55.309  33.691  56.003  0.00  0.00     0.000 C 
ENDBRANCH  15  16
ENDBRANCH  14  15
ENDBRANCH   8  14
BRANCH   3  19
ATOM     19  C   UNL d   1      53.208  30.837  52.989  0.00  0.00     0.151 C 
BRANCH  19  20
ATOM     20  C   UNL d   1      53.109  30.226  53.525  0.00  0.00     0.315 C 
ATOM     21  O   UNL d   1      53.416  30.281  54.290  0.00  0.00    -0.262 OA
ATOM     22  N   UNL d   1      52.700  29.552  53.290  0.00  0.00    -0.101 N 
ENDBRANCH  19  20
ENDBRANCH   3  19
TORSDOF 5
ENDMDL
MODEL 5
REMARK VINA RESULT:      -5.7      1.720      3.324
REMARK  5 active torsions:
REMARK  status: ('A' for Active; 'I' for Inactive)
REMARK    1  A    between atoms: C_10  and  N_3 
REMARK    2  A    between atoms: C_11  and  N_8 
REMARK    3  A    between atoms: C_14  and  C_10 
REMARK    4  A    between atoms: C_19  and  C_11 
REMARK    5  A    between atoms: C_20  and  C_19 
ROOT
ATOM      1  C   UNL d   1      53.327  32.929  54.015  0.00  0.00     0.174 A 
ATOM      2  C   UNL d   1      52.890  33.555  53.646  0.00  0.00     0.158 A 
ATOM      3  N   UNL d   1      53.636  34.522  54.401  0.00  0.00    -0.219 N 
ATOM      4  N   UNL d   1      53.053  32.238  53.717  0.00  0.00    -0.203 NA
ATOM      5  N   UNL d   1      53.908  33.120  54.568  0.00  0.00    -0.240 N 
ATOM      6  C   UNL d   1      54.073  33.896  54.770  0.00  0.00     0.343 A 
ATOM      7  C   UNL d   1      53.044  34.356  53.840  0.00  0.00     0.287 A 
ATOM      8  N   UNL d   1      52.355  33.236  53.128  0.00  0.00    -0.279 N 
ATOM      9  C   UNL d   1      52.447  32.421  53.164  0.00  0.00     0.185 A 
ATOM     10  O   UNL d   1      54.668  34.074  55.335  0.00  0.00    -0.245 OA
ATOM     11  O   UNL d   1      52.615  34.969  53.478  0.00  0.00    -0.265 OA
ATOM     12 BR   UNL d   1      51.975  31.895  52.692  0.00  0.00    -0.008 Br
ATOM     13  C   UNL d   1      54.348  32.490  54.939  0.00  0.00     0.105 C 
ENDROOT
BRANCH   8  14
ATOM     14  C   UNL d   1      51.788  33.623  52.624  0.00  0.00     0.082 C 
BRANCH  14  15
ATOM     15  C   UNL d   1      50.975  33.606  52.744  0.00  0.00     0.019 C 
BRANCH  15  16
ATOM     16  C   UNL d   1      50.461  34.078  52.334  0.00  0.00     0.002 C 
ATOM     17  C   UNL d   1      50.529  34.170  51.526  0.00  0.00     0.000 C 
ATOM     18  C   UNL d   1      49.858  34.469  52.760  0.00  0.00     0.000 C 
ENDBRANCH  15  16
ENDBRANCH  14  15
ENDBRANCH   8  14
BRANCH   3  19
ATOM     19  C   UNL d   1      53.793  35.326  54.597  0.00  0.00     0.151 C 
BRANCH  19  20
ATOM     20  C   UNL d   1      53.256  35.755  55.043  0.00  0.00     0.315 C 
ATOM     21  O   UNL d   1      53.024  35.495  55.792  0.00  0.00    -0.262 OA
ATOM     22  N   UNL d   1      52.949  36.453  54.734  0.00  0.00    -0.101 N 
ENDBRANCH  19  20
ENDBRANCH   3  19
TORSDOF 5
ENDMDL
