MODEL 1
REMARK VINA RESULT:      20.2      0.000      0.000
REMARK  4 active torsions:
REMARK  status: ('A' for Active; 'I' for Inactive)
REMARK    1  A    between atoms: N_4  and  C_8 
REMARK    2  A    between atoms: C_15  and  C_5 
REMARK    3  A    between atoms: O_17  and  C_15 
REMARK    4  A    between atoms: C_16  and  O_17 
ROOT
ATOM      1  C   UNL d   1      12.770  11.781  -2.878  0.00  0.00     0.144 C 
ENDROOT
BRANCH   1   2
ATOM      2  C   UNL d   1      13.015  12.166  -3.561  0.00  0.00     0.142 A 
ATOM      3  N   UNL d   1      13.295  11.805  -4.244  0.00  0.00    -0.057 NA
ATOM      4  C   UNL d   1      13.474  12.392  -4.778  0.00  0.00     0.735 A 
ATOM      5  N   UNL d   1      13.306  13.121  -4.430  0.00  0.00    -0.136 N 
ATOM      6  N   UNL d   1      13.771  12.371  -5.547  0.00  0.00    -0.059 NA
ATOM      7  C   UNL d   1      13.024  12.967  -3.682  0.00  0.00     0.120 A 
ATOM      8  C   UNL d   1      13.427  13.837  -4.833  0.00  0.00     0.100 A 
ATOM      9  C   UNL d   1      13.733  13.806  -5.621  0.00  0.00     0.041 A 
ATOM     10  C   UNL d   1      13.901  13.065  -5.968  0.00  0.00     0.119 A 
ENDBRANCH   1   2
BRANCH   1  11
ATOM     11  O   UNL d   1      13.183  11.892  -2.159  0.00  0.00    -0.303 OA
BRANCH  11  12
ATOM     12  C   UNL d   1      13.593  12.007  -1.447  0.00  0.00     0.102 A 
ATOM     13  C   UNL d   1      14.348  12.354  -1.447  0.00  0.00     0.048 A 
ATOM     14  C   UNL d   1      14.759  12.470  -0.745  0.00  0.00     0.129 A 
ATOM     15  C   UNL d   1      14.417  12.237  -0.021  0.00  0.00     0.024 A 
ATOM     16  C   UNL d   1      13.664  11.891  -0.019  0.00  0.00     0.004 A 
ATOM     17  C   UNL d   1      13.261  11.779  -0.727  0.00  0.00     0.025 A 
BRANCH  14  18
ATOM     18  N   UNL d   1      15.509  12.816  -0.762  0.00  0.00    -0.114 N 
ATOM     19  O   UNL d   1      16.128  12.429  -1.152  0.00  0.00    -0.532 OA
ATOM     20  O   UNL d   1      15.647  13.535  -0.399  0.00  0.00    -0.532 OA
ENDBRANCH  14  18
ENDBRANCH  11  12
ENDBRANCH   1  11
TORSDOF 4
ENDMDL
MODEL 2
REMARK VINA RESULT:      21.3      1.675      4.286
REMARK  4 active torsions:
REMARK  status: ('A' for Active; 'I' for Inactive)
REMARK    1  A    between atoms: N_4  and  C_8 
REMARK    2  A    between atoms: C_15  and  C_5 
REMARK    3  A    between atoms: O_17  and  C_15 
REMARK    4  A    between atoms: C_16  and  O_17 
ROOT
ATOM      1  C   UNL d   1      12.926  11.781  -2.783  0.00  0.00     0.144 C 
ENDROOT
BRANCH   1   2
ATOM      2  C   UNL d   1      13.512  11.791  -2.208  0.00  0.00     0.142 A 
ATOM      3  N   UNL d   1      14.323  11.799  -2.344  0.00  0.00    -0.057 NA
ATOM      4  C   UNL d   1      14.695  11.808  -1.621  0.00  0.00     0.735 A 
ATOM      5  N   UNL d   1      14.119  11.806  -1.031  0.00  0.00    -0.136 N 
ATOM      6  N   UNL d   1      15.492  11.818  -1.407  0.00  0.00    -0.059 NA
ATOM      7  C   UNL d   1      13.397  11.795  -1.406  0.00  0.00     0.120 A 
ATOM      8  C   UNL d   1      14.318  11.813  -0.225  0.00  0.00     0.100 A 
ATOM      9  C   UNL d   1      15.137  11.823  -0.014  0.00  0.00     0.041 A 
ATOM     10  C   UNL d   1      15.716  11.826  -0.616  0.00  0.00     0.119 A 
ENDBRANCH   1   2
BRANCH   1  11
ATOM     11  O   UNL d   1      13.041  12.178  -3.510  0.00  0.00    -0.303 OA
BRANCH  11  12
ATOM     12  C   UNL d   1      13.151  12.573  -4.231  0.00  0.00     0.102 A 
ATOM     13  C   UNL d   1      13.171  13.404  -4.257  0.00  0.00     0.048 A 
ATOM     14  C   UNL d   1      13.280  13.800  -4.969  0.00  0.00     0.129 A 
ATOM     15  C   UNL d   1      13.371  13.367  -5.675  0.00  0.00     0.024 A 
ATOM     16  C   UNL d   1      13.351  12.539  -5.651  0.00  0.00     0.004 A 
ATOM     17  C   UNL d   1      13.242  12.151  -4.935  0.00  0.00     0.025 A 
BRANCH  14  18
ATOM     18  N   UNL d   1      13.297  14.626  -4.978  0.00  0.00    -0.114 N 
ATOM     19  O   UNL d   1      13.783  15.018  -5.523  0.00  0.00    -0.532 OA
ATOM     20  O   UNL d   1      12.842  15.061  -4.457  0.00  0.00    -0.532 OA
ENDBRANCH  14  18
ENDBRANCH  11  12
ENDBRANCH   1  11
TORSDOF 4
ENDMDL
