MODEL 1
REMARK VINA RESULT:      -6.9      0.000      0.000
REMARK  4 active torsions:
REMARK  status: ('A' for Active; 'I' for Inactive)
REMARK    1  A    between atoms: C_8  and  C_4 
REMARK       I    between atoms: C_7  and  N_10 
REMARK    2  A    between atoms: C_16  and  C_7 
REMARK    3  A    between atoms: N_10  and  C_13 
REMARK    4  A    between atoms: C_17  and  C_16 
ROOT
ATOM      1  C   UNL d   1     -46.498  13.425  22.490  0.00  0.00     0.021 A 
ATOM      2  C   UNL d   1     -47.168  12.983  22.288  0.00  0.00     0.021 A 
ATOM      3  C   UNL d   1     -47.918  13.295  22.407  0.00  0.00     0.085 A 
ATOM      4  C   UNL d   1     -46.582  14.179  22.812  0.00  0.00     0.002 A 
ATOM      5  C   UNL d   1     -47.333  14.498  22.935  0.00  0.00     0.002 A 
ATOM      6  C   UNL d   1     -48.006  14.051  22.729  0.00  0.00     0.019 A 
ENDROOT
BRANCH   1   7
ATOM      7  C   UNL d   1     -45.744  13.111  22.371  0.00  0.00     0.118 A 
ATOM      8  N   UNL d   1     -45.188  13.387  21.837  0.00  0.00    -0.059 NA
ATOM      9  C   UNL d   1     -44.519  12.912  21.903  0.00  0.00     0.735 A 
ATOM     10  N   UNL d   1     -44.659  12.343  22.476  0.00  0.00    -0.136 N 
ATOM     11  N   UNL d   1     -43.795  12.938  21.501  0.00  0.00    -0.059 NA
ATOM     12  C   UNL d   1     -45.419  12.465  22.768  0.00  0.00     0.118 A 
ATOM     13  C   UNL d   1     -44.078  11.789  22.657  0.00  0.00     0.100 A 
ATOM     14  C   UNL d   1     -43.359  11.808  22.264  0.00  0.00     0.041 A 
ATOM     15  C   UNL d   1     -43.219  12.377  21.690  0.00  0.00     0.119 A 
ENDBRANCH   1   7
BRANCH   3  16
ATOM     16  N   UNL d   1     -48.583  12.852  22.204  0.00  0.00    -0.208 NA
ATOM     17  C   UNL d   1     -49.103  12.591  22.792  0.00  0.00     0.275 C 
ATOM     18  O   UNL d   1     -48.957  12.772  23.579  0.00  0.00    -0.266 OA
BRANCH  17  19
ATOM     19  C   UNL d   1     -49.764  12.151  22.592  0.00  0.00     0.036 C 
BRANCH  19  20
ATOM     20  C   UNL d   1     -50.412  12.145  23.096  0.00  0.00     0.023 C 
ATOM     21  C   UNL d   1     -50.238  11.558  23.664  0.00  0.00     0.004 C 
ATOM     22  C   UNL d   1     -50.920  12.714  22.807  0.00  0.00     0.004 C 
ATOM     23  C   UNL d   1     -51.064  12.136  23.607  0.00  0.00     0.004 C 
ENDBRANCH  19  20
ENDBRANCH  17  19
ENDBRANCH   3  16
TORSDOF 4
ENDMDL
MODEL 2
REMARK VINA RESULT:      -6.2      1.633      5.110
REMARK  4 active torsions:
REMARK  status: ('A' for Active; 'I' for Inactive)
REMARK    1  A    between atoms: C_8  and  C_4 
REMARK       I    between atoms: C_7  and  N_10 
REMARK    2  A    between atoms: C_16  and  C_7 
REMARK    3  A    between atoms: N_10  and  C_13 
REMARK    4  A    between atoms: C_17  and  C_16 
ROOT
ATOM      1  C   UNL d   1     -48.506  12.631  23.313  0.00  0.00     0.021 A 
ATOM      2  C   UNL d   1     -47.711  12.860  23.341  0.00  0.00     0.021 A 
ATOM      3  C   UNL d   1     -47.130  12.309  23.519  0.00  0.00     0.085 A 
ATOM      4  C   UNL d   1     -48.716  11.848  23.464  0.00  0.00     0.002 A 
ATOM      5  C   UNL d   1     -48.136  11.289  23.644  0.00  0.00     0.002 A 
ATOM      6  C   UNL d   1     -47.337  11.524  23.671  0.00  0.00     0.019 A 
ENDROOT
BRANCH   1   7
ATOM      7  C   UNL d   1     -49.090  13.185  23.133  0.00  0.00     0.118 A 
ATOM      8  N   UNL d   1     -49.317  13.815  23.606  0.00  0.00    -0.059 NA
ATOM      9  C   UNL d   1     -49.915  14.221  23.212  0.00  0.00     0.735 A 
ATOM     10  N   UNL d   1     -50.059  13.845  22.498  0.00  0.00    -0.136 N 
ATOM     11  N   UNL d   1     -50.345  14.896  23.429  0.00  0.00    -0.059 NA
ATOM     12  C   UNL d   1     -49.549  13.202  22.447  0.00  0.00     0.118 A 
ATOM     13  C   UNL d   1     -50.635  14.138  21.988  0.00  0.00     0.100 A 
ATOM     14  C   UNL d   1     -51.064  14.805  22.196  0.00  0.00     0.041 A 
ATOM     15  C   UNL d   1     -50.920  15.180  22.911  0.00  0.00     0.119 A 
ENDBRANCH   1   7
BRANCH   3  16
ATOM     16  N   UNL d   1     -46.339  12.541  23.546  0.00  0.00    -0.208 NA
ATOM     17  C   UNL d   1     -45.906  12.622  22.846  0.00  0.00     0.275 C 
ATOM     18  O   UNL d   1     -46.264  12.471  22.123  0.00  0.00    -0.266 OA
BRANCH  17  19
ATOM     19  C   UNL d   1     -45.121  12.852  22.872  0.00  0.00     0.036 C 
BRANCH  19  20
ATOM     20  C   UNL d   1     -44.685  12.875  22.177  0.00  0.00     0.023 C 
ATOM     21  C   UNL d   1     -44.227  12.176  22.187  0.00  0.00     0.004 C 
ATOM     22  C   UNL d   1     -44.901  13.566  21.803  0.00  0.00     0.004 C 
ATOM     23  C   UNL d   1     -44.242  12.893  21.476  0.00  0.00     0.004 C 
ENDBRANCH  19  20
ENDBRANCH  17  19
ENDBRANCH   3  16
TORSDOF 4
ENDMDL
MODEL 3
REMARK VINA RESULT:      -6.2      1.251      1.743
REMARK  4 active torsions:
REMARK  status: ('A' for Active; 'I' for Inactive)
REMARK    1  A    between atoms: C_8  and  C_4 
REMARK       I    between atoms: C_7  and  N_10 
REMARK    2  A    between atoms: C_16  and  C_7 
REMARK    3  A    between atoms: N_10  and  C_13 
REMARK    4  A    between atoms: C_17  and  C_16 
ROOT
ATOM      1  C   UNL d   1     -46.662  12.527  23.021  0.00  0.00     0.021 A 
ATOM      2  C   UNL d   1     -47.151  13.194  22.985  0.00  0.00     0.021 A 
ATOM      3  C   UNL d   1     -47.908  13.166  23.302  0.00  0.00     0.085 A 
ATOM      4  C   UNL d   1     -46.934  11.834  23.376  0.00  0.00     0.002 A 
ATOM      5  C   UNL d   1     -47.693  11.800  23.696  0.00  0.00     0.002 A 
ATOM      6  C   UNL d   1     -48.184  12.474  23.658  0.00  0.00     0.019 A 
ENDROOT
BRANCH   1   7
ATOM      7  C   UNL d   1     -45.902  12.554  22.703  0.00  0.00     0.118 A 
ATOM      8  N   UNL d   1     -45.288  12.041  22.879  0.00  0.00    -0.059 NA
ATOM      9  C   UNL d   1     -44.633  12.273  22.437  0.00  0.00     0.735 A 
ATOM     10  N   UNL d   1     -44.840  12.927  21.988  0.00  0.00    -0.136 N 
ATOM     11  N   UNL d   1     -43.868  11.956  22.395  0.00  0.00    -0.059 NA
ATOM     12  C   UNL d   1     -45.626  13.103  22.151  0.00  0.00     0.118 A 
ATOM     13  C   UNL d   1     -44.285  13.275  21.490  0.00  0.00     0.100 A 
ATOM     14  C   UNL d   1     -43.527  12.968  21.443  0.00  0.00     0.041 A 
ATOM     15  C   UNL d   1     -43.320  12.313  21.892  0.00  0.00     0.119 A 
ENDBRANCH   1   7
BRANCH   3  16
ATOM     16  N   UNL d   1     -48.393  13.832  23.264  0.00  0.00    -0.208 NA
ATOM     17  C   UNL d   1     -49.103  13.805  22.841  0.00  0.00     0.275 C 
ATOM     18  O   UNL d   1     -49.327  13.114  22.459  0.00  0.00    -0.266 OA
BRANCH  17  19
ATOM     19  C   UNL d   1     -49.585  14.466  22.803  0.00  0.00     0.036 C 
BRANCH  19  20
ATOM     20  C   UNL d   1     -50.310  14.415  22.420  0.00  0.00     0.023 C 
ATOM     21  C   UNL d   1     -50.870  14.325  23.033  0.00  0.00     0.004 C 
ATOM     22  C   UNL d   1     -50.144  14.475  21.625  0.00  0.00     0.004 C 
ATOM     23  C   UNL d   1     -51.044  14.362  22.039  0.00  0.00     0.004 C 
ENDBRANCH  19  20
ENDBRANCH  17  19
ENDBRANCH   3  16
TORSDOF 4
ENDMDL
MODEL 4
REMARK VINA RESULT:      -6.2      1.232      4.744
REMARK  4 active torsions:
REMARK  status: ('A' for Active; 'I' for Inactive)
REMARK    1  A    between atoms: C_8  and  C_4 
REMARK       I    between atoms: C_7  and  N_10 
REMARK    2  A    between atoms: C_16  and  C_7 
REMARK    3  A    between atoms: N_10  and  C_13 
REMARK    4  A    between atoms: C_17  and  C_16 
ROOT
ATOM      1  C   UNL d   1     -47.437  13.612  22.539  0.00  0.00     0.021 A 
ATOM      2  C   UNL d   1     -46.865  13.042  22.354  0.00  0.00     0.021 A 
ATOM      3  C   UNL d   1     -46.069  13.206  22.468  0.00  0.00     0.085 A 
ATOM      4  C   UNL d   1     -47.208  14.344  22.838  0.00  0.00     0.002 A 
ATOM      5  C   UNL d   1     -46.409  14.515  22.956  0.00  0.00     0.002 A 
ATOM      6  C   UNL d   1     -45.836  13.939  22.768  0.00  0.00     0.019 A 
ENDROOT
BRANCH   1   7
ATOM      7  C   UNL d   1     -48.237  13.447  22.423  0.00  0.00     0.118 A 
ATOM      8  N   UNL d   1     -48.644  12.803  22.724  0.00  0.00    -0.059 NA
ATOM      9  C   UNL d   1     -49.425  12.860  22.472  0.00  0.00     0.735 A 
ATOM     10  N   UNL d   1     -49.504  13.537  22.016  0.00  0.00    -0.136 N 
ATOM     11  N   UNL d   1     -50.075  12.365  22.610  0.00  0.00    -0.059 NA
ATOM     12  C   UNL d   1     -48.768  13.903  21.985  0.00  0.00     0.118 A 
ATOM     13  C   UNL d   1     -50.234  13.730  21.691  0.00  0.00     0.100 A 
ATOM     14  C   UNL d   1     -50.882  13.246  21.823  0.00  0.00     0.041 A 
ATOM     15  C   UNL d   1     -50.803  12.569  22.278  0.00  0.00     0.119 A 
ENDBRANCH   1   7
BRANCH   3  16
ATOM     16  N   UNL d   1     -45.503  12.636  22.283  0.00  0.00    -0.208 NA
ATOM     17  C   UNL d   1     -45.254  12.096  22.858  0.00  0.00     0.275 C 
ATOM     18  O   UNL d   1     -45.571  12.126  23.614  0.00  0.00    -0.266 OA
BRANCH  17  19
ATOM     19  C   UNL d   1     -44.692  11.529  22.675  0.00  0.00     0.036 C 
BRANCH  19  20
ATOM     20  C   UNL d   1     -44.579  10.894  23.183  0.00  0.00     0.023 C 
ATOM     21  C   UNL d   1     -43.754  10.862  23.308  0.00  0.00     0.004 C 
ATOM     22  C   UNL d   1     -45.323  10.593  23.328  0.00  0.00     0.004 C 
ATOM     23  C   UNL d   1     -44.461  10.254  23.696  0.00  0.00     0.004 C 
ENDBRANCH  19  20
ENDBRANCH  17  19
ENDBRANCH   3  16
TORSDOF 4
ENDMDL
MODEL 5
REMARK VINA RESULT:      -5.9      7.668      8.965
REMARK  4 active torsions:
REMARK  status: ('A' for Active; 'I' for Inactive)
REMARK    1  A    between atoms: C_8  and  C_4 
REMARK       I    between atoms: C_7  and  N_10 
REMARK    2  A    between atoms: C_16  and  C_7 
REMARK    3  A    between atoms: N_10  and  C_13 
REMARK    4  A    between atoms: C_17  and  C_16 
ROOT
ATOM      1  C   UNL d   1     -40.137  15.556  19.734  0.00  0.00     0.021 A 
ATOM      2  C   UNL d   1     -39.584  15.441  20.339  0.00  0.00     0.021 A 
ATOM      3  C   UNL d   1     -39.799  15.564  21.121  0.00  0.00     0.085 A 
ATOM      4  C   UNL d   1     -40.904  15.796  19.915  0.00  0.00     0.002 A 
ATOM      5  C   UNL d   1     -41.127  15.922  20.700  0.00  0.00     0.002 A 
ATOM      6  C   UNL d   1     -40.567  15.805  21.307  0.00  0.00     0.019 A 
ENDROOT
BRANCH   1   7
ATOM      7  C   UNL d   1     -39.921  15.432  18.947  0.00  0.00     0.118 A 
ATOM      8  N   UNL d   1     -39.444  15.922  18.496  0.00  0.00    -0.059 NA
ATOM      9  C   UNL d   1     -39.376  15.586  17.748  0.00  0.00     0.735 A 
ATOM     10  N   UNL d   1     -39.809  14.890  17.734  0.00  0.00    -0.136 N 
ATOM     11  N   UNL d   1     -38.963  15.841  17.076  0.00  0.00    -0.059 NA
ATOM     12  C   UNL d   1     -40.148  14.792  18.477  0.00  0.00     0.118 A 
ATOM     13  C   UNL d   1     -39.837  14.437  17.047  0.00  0.00     0.100 A 
ATOM     14  C   UNL d   1     -39.432  14.683  16.379  0.00  0.00     0.041 A 
ATOM     15  C   UNL d   1     -38.999  15.379  16.393  0.00  0.00     0.119 A 
ENDBRANCH   1   7
BRANCH   3  16
ATOM     16  N   UNL d   1     -39.246  15.448  21.721  0.00  0.00    -0.208 NA
ATOM     17  C   UNL d   1     -39.172  14.707  22.080  0.00  0.00     0.275 C 
ATOM     18  O   UNL d   1     -39.651  14.085  21.839  0.00  0.00    -0.266 OA
BRANCH  17  19
ATOM     19  C   UNL d   1     -38.623  14.590  22.677  0.00  0.00     0.036 C 
BRANCH  19  20
ATOM     20  C   UNL d   1     -38.478  13.829  22.947  0.00  0.00     0.023 C 
ATOM     21  C   UNL d   1     -38.949  13.750  23.632  0.00  0.00     0.004 C 
ATOM     22  C   UNL d   1     -37.943  13.507  22.423  0.00  0.00     0.004 C 
ATOM     23  C   UNL d   1     -38.334  13.061  23.224  0.00  0.00     0.004 C 
ENDBRANCH  19  20
ENDBRANCH  17  19
ENDBRANCH   3  16
TORSDOF 4
ENDMDL
MODEL 6
REMARK VINA RESULT:      -5.5      1.287      5.094
REMARK  4 active torsions:
REMARK  status: ('A' for Active; 'I' for Inactive)
REMARK    1  A    between atoms: C_8  and  C_4 
REMARK       I    between atoms: C_7  and  N_10 
REMARK    2  A    between atoms: C_16  and  C_7 
REMARK    3  A    between atoms: N_10  and  C_13 
REMARK    4  A    between atoms: C_17  and  C_16 
ROOT
ATOM      1  C   UNL d   1     -47.589  13.697  22.616  0.00  0.00     0.021 A 
ATOM      2  C   UNL d   1     -47.009  13.114  22.515  0.00  0.00     0.021 A 
ATOM      3  C   UNL d   1     -46.222  13.285  22.675  0.00  0.00     0.085 A 
ATOM      4  C   UNL d   1     -47.377  14.449  22.876  0.00  0.00     0.002 A 
ATOM      5  C   UNL d   1     -46.588  14.628  23.038  0.00  0.00     0.002 A 
ATOM      6  C   UNL d   1     -46.007  14.039  22.936  0.00  0.00     0.019 A 
ENDROOT
BRANCH   1   7
ATOM      7  C   UNL d   1     -48.379  13.524  22.455  0.00  0.00     0.118 A 
ATOM      8  N   UNL d   1     -48.767  13.659  21.746  0.00  0.00    -0.059 NA
ATOM      9  C   UNL d   1     -49.544  13.405  21.833  0.00  0.00     0.735 A 
ATOM     10  N   UNL d   1     -49.640  13.113  22.594  0.00  0.00    -0.136 N 
ATOM     11  N   UNL d   1     -50.178  13.408  21.298  0.00  0.00    -0.059 NA
ATOM     12  C   UNL d   1     -48.919  13.187  22.982  0.00  0.00     0.118 A 
ATOM     13  C   UNL d   1     -50.371  12.820  22.832  0.00  0.00     0.100 A 
ATOM     14  C   UNL d   1     -51.002  12.820  22.309  0.00  0.00     0.041 A 
ATOM     15  C   UNL d   1     -50.906  13.111  21.549  0.00  0.00     0.119 A 
ENDBRANCH   1   7
BRANCH   3  16
ATOM     16  N   UNL d   1     -45.647  12.703  22.573  0.00  0.00    -0.208 NA
ATOM     17  C   UNL d   1     -44.954  12.872  22.156  0.00  0.00     0.275 C 
ATOM     18  O   UNL d   1     -44.837  13.621  21.841  0.00  0.00    -0.266 OA
BRANCH  17  19
ATOM     19  C   UNL d   1     -44.382  12.295  22.054  0.00  0.00     0.036 C 
BRANCH  19  20
ATOM     20  C   UNL d   1     -43.656  12.498  21.729  0.00  0.00     0.023 C 
ATOM     21  C   UNL d   1     -43.089  12.207  22.269  0.00  0.00     0.004 C 
ATOM     22  C   UNL d   1     -43.827  12.888  21.034  0.00  0.00     0.004 C 
ATOM     23  C   UNL d   1     -42.921  12.702  21.405  0.00  0.00     0.004 C 
ENDBRANCH  19  20
ENDBRANCH  17  19
ENDBRANCH   3  16
TORSDOF 4
ENDMDL
MODEL 7
REMARK VINA RESULT:      -5.1      8.590      9.582
REMARK  4 active torsions:
REMARK  status: ('A' for Active; 'I' for Inactive)
REMARK    1  A    between atoms: C_8  and  C_4 
REMARK       I    between atoms: C_7  and  N_10 
REMARK    2  A    between atoms: C_16  and  C_7 
REMARK    3  A    between atoms: N_10  and  C_13 
REMARK    4  A    between atoms: C_17  and  C_16 
ROOT
ATOM      1  C   UNL d   1     -38.967  14.054  18.557  0.00  0.00     0.021 A 
ATOM      2  C   UNL d   1     -38.709  14.425  19.251  0.00  0.00     0.021 A 
ATOM      3  C   UNL d   1     -38.198  14.034  19.760  0.00  0.00     0.085 A 
ATOM      4  C   UNL d   1     -38.711  13.292  18.377  0.00  0.00     0.002 A 
ATOM      5  C   UNL d   1     -38.197  12.893  18.885  0.00  0.00     0.002 A 
ATOM      6  C   UNL d   1     -37.940  13.270  19.582  0.00  0.00     0.019 A 
ENDROOT
BRANCH   1   7
ATOM      7  C   UNL d   1     -39.481  14.447  18.045  0.00  0.00     0.118 A 
ATOM      8  N   UNL d   1     -40.295  14.358  18.018  0.00  0.00    -0.059 NA
ATOM      9  C   UNL d   1     -40.582  14.854  17.427  0.00  0.00     0.735 A 
ATOM     10  N   UNL d   1     -39.949  15.249  17.088  0.00  0.00    -0.136 N 
ATOM     11  N   UNL d   1     -41.356  14.987  17.161  0.00  0.00    -0.059 NA
ATOM     12  C   UNL d   1     -39.265  14.998  17.469  0.00  0.00     0.118 A 
ATOM     13  C   UNL d   1     -40.079  15.785  16.477  0.00  0.00     0.100 A 
ATOM     14  C   UNL d   1     -40.841  15.922  16.208  0.00  0.00     0.041 A 
ATOM     15  C   UNL d   1     -41.474  15.526  16.548  0.00  0.00     0.119 A 
ENDBRANCH   1   7
BRANCH   3  16
ATOM     16  N   UNL d   1     -37.943  14.407  20.450  0.00  0.00    -0.208 NA
ATOM     17  C   UNL d   1     -38.309  14.237  21.172  0.00  0.00     0.275 C 
ATOM     18  O   UNL d   1     -38.926  13.697  21.204  0.00  0.00    -0.266 OA
BRANCH  17  19
ATOM     19  C   UNL d   1     -38.057  14.607  21.859  0.00  0.00     0.036 C 
BRANCH  19  20
ATOM     20  C   UNL d   1     -38.605  14.795  22.440  0.00  0.00     0.023 C 
ATOM     21  C   UNL d   1     -38.897  15.548  22.224  0.00  0.00     0.004 C 
ATOM     22  C   UNL d   1     -38.609  14.162  22.954  0.00  0.00     0.004 C 
ATOM     23  C   UNL d   1     -39.160  14.990  23.024  0.00  0.00     0.004 C 
ENDBRANCH  19  20
ENDBRANCH  17  19
ENDBRANCH   3  16
TORSDOF 4
ENDMDL
