MODEL 1
REMARK VINA RESULT:      65.3      0.000      0.000
REMARK  3 active torsions:
REMARK  status: ('A' for Active; 'I' for Inactive)
REMARK    1  A    between atoms: N_3  and  S_1 
REMARK    2  A    between atoms: C_7  and  S_1 
REMARK    3  A    between atoms: C_10  and  N_3 
ROOT
ATOM      1  S   UNL d   1      59.228  48.924  50.368  0.00  0.00     0.327 S 
ATOM      2  O   UNL d   1      59.008  49.667  50.097  0.00  0.00    -0.186 OA
ATOM      3  O   UNL d   1      58.653  48.367  50.553  0.00  0.00    -0.186 OA
ENDROOT
BRANCH   1   4
ATOM      4  N   UNL d   1      58.435  49.118  50.279  0.00  0.00    -0.314 NA
BRANCH   4   5
ATOM      5  C   UNL d   1      57.626  49.317  50.187  0.00  0.00     0.184 A 
ATOM      6  C   UNL d   1      57.173  49.501  50.860  0.00  0.00     0.226 A 
ATOM      7  O   UNL d   1      57.513  49.489  51.605  0.00  0.00    -0.284 OA
ATOM      8  C   UNL d   1      56.374  49.697  50.766  0.00  0.00     0.045 A 
ATOM      9  C   UNL d   1      56.036  49.707  50.011  0.00  0.00     0.004 A 
ATOM     10  C   UNL d   1      56.494  49.523  49.354  0.00  0.00     0.003 A 
ATOM     11  C   UNL d   1      57.289  49.328  49.445  0.00  0.00     0.036 A 
ENDBRANCH   4   5
ENDBRANCH   1   4
BRANCH   1  12
ATOM     12  C   UNL d   1      60.022  48.739  50.454  0.00  0.00     0.118 A 
ATOM     13  C   UNL d   1      60.336  48.090  50.062  0.00  0.00     0.035 A 
ATOM     14  C   UNL d   1      61.137  47.900  50.146  0.00  0.00     0.105 A 
ATOM     15  N   UNL d   1      61.601  47.296  49.830  0.00  0.00    -0.189 NA
ATOM     16  C   UNL d   1      61.624  48.369  50.630  0.00  0.00     0.104 A 
ATOM     17  C   UNL d   1      62.378  47.388  50.116  0.00  0.00     0.369 A 
ATOM     18  O   UNL d   1      63.020  46.905  49.939  0.00  0.00    -0.242 OA
ATOM     19  N   UNL d   1      62.385  48.051  50.608  0.00  0.00    -0.189 NA
ATOM     20  C   UNL d   1      61.304  49.023  51.024  0.00  0.00     0.022 A 
ATOM     21  C   UNL d   1      60.504  49.204  50.933  0.00  0.00     0.016 A 
ENDBRANCH   1  12
TORSDOF 3
ENDMDL
