MODEL 1
REMARK VINA RESULT:      -5.1      0.000      0.000
REMARK  6 active torsions:
REMARK  status: ('A' for Active; 'I' for Inactive)
REMARK    1  A    between atoms: C_2  and  C_1 
REMARK    2  A    between atoms: C_4  and  C_1 
REMARK    3  A    between atoms: C_6  and  C_2 
REMARK    4  A    between atoms: O_12  and  C_3 
REMARK    5  A    between atoms: C_8  and  C_4 
REMARK    6  A    between atoms: O_13  and  C_10 
ROOT
ATOM      1  C   UNL d   1      58.214  -1.029  29.962  0.00  0.00     0.096 A 
ATOM      2  C   UNL d   1      58.676  -0.673  29.379  0.00  0.00     0.048 A 
ATOM      3  C   UNL d   1      57.802  -0.561  30.502  0.00  0.00     0.022 A 
ATOM      4  C   UNL d   1      57.849   0.264  30.462  0.00  0.00     0.004 A 
ATOM      5  C   UNL d   1      58.727   0.151  29.335  0.00  0.00     0.096 A 
ATOM      6  C   UNL d   1      58.312   0.620  29.879  0.00  0.00     0.024 A 
ENDROOT
BRANCH   3   7
ATOM      7  C   UNL d   1      57.340  -0.917  31.084  0.00  0.00     0.005 C 
BRANCH   7   8
ATOM      8  C   UNL d   1      56.996  -0.455  31.676  0.00  0.00     0.042 C 
BRANCH   8   9
ATOM      9  C   UNL d   1      56.559  -0.801  32.280  0.00  0.00     0.196 C 
ATOM     10  O   UNL d   1      56.449  -1.620  32.293  0.00  0.00    -0.287 OA
BRANCH   9  11
ATOM     11  C   UNL d   1      56.229  -0.337  32.874  0.00  0.00     0.039 A 
ATOM     12  C   UNL d   1      55.417  -0.347  33.007  0.00  0.00     0.003 A 
ATOM     13  C   UNL d   1      55.097   0.128  33.611  0.00  0.00     0.000 A 
ATOM     14  C   UNL d   1      55.585   0.606  34.074  0.00  0.00     0.000 A 
ATOM     15  C   UNL d   1      56.404   0.614  33.937  0.00  0.00     0.000 A 
ATOM     16  C   UNL d   1      56.723   0.147  33.342  0.00  0.00     0.003 A 
ENDBRANCH   9  11
ENDBRANCH   8   9
ENDBRANCH   7   8
ENDBRANCH   3   7
BRANCH   1  17
ATOM     17  O   UNL d   1      58.164  -1.853  30.005  0.00  0.00    -0.328 OA
ATOM     18  C   UNL d   1      58.510  -2.319  29.419  0.00  0.00     0.181 C 
ENDBRANCH   1  17
BRANCH   5  19
ATOM     19  O   UNL d   1      59.189   0.508  28.752  0.00  0.00    -0.328 OA
ATOM     20  C   UNL d   1      59.984   0.678  28.900  0.00  0.00     0.181 C 
ENDBRANCH   5  19
TORSDOF 6
ENDMDL
MODEL 2
REMARK VINA RESULT:      -4.6      1.181      2.168
REMARK  6 active torsions:
REMARK  status: ('A' for Active; 'I' for Inactive)
REMARK    1  A    between atoms: C_2  and  C_1 
REMARK    2  A    between atoms: C_4  and  C_1 
REMARK    3  A    between atoms: C_6  and  C_2 
REMARK    4  A    between atoms: O_12  and  C_3 
REMARK    5  A    between atoms: C_8  and  C_4 
REMARK    6  A    between atoms: O_13  and  C_10 
ROOT
ATOM      1  C   UNL d   1      59.431  -0.573  29.383  0.00  0.00     0.096 A 
ATOM      2  C   UNL d   1      59.915  -1.111  28.987  0.00  0.00     0.048 A 
ATOM      3  C   UNL d   1      58.696  -0.816  29.670  0.00  0.00     0.022 A 
ATOM      4  C   UNL d   1      58.442  -1.595  29.563  0.00  0.00     0.004 A 
ATOM      5  C   UNL d   1      59.665  -1.891  28.878  0.00  0.00     0.096 A 
ATOM      6  C   UNL d   1      58.926  -2.134  29.166  0.00  0.00     0.024 A 
ENDROOT
BRANCH   3   7
ATOM      7  C   UNL d   1      58.213  -0.279  30.066  0.00  0.00     0.005 C 
BRANCH   7   8
ATOM      8  C   UNL d   1      57.740  -0.534  30.693  0.00  0.00     0.042 C 
BRANCH   8   9
ATOM      9  C   UNL d   1      57.202  -0.026  31.050  0.00  0.00     0.196 C 
ATOM     10  O   UNL d   1      56.992   0.681  30.677  0.00  0.00    -0.287 OA
BRANCH   9  11
ATOM     11  C   UNL d   1      56.869  -0.216  31.778  0.00  0.00     0.039 A 
ATOM     12  C   UNL d   1      56.538  -0.960  31.903  0.00  0.00     0.003 A 
ATOM     13  C   UNL d   1      56.205  -1.138  32.644  0.00  0.00     0.000 A 
ATOM     14  C   UNL d   1      56.204  -0.578  33.252  0.00  0.00     0.000 A 
ATOM     15  C   UNL d   1      56.539   0.171  33.122  0.00  0.00     0.000 A 
ATOM     16  C   UNL d   1      56.868   0.349  32.392  0.00  0.00     0.003 A 
ENDBRANCH   9  11
ENDBRANCH   8   9
ENDBRANCH   7   8
ENDBRANCH   3   7
BRANCH   1  17
ATOM     17  O   UNL d   1      59.681   0.207  29.493  0.00  0.00    -0.328 OA
ATOM     18  C   UNL d   1      60.298   0.511  29.037  0.00  0.00     0.181 C 
ENDBRANCH   1  17
BRANCH   5  19
ATOM     19  O   UNL d   1      60.149  -2.429  28.481  0.00  0.00    -0.328 OA
ATOM     20  C   UNL d   1      60.084  -3.238  28.637  0.00  0.00     0.181 C 
ENDBRANCH   5  19
TORSDOF 6
ENDMDL
MODEL 3
REMARK VINA RESULT:      -3.9      1.060      4.423
REMARK  6 active torsions:
REMARK  status: ('A' for Active; 'I' for Inactive)
REMARK    1  A    between atoms: C_2  and  C_1 
REMARK    2  A    between atoms: C_4  and  C_1 
REMARK    3  A    between atoms: C_6  and  C_2 
REMARK    4  A    between atoms: O_12  and  C_3 
REMARK    5  A    between atoms: C_8  and  C_4 
REMARK    6  A    between atoms: O_13  and  C_10 
ROOT
ATOM      1  C   UNL d   1      55.951  -0.920  32.773  0.00  0.00     0.096 A 
ATOM      2  C   UNL d   1      55.514  -0.567  33.377  0.00  0.00     0.048 A 
ATOM      3  C   UNL d   1      56.498  -0.475  32.346  0.00  0.00     0.022 A 
ATOM      4  C   UNL d   1      56.613   0.325  32.521  0.00  0.00     0.004 A 
ATOM      5  C   UNL d   1      55.626   0.233  33.555  0.00  0.00     0.096 A 
ATOM      6  C   UNL d   1      56.176   0.680  33.126  0.00  0.00     0.024 A 
ENDROOT
BRANCH   3   7
ATOM      7  C   UNL d   1      56.934  -0.829  31.743  0.00  0.00     0.005 C 
BRANCH   7   8
ATOM      8  C   UNL d   1      57.379  -0.361  31.228  0.00  0.00     0.042 C 
BRANCH   8   9
ATOM      9  C   UNL d   1      57.781  -0.697  30.594  0.00  0.00     0.196 C 
ATOM     10  O   UNL d   1      57.685  -1.500  30.423  0.00  0.00    -0.287 OA
BRANCH   9  11
ATOM     11  C   UNL d   1      58.280  -0.239  30.128  0.00  0.00     0.039 A 
ATOM     12  C   UNL d   1      58.965   0.088  30.447  0.00  0.00     0.003 A 
ATOM     13  C   UNL d   1      59.460   0.549  29.963  0.00  0.00     0.000 A 
ATOM     14  C   UNL d   1      59.270   0.681  29.170  0.00  0.00     0.000 A 
ATOM     15  C   UNL d   1      58.578   0.350  28.852  0.00  0.00     0.000 A 
ATOM     16  C   UNL d   1      58.088  -0.105  29.326  0.00  0.00     0.003 A 
ENDBRANCH   9  11
ENDBRANCH   8   9
ENDBRANCH   7   8
ENDBRANCH   3   7
BRANCH   1  17
ATOM     17  O   UNL d   1      55.839  -1.720  32.595  0.00  0.00    -0.328 OA
ATOM     18  C   UNL d   1      55.573  -2.240  33.178  0.00  0.00     0.181 C 
ENDBRANCH   1  17
BRANCH   5  19
ATOM     19  O   UNL d   1      55.190   0.588  34.159  0.00  0.00    -0.328 OA
ATOM     20  C   UNL d   1      54.373   0.682  34.080  0.00  0.00     0.181 C 
ENDBRANCH   5  19
TORSDOF 6
ENDMDL
