MODEL 1
REMARK VINA RESULT:      57.1      0.000      0.000
REMARK  1 active torsions:
REMARK  status: ('A' for Active; 'I' for Inactive)
REMARK       I    between atoms: N_2  and  C_1 
REMARK       I    between atoms: N_4  and  C_1 
REMARK    1  A    between atoms: C_5  and  N_3 
ROOT
ATOM      1  C   UNL d   1     -51.415  24.455  33.321  0.00  0.00     0.340 C 
ATOM      2  N   UNL d   1     -51.208  25.268  33.323  0.00  0.00    -0.254 N 
ATOM      3  N   UNL d   1     -50.803  26.858  33.325  0.00  0.00    -0.301 N 
ATOM      4  N   UNL d   1     -52.211  24.222  33.327  0.00  0.00    -0.253 N 
ATOM      5  O   UNL d   1     -50.812  23.879  33.314  0.00  0.00    -0.245 OA
ATOM      6  C   UNL d   1     -51.800  25.837  33.329  0.00  0.00     0.104 A 
ATOM      7  C   UNL d   1     -50.404  25.481  33.317  0.00  0.00     0.104 A 
ATOM      8  C   UNL d   1     -50.200  26.279  33.318  0.00  0.00     0.100 A 
ATOM      9  C   UNL d   1     -51.597  26.634  33.331  0.00  0.00     0.100 A 
ATOM     10  O   UNL d   1     -53.790  23.759  33.337  0.00  0.00    -0.300 OA
ATOM     11  C   UNL d   1     -52.403  23.418  33.325  0.00  0.00     0.111 A 
ATOM     12  C   UNL d   1     -52.802  24.795  33.333  0.00  0.00     0.111 A 
ATOM     13  C   UNL d   1     -53.598  24.563  33.339  0.00  0.00     0.142 A 
ATOM     14  C   UNL d   1     -53.194  23.189  33.330  0.00  0.00     0.142 A 
ENDROOT
BRANCH   3  15
ATOM     15  C   UNL d   1     -50.606  27.662  33.327  0.00  0.00     0.064 A 
ATOM     16  C   UNL d   1     -49.815  27.878  33.340  0.00  0.00     0.018 A 
ATOM     17  C   UNL d   1     -49.614  28.680  33.341  0.00  0.00     0.001 A 
ATOM     18  C   UNL d   1     -48.821  28.904  33.354  0.00  0.00     0.000 C 
ATOM     19  C   UNL d   1     -50.213  29.259  33.330  0.00  0.00     0.000 A 
ATOM     20  C   UNL d   1     -51.007  29.035  33.317  0.00  0.00     0.001 A 
ATOM     21  C   UNL d   1     -51.202  28.231  33.316  0.00  0.00     0.018 A 
ATOM     22  C   UNL d   1     -51.601  29.609  33.306  0.00  0.00     0.000 C 
ENDBRANCH   3  15
TORSDOF 1
ENDMDL
