MODEL 1
REMARK VINA RESULT:      38.1      0.000      0.000
REMARK  2 active torsions:
REMARK  status: ('A' for Active; 'I' for Inactive)
REMARK    1  A    between atoms: S_12  and  C_3 
REMARK    2  A    between atoms: C_14  and  S_12 
ROOT
ATOM      1  N   UNL d   1     -48.079  23.517  33.977  0.00  0.00    -0.195 NA
ATOM      2  C   UNL d   1     -48.631  24.030  33.646  0.00  0.00     0.086 C 
ATOM      3  C   UNL d   1     -49.176  24.549  33.306  0.00  0.00     0.170 C 
ENDROOT
BRANCH   3   4
ATOM      4  S   UNL d   1     -49.953  24.555  33.584  0.00  0.00    -0.060 SA
BRANCH   4   5
ATOM      5  C   UNL d   1     -50.410  25.241  33.515  0.00  0.00     0.177 A 
ATOM      6  N   UNL d   1     -51.230  25.184  33.444  0.00  0.00    -0.270 N 
ATOM      7  C   UNL d   1     -51.695  25.860  33.375  0.00  0.00     0.151 A 
ATOM      8  C   UNL d   1     -51.744  24.532  33.425  0.00  0.00     0.085 A 
ATOM      9  N   UNL d   1     -52.482  25.637  33.314  0.00  0.00    -0.227 NA
ATOM     10  C   UNL d   1     -51.324  26.600  33.377  0.00  0.00     0.052 A 
ATOM     11  C   UNL d   1     -52.515  24.814  33.344  0.00  0.00     0.099 A 
ATOM     12  C   UNL d   1     -53.143  24.285  33.310  0.00  0.00     0.021 A 
ATOM     13  C   UNL d   1     -52.998  23.475  33.356  0.00  0.00     0.002 A 
ATOM     14  C   UNL d   1     -52.227  23.193  33.437  0.00  0.00     0.002 A 
ATOM     15  C   UNL d   1     -51.602  23.724  33.471  0.00  0.00     0.019 A 
ATOM     16  C   UNL d   1     -51.782  27.281  33.309  0.00  0.00     0.004 A 
ATOM     17  C   UNL d   1     -50.504  26.658  33.448  0.00  0.00     0.086 A 
ATOM     18  C   UNL d   1     -51.419  28.026  33.310  0.00  0.00     0.000 A 
ATOM     19  C   UNL d   1     -50.599  28.084  33.381  0.00  0.00     0.002 A 
ATOM     20  C   UNL d   1     -50.142  27.397  33.450  0.00  0.00     0.019 A 
ATOM     21  N   UNL d   1     -50.047  25.976  33.517  0.00  0.00    -0.222 NA
ENDBRANCH   4   5
ENDBRANCH   3   4
TORSDOF 2
ENDMDL
