MODEL 1
REMARK VINA RESULT:      -8.1      0.000      0.000
REMARK  5 active torsions:
REMARK  status: ('A' for Active; 'I' for Inactive)
REMARK    1  A    between atoms: C_8  and  C_6 
REMARK    2  A    between atoms: C_9  and  C_8 
REMARK       I    between atoms: N_10  and  C_9 
REMARK    3  A    between atoms: C_14  and  N_10 
REMARK    4  A    between atoms: O_22  and  C_15 
REMARK    5  A    between atoms: C_27  and  O_22 
ROOT
ATOM      1  N   UNL d   1      52.203  34.008  53.883  0.00  0.00    -0.207 NA
ATOM      2  N   UNL d   1      53.440  32.887  54.037  0.00  0.00    -0.240 NA
ATOM      3  C   UNL d   1      52.265  33.230  53.660  0.00  0.00     0.297 A 
ATOM      4  C   UNL d   1      52.750  34.494  54.266  0.00  0.00     0.086 A 
ATOM      5  C   UNL d   1      53.807  33.527  54.395  0.00  0.00     0.083 A 
ATOM      6  C   UNL d   1      52.685  32.853  53.713  0.00  0.00     0.144 A 
ATOM      7  C   UNL d   1      53.518  34.294  54.521  0.00  0.00     0.035 A 
ATOM      8  O   UNL d   1      51.604  32.916  53.284  0.00  0.00    -0.264 OA
ATOM      9  C   UNL d   1      53.982  34.865  54.896  0.00  0.00     0.003 A 
ATOM     10  C   UNL d   1      52.458  35.257  54.390  0.00  0.00     0.019 A 
ATOM     11  C   UNL d   1      54.568  33.329  54.647  0.00  0.00     0.019 A 
ATOM     12  C   UNL d   1      55.044  33.904  55.029  0.00  0.00     0.002 A 
ATOM     13  C   UNL d   1      52.928  35.823  54.766  0.00  0.00     0.002 A 
ATOM     14  C   UNL d   1      54.750  34.665  55.151  0.00  0.00     0.000 A 
ATOM     15  C   UNL d   1      53.688  35.625  55.019  0.00  0.00     0.000 A 
ENDROOT
BRANCH   6  16
ATOM     16  C   UNL d   1      52.500  32.114  53.399  0.00  0.00     0.086 C 
BRANCH  16  17
ATOM     17  C   UNL d   1      52.644  31.966  52.592  0.00  0.00     0.281 C 
ATOM     18  N   UNL d   1      52.877  31.211  52.348  0.00  0.00    -0.208 NA
ATOM     19  O   UNL d   1      52.556  32.568  52.035  0.00  0.00    -0.265 OA
BRANCH  18  20
ATOM     20  C   UNL d   1      52.967  30.603  52.901  0.00  0.00     0.085 A 
ATOM     21  C   UNL d   1      52.308  30.191  53.173  0.00  0.00     0.021 A 
ATOM     22  C   UNL d   1      52.402  29.586  53.724  0.00  0.00     0.026 A 
ATOM     23  C   UNL d   1      53.153  29.394  54.003  0.00  0.00     0.100 A 
ATOM     24  C   UNL d   1      53.816  29.812  53.728  0.00  0.00     0.026 A 
ATOM     25  C   UNL d   1      53.717  30.415  53.177  0.00  0.00     0.021 A 
BRANCH  23  26
ATOM     26  O   UNL d   1      53.245  28.801  54.545  0.00  0.00    -0.305 OA
BRANCH  26  27
ATOM     27  C   UNL d   1      53.340  28.199  55.094  0.00  0.00     0.123 C 
ATOM     28  C   UNL d   1      53.350  28.374  55.884  0.00  0.00     0.029 C 
ENDBRANCH  26  27
ENDBRANCH  23  26
ENDBRANCH  18  20
ENDBRANCH  16  17
ENDBRANCH   6  16
TORSDOF 5
ENDMDL
MODEL 2
REMARK VINA RESULT:      -7.7      2.754      3.882
REMARK  5 active torsions:
REMARK  status: ('A' for Active; 'I' for Inactive)
REMARK    1  A    between atoms: C_8  and  C_6 
REMARK    2  A    between atoms: C_9  and  C_8 
REMARK       I    between atoms: N_10  and  C_9 
REMARK    3  A    between atoms: C_14  and  N_10 
REMARK    4  A    between atoms: O_22  and  C_15 
REMARK    5  A    between atoms: C_27  and  O_22 
ROOT
ATOM      1  N   UNL d   1      50.022  34.943  53.533  0.00  0.00    -0.207 NA
ATOM      2  N   UNL d   1      50.583  34.101  52.196  0.00  0.00    -0.240 NA
ATOM      3  C   UNL d   1      50.697  34.511  53.404  0.00  0.00     0.297 A 
ATOM      4  C   UNL d   1      49.390  35.100  53.025  0.00  0.00     0.086 A 
ATOM      5  C   UNL d   1      49.877  34.376  51.882  0.00  0.00     0.083 A 
ATOM      6  C   UNL d   1      50.885  34.227  52.950  0.00  0.00     0.144 A 
ATOM      7  C   UNL d   1      49.294  34.845  52.237  0.00  0.00     0.035 A 
ATOM      8  O   UNL d   1      51.216  34.468  54.041  0.00  0.00    -0.264 OA
ATOM      9  C   UNL d   1      48.615  35.065  51.820  0.00  0.00     0.003 A 
ATOM     10  C   UNL d   1      48.810  35.568  53.383  0.00  0.00     0.019 A 
ATOM     11  C   UNL d   1      49.782  34.123  51.102  0.00  0.00     0.019 A 
ATOM     12  C   UNL d   1      49.096  34.342  50.673  0.00  0.00     0.002 A 
ATOM     13  C   UNL d   1      48.134  35.784  52.959  0.00  0.00     0.002 A 
ATOM     14  C   UNL d   1      48.519  34.809  51.032  0.00  0.00     0.000 A 
ATOM     15  C   UNL d   1      48.038  35.531  52.179  0.00  0.00     0.000 A 
ENDROOT
BRANCH   6  16
ATOM     16  C   UNL d   1      51.614  33.863  53.074  0.00  0.00     0.086 C 
BRANCH  16  17
ATOM     17  C   UNL d   1      52.293  34.178  52.709  0.00  0.00     0.281 C 
ATOM     18  N   UNL d   1      52.984  33.725  52.666  0.00  0.00    -0.208 NA
ATOM     19  O   UNL d   1      52.281  34.940  52.391  0.00  0.00    -0.265 OA
BRANCH  18  20
ATOM     20  C   UNL d   1      53.002  32.962  52.983  0.00  0.00     0.085 A 
ATOM     21  C   UNL d   1      52.680  32.332  52.561  0.00  0.00     0.021 A 
ATOM     22  C   UNL d   1      52.700  31.573  52.879  0.00  0.00     0.026 A 
ATOM     23  C   UNL d   1      53.041  31.444  53.618  0.00  0.00     0.100 A 
ATOM     24  C   UNL d   1      53.365  32.081  54.042  0.00  0.00     0.026 A 
ATOM     25  C   UNL d   1      53.342  32.838  53.719  0.00  0.00     0.021 A 
BRANCH  23  26
ATOM     26  O   UNL d   1      53.061  30.699  53.932  0.00  0.00    -0.305 OA
BRANCH  26  27
ATOM     27  C   UNL d   1      53.081  29.943  54.250  0.00  0.00     0.123 C 
ATOM     28  C   UNL d   1      53.493  29.358  53.871  0.00  0.00     0.029 C 
ENDBRANCH  26  27
ENDBRANCH  23  26
ENDBRANCH  18  20
ENDBRANCH  16  17
ENDBRANCH   6  16
TORSDOF 5
ENDMDL
MODEL 3
REMARK VINA RESULT:      -7.6      2.476      4.645
REMARK  5 active torsions:
REMARK  status: ('A' for Active; 'I' for Inactive)
REMARK    1  A    between atoms: C_8  and  C_6 
REMARK    2  A    between atoms: C_9  and  C_8 
REMARK       I    between atoms: N_10  and  C_9 
REMARK    3  A    between atoms: C_14  and  N_10 
REMARK    4  A    between atoms: O_22  and  C_15 
REMARK    5  A    between atoms: C_27  and  O_22 
ROOT
ATOM      1  N   UNL d   1      53.122  34.672  54.067  0.00  0.00    -0.207 NA
ATOM      2  N   UNL d   1      52.288  33.399  53.362  0.00  0.00    -0.240 NA
ATOM      3  C   UNL d   1      52.455  34.646  53.603  0.00  0.00     0.297 A 
ATOM      4  C   UNL d   1      53.602  34.058  54.337  0.00  0.00     0.086 A 
ATOM      5  C   UNL d   1      52.883  32.970  53.729  0.00  0.00     0.083 A 
ATOM      6  C   UNL d   1      52.175  34.213  53.366  0.00  0.00     0.144 A 
ATOM      7  C   UNL d   1      53.514  33.241  54.193  0.00  0.00     0.035 A 
ATOM      8  O   UNL d   1      52.110  35.374  53.439  0.00  0.00    -0.264 OA
ATOM      9  C   UNL d   1      54.059  32.711  54.517  0.00  0.00     0.003 A 
ATOM     10  C   UNL d   1      54.231  34.331  54.799  0.00  0.00     0.019 A 
ATOM     11  C   UNL d   1      52.796  32.162  53.588  0.00  0.00     0.019 A 
ATOM     12  C   UNL d   1      53.346  31.619  53.912  0.00  0.00     0.002 A 
ATOM     13  C   UNL d   1      54.772  33.796  55.119  0.00  0.00     0.002 A 
ATOM     14  C   UNL d   1      53.971  31.895  54.373  0.00  0.00     0.000 A 
ATOM     15  C   UNL d   1      54.685  32.988  54.977  0.00  0.00     0.000 A 
ENDROOT
BRANCH   6  16
ATOM     16  C   UNL d   1      51.515  34.452  52.934  0.00  0.00     0.086 C 
BRANCH  16  17
ATOM     17  C   UNL d   1      51.368  34.107  52.190  0.00  0.00     0.281 C 
ATOM     18  N   UNL d   1      50.609  34.141  51.864  0.00  0.00    -0.208 NA
ATOM     19  O   UNL d   1      51.976  33.732  51.777  0.00  0.00    -0.265 OA
BRANCH  18  20
ATOM     20  C   UNL d   1      49.996  34.515  52.274  0.00  0.00     0.085 A 
ATOM     21  C   UNL d   1      49.723  34.202  52.985  0.00  0.00     0.021 A 
ATOM     22  C   UNL d   1      49.112  34.577  53.390  0.00  0.00     0.026 A 
ATOM     23  C   UNL d   1      48.775  35.264  53.085  0.00  0.00     0.100 A 
ATOM     24  C   UNL d   1      49.052  35.578  52.367  0.00  0.00     0.026 A 
ATOM     25  C   UNL d   1      49.663  35.199  51.966  0.00  0.00     0.021 A 
BRANCH  23  26
ATOM     26  O   UNL d   1      48.175  35.633  53.483  0.00  0.00    -0.305 OA
BRANCH  26  27
ATOM     27  C   UNL d   1      47.566  36.007  53.885  0.00  0.00     0.123 C 
ATOM     28  C   UNL d   1      47.711  36.699  54.280  0.00  0.00     0.029 C 
ENDBRANCH  26  27
ENDBRANCH  23  26
ENDBRANCH  18  20
ENDBRANCH  16  17
ENDBRANCH   6  16
TORSDOF 5
ENDMDL
MODEL 4
REMARK VINA RESULT:      -7.4      1.638      4.795
REMARK  5 active torsions:
REMARK  status: ('A' for Active; 'I' for Inactive)
REMARK    1  A    between atoms: C_8  and  C_6 
REMARK    2  A    between atoms: C_9  and  C_8 
REMARK       I    between atoms: N_10  and  C_9 
REMARK    3  A    between atoms: C_14  and  N_10 
REMARK    4  A    between atoms: O_22  and  C_15 
REMARK    5  A    between atoms: C_27  and  O_22 
ROOT
ATOM      1  N   UNL d   1      53.573  31.223  54.978  0.00  0.00    -0.207 NA
ATOM      2  N   UNL d   1      53.048  31.543  53.418  0.00  0.00    -0.240 NA
ATOM      3  C   UNL d   1      53.437  31.918  54.579  0.00  0.00     0.297 A 
ATOM      4  C   UNL d   1      53.488  30.442  54.724  0.00  0.00     0.086 A 
ATOM      5  C   UNL d   1      53.038  30.723  53.386  0.00  0.00     0.083 A 
ATOM      6  C   UNL d   1      53.260  32.023  54.050  0.00  0.00     0.144 A 
ATOM      7  C   UNL d   1      53.237  30.174  53.975  0.00  0.00     0.035 A 
ATOM      8  O   UNL d   1      53.580  32.605  55.007  0.00  0.00    -0.264 OA
ATOM      9  C   UNL d   1      53.190  29.362  53.830  0.00  0.00     0.003 A 
ATOM     10  C   UNL d   1      53.687  29.898  55.313  0.00  0.00     0.019 A 
ATOM     11  C   UNL d   1      52.790  30.458  52.645  0.00  0.00     0.019 A 
ATOM     12  C   UNL d   1      52.739  29.635  52.491  0.00  0.00     0.002 A 
ATOM     13  C   UNL d   1      53.637  29.087  55.160  0.00  0.00     0.002 A 
ATOM     14  C   UNL d   1      52.938  29.095  53.081  0.00  0.00     0.000 A 
ATOM     15  C   UNL d   1      53.389  28.822  54.420  0.00  0.00     0.000 A 
ENDROOT
BRANCH   6  16
ATOM     16  C   UNL d   1      53.202  32.827  53.882  0.00  0.00     0.086 C 
BRANCH  16  17
ATOM     17  C   UNL d   1      53.745  33.173  53.354  0.00  0.00     0.281 C 
ATOM     18  N   UNL d   1      53.501  33.784  52.853  0.00  0.00    -0.208 NA
ATOM     19  O   UNL d   1      54.528  32.910  53.329  0.00  0.00    -0.265 OA
BRANCH  18  20
ATOM     20  C   UNL d   1      52.719  34.051  52.874  0.00  0.00     0.085 A 
ATOM     21  C   UNL d   1      52.475  34.570  53.466  0.00  0.00     0.021 A 
ATOM     22  C   UNL d   1      51.695  34.834  53.483  0.00  0.00     0.026 A 
ATOM     23  C   UNL d   1      51.160  34.581  52.910  0.00  0.00     0.100 A 
ATOM     24  C   UNL d   1      51.409  34.058  52.314  0.00  0.00     0.026 A 
ATOM     25  C   UNL d   1      52.189  33.797  52.301  0.00  0.00     0.021 A 
BRANCH  23  26
ATOM     26  O   UNL d   1      50.395  34.840  52.927  0.00  0.00    -0.305 OA
BRANCH  26  27
ATOM     27  C   UNL d   1      49.618  35.102  52.945  0.00  0.00     0.123 C 
ATOM     28  C   UNL d   1      49.093  34.841  52.386  0.00  0.00     0.029 C 
ENDBRANCH  26  27
ENDBRANCH  23  26
ENDBRANCH  18  20
ENDBRANCH  16  17
ENDBRANCH   6  16
TORSDOF 5
ENDMDL
MODEL 5
REMARK VINA RESULT:      -6.9      2.636      4.793
REMARK  5 active torsions:
REMARK  status: ('A' for Active; 'I' for Inactive)
REMARK    1  A    between atoms: C_8  and  C_6 
REMARK    2  A    between atoms: C_9  and  C_8 
REMARK       I    between atoms: N_10  and  C_9 
REMARK    3  A    between atoms: C_14  and  N_10 
REMARK    4  A    between atoms: O_22  and  C_15 
REMARK    5  A    between atoms: C_27  and  O_22 
ROOT
ATOM      1  N   UNL d   1      52.166  32.625  53.634  0.00  0.00    -0.207 NA
ATOM      2  N   UNL d   1      51.999  34.292  53.579  0.00  0.00    -0.240 NA
ATOM      3  C   UNL d   1      51.598  33.107  53.310  0.00  0.00     0.297 A 
ATOM      4  C   UNL d   1      52.853  32.822  54.046  0.00  0.00     0.086 A 
ATOM      5  C   UNL d   1      52.704  34.252  53.997  0.00  0.00     0.083 A 
ATOM      6  C   UNL d   1      51.544  33.671  53.293  0.00  0.00     0.144 A 
ATOM      7  C   UNL d   1      53.134  33.584  54.234  0.00  0.00     0.035 A 
ATOM      8  O   UNL d   1      50.979  32.718  52.932  0.00  0.00    -0.264 OA
ATOM      9  C   UNL d   1      53.841  33.663  54.655  0.00  0.00     0.003 A 
ATOM     10  C   UNL d   1      53.279  32.154  54.281  0.00  0.00     0.019 A 
ATOM     11  C   UNL d   1      52.983  35.006  54.182  0.00  0.00     0.019 A 
ATOM     12  C   UNL d   1      53.699  35.094  54.609  0.00  0.00     0.002 A 
ATOM     13  C   UNL d   1      53.985  32.241  54.702  0.00  0.00     0.002 A 
ATOM     14  C   UNL d   1      54.122  34.426  54.842  0.00  0.00     0.000 A 
ATOM     15  C   UNL d   1      54.264  32.995  54.888  0.00  0.00     0.000 A 
ENDROOT
BRANCH   6  16
ATOM     16  C   UNL d   1      50.866  33.921  52.897  0.00  0.00     0.086 C 
BRANCH  16  17
ATOM     17  C   UNL d   1      50.923  34.161  52.102  0.00  0.00     0.281 C 
ATOM     18  N   UNL d   1      50.335  34.643  51.775  0.00  0.00    -0.208 NA
ATOM     19  O   UNL d   1      51.562  33.922  51.639  0.00  0.00    -0.265 OA
BRANCH  18  20
ATOM     20  C   UNL d   1      49.692  34.886  52.234  0.00  0.00     0.085 A 
ATOM     21  C   UNL d   1      49.812  35.378  52.884  0.00  0.00     0.021 A 
ATOM     22  C   UNL d   1      49.169  35.618  53.340  0.00  0.00     0.026 A 
ATOM     23  C   UNL d   1      48.408  35.367  53.146  0.00  0.00     0.100 A 
ATOM     24  C   UNL d   1      48.291  34.871  52.489  0.00  0.00     0.026 A 
ATOM     25  C   UNL d   1      48.937  34.634  52.038  0.00  0.00     0.021 A 
BRANCH  23  26
ATOM     26  O   UNL d   1      47.777  35.603  53.593  0.00  0.00    -0.305 OA
BRANCH  26  27
ATOM     27  C   UNL d   1      47.137  35.840  54.046  0.00  0.00     0.123 C 
ATOM     28  C   UNL d   1      47.175  36.532  54.466  0.00  0.00     0.029 C 
ENDBRANCH  26  27
ENDBRANCH  23  26
ENDBRANCH  18  20
ENDBRANCH  16  17
ENDBRANCH   6  16
TORSDOF 5
ENDMDL
MODEL 6
REMARK VINA RESULT:      -5.9      2.438      4.914
REMARK  5 active torsions:
REMARK  status: ('A' for Active; 'I' for Inactive)
REMARK    1  A    between atoms: C_8  and  C_6 
REMARK    2  A    between atoms: C_9  and  C_8 
REMARK       I    between atoms: N_10  and  C_9 
REMARK    3  A    between atoms: C_14  and  N_10 
REMARK    4  A    between atoms: O_22  and  C_15 
REMARK    5  A    between atoms: C_27  and  O_22 
ROOT
ATOM      1  N   UNL d   1      51.816  31.422  53.298  0.00  0.00    -0.207 NA
ATOM      2  N   UNL d   1      52.568  32.920  53.294  0.00  0.00    -0.240 NA
ATOM      3  C   UNL d   1      51.523  32.180  53.291  0.00  0.00     0.297 A 
ATOM      4  C   UNL d   1      52.597  31.157  53.304  0.00  0.00     0.086 A 
ATOM      5  C   UNL d   1      53.237  32.446  53.301  0.00  0.00     0.083 A 
ATOM      6  C   UNL d   1      51.780  32.685  53.290  0.00  0.00     0.144 A 
ATOM      7  C   UNL d   1      53.292  31.619  53.307  0.00  0.00     0.035 A 
ATOM      8  O   UNL d   1      50.703  32.241  53.285  0.00  0.00    -0.264 OA
ATOM      9  C   UNL d   1      54.028  31.243  53.314  0.00  0.00     0.003 A 
ATOM     10  C   UNL d   1      52.648  30.332  53.309  0.00  0.00     0.019 A 
ATOM     11  C   UNL d   1      53.924  32.902  53.304  0.00  0.00     0.019 A 
ATOM     12  C   UNL d   1      54.675  32.528  53.311  0.00  0.00     0.002 A 
ATOM     13  C   UNL d   1      53.388  29.964  53.317  0.00  0.00     0.002 A 
ATOM     14  C   UNL d   1      54.722  31.705  53.316  0.00  0.00     0.000 A 
ATOM     15  C   UNL d   1      54.075  30.420  53.319  0.00  0.00     0.000 A 
ENDROOT
BRANCH   6  16
ATOM     16  C   UNL d   1      51.253  33.318  53.283  0.00  0.00     0.086 C 
BRANCH  16  17
ATOM     17  C   UNL d   1      51.476  34.039  53.634  0.00  0.00     0.281 C 
ATOM     18  N   UNL d   1      51.085  34.737  53.424  0.00  0.00    -0.208 NA
ATOM     19  O   UNL d   1      52.085  34.061  54.190  0.00  0.00    -0.265 OA
BRANCH  18  20
ATOM     20  C   UNL d   1      50.474  34.721  52.867  0.00  0.00     0.085 A 
ATOM     21  C   UNL d   1      50.643  34.584  52.073  0.00  0.00     0.021 A 
ATOM     22  C   UNL d   1      50.032  34.569  51.521  0.00  0.00     0.026 A 
ATOM     23  C   UNL d   1      49.254  34.690  51.762  0.00  0.00     0.100 A 
ATOM     24  C   UNL d   1      49.086  34.827  52.565  0.00  0.00     0.026 A 
ATOM     25  C   UNL d   1      49.700  34.842  53.112  0.00  0.00     0.021 A 
BRANCH  23  26
ATOM     26  O   UNL d   1      48.653  34.675  51.221  0.00  0.00    -0.305 OA
BRANCH  26  27
ATOM     27  C   UNL d   1      48.045  34.661  50.672  0.00  0.00     0.123 C 
ATOM     28  C   UNL d   1      47.463  35.223  50.702  0.00  0.00     0.029 C 
ENDBRANCH  26  27
ENDBRANCH  23  26
ENDBRANCH  18  20
ENDBRANCH  16  17
ENDBRANCH   6  16
TORSDOF 5
ENDMDL
MODEL 7
REMARK VINA RESULT:      -5.8      3.860      5.361
REMARK  5 active torsions:
REMARK  status: ('A' for Active; 'I' for Inactive)
REMARK    1  A    between atoms: C_8  and  C_6 
REMARK    2  A    between atoms: C_9  and  C_8 
REMARK       I    between atoms: N_10  and  C_9 
REMARK    3  A    between atoms: C_14  and  N_10 
REMARK    4  A    between atoms: O_22  and  C_15 
REMARK    5  A    between atoms: C_27  and  O_22 
ROOT
ATOM      1  N   UNL d   1      48.787  35.794  53.473  0.00  0.00    -0.207 NA
ATOM      2  N   UNL d   1      48.933  34.897  52.064  0.00  0.00    -0.240 NA
ATOM      3  C   UNL d   1      49.385  35.328  53.181  0.00  0.00     0.297 A 
ATOM      4  C   UNL d   1      48.048  35.969  53.149  0.00  0.00     0.086 A 
ATOM      5  C   UNL d   1      48.179  35.197  51.942  0.00  0.00     0.083 A 
ATOM      6  C   UNL d   1      49.432  35.025  52.704  0.00  0.00     0.144 A 
ATOM      7  C   UNL d   1      47.732  35.701  52.425  0.00  0.00     0.035 A 
ATOM      8  O   UNL d   1      50.055  35.275  53.656  0.00  0.00    -0.264 OA
ATOM      9  C   UNL d   1      46.975  35.942  52.199  0.00  0.00     0.003 A 
ATOM     10  C   UNL d   1      47.605  36.471  53.633  0.00  0.00     0.019 A 
ATOM     11  C   UNL d   1      47.867  34.932  51.226  0.00  0.00     0.019 A 
ATOM     12  C   UNL d   1      47.099  35.173  50.990  0.00  0.00     0.002 A 
ATOM     13  C   UNL d   1      46.848  36.709  53.400  0.00  0.00     0.002 A 
ATOM     14  C   UNL d   1      46.660  35.674  51.475  0.00  0.00     0.000 A 
ATOM     15  C   UNL d   1      46.536  36.443  52.684  0.00  0.00     0.000 A 
ENDROOT
BRANCH   6  16
ATOM     16  C   UNL d   1      50.152  34.631  52.639  0.00  0.00     0.086 C 
BRANCH  16  17
ATOM     17  C   UNL d   1      50.418  34.388  51.887  0.00  0.00     0.281 C 
ATOM     18  N   UNL d   1      51.161  34.035  51.808  0.00  0.00    -0.208 NA
ATOM     19  O   UNL d   1      49.943  34.499  51.221  0.00  0.00    -0.265 OA
BRANCH  18  20
ATOM     20  C   UNL d   1      51.641  33.922  52.472  0.00  0.00     0.085 A 
ATOM     21  C   UNL d   1      51.561  33.241  52.928  0.00  0.00     0.021 A 
ATOM     22  C   UNL d   1      52.041  33.131  53.588  0.00  0.00     0.026 A 
ATOM     23  C   UNL d   1      52.600  33.702  53.792  0.00  0.00     0.100 A 
ATOM     24  C   UNL d   1      52.679  34.388  53.330  0.00  0.00     0.026 A 
ATOM     25  C   UNL d   1      52.196  34.492  52.671  0.00  0.00     0.021 A 
BRANCH  23  26
ATOM     26  O   UNL d   1      53.071  33.594  54.440  0.00  0.00    -0.305 OA
BRANCH  26  27
ATOM     27  C   UNL d   1      53.548  33.486  55.098  0.00  0.00     0.123 C 
ATOM     28  C   UNL d   1      54.292  33.179  55.010  0.00  0.00     0.029 C 
ENDBRANCH  26  27
ENDBRANCH  23  26
ENDBRANCH  18  20
ENDBRANCH  16  17
ENDBRANCH   6  16
TORSDOF 5
ENDMDL
