MODEL 1
REMARK VINA RESULT:      -6.5      0.000      0.000
REMARK  6 active torsions:
REMARK  status: ('A' for Active; 'I' for Inactive)
REMARK    1  A    between atoms: C_10  and  C_4 
REMARK    2  A    between atoms: N_12  and  C_5 
REMARK    3  A    between atoms: N_11  and  C_15 
REMARK    4  A    between atoms: C_20  and  N_12 
REMARK    5  A    between atoms: C_15  and  C_16 
REMARK    6  A    between atoms: C_16  and  C_20 
ROOT
ATOM      1  N   UNL d   1     -48.127  13.057  23.250  0.00  0.00    -0.195 N 
ATOM      2  C   UNL d   1     -48.927  13.183  23.100  0.00  0.00     0.167 A 
ATOM      3  N   UNL d   1     -47.716  13.740  23.057  0.00  0.00    -0.163 NA
ATOM      4  C   UNL d   1     -49.014  13.945  22.812  0.00  0.00     0.055 A 
ATOM      5  C   UNL d   1     -47.864  12.331  23.548  0.00  0.00     0.167 A 
ATOM      6  C   UNL d   1     -48.273  14.292  22.783  0.00  0.00     0.104 A 
ATOM      7  N   UNL d   1     -49.473  12.585  23.245  0.00  0.00    -0.227 NA
ATOM      8  C   UNL d   1     -48.420  11.727  23.694  0.00  0.00     0.058 A 
ATOM      9  C   UNL d   1     -49.220  11.853  23.543  0.00  0.00     0.086 A 
ATOM     10  C   UNL d   1     -48.104  15.058  22.528  0.00  0.00     0.023 C 
ATOM     11  C   UNL d   1     -49.771  11.252  23.689  0.00  0.00     0.021 C 
ENDROOT
BRANCH   5  12
ATOM     12  N   UNL d   1     -47.071  12.206  23.697  0.00  0.00    -0.225 NA
BRANCH  12  13
ATOM     13  C   UNL d   1     -46.722  11.487  23.500  0.00  0.00     0.102 C 
BRANCH  13  14
ATOM     14  C   UNL d   1     -45.924  11.346  23.687  0.00  0.00     0.040 C 
BRANCH  14  15
ATOM     15  C   UNL d   1     -45.531  10.702  23.358  0.00  0.00     0.082 C 
BRANCH  15  16
ATOM     16  N   UNL d   1     -44.707  10.693  23.325  0.00  0.00    -0.299 N 
ATOM     17  C   UNL d   1     -44.286  10.075  23.685  0.00  0.00     0.107 A 
ATOM     18  C   UNL d   1     -43.459  10.066  23.652  0.00  0.00     0.142 A 
ATOM     19  O   UNL d   1     -43.055  10.676  23.259  0.00  0.00    -0.300 OA
ATOM     20  C   UNL d   1     -43.476  11.287  22.904  0.00  0.00     0.142 A 
ATOM     21  C   UNL d   1     -44.303  11.296  22.937  0.00  0.00     0.107 A 
ENDBRANCH  15  16
ENDBRANCH  14  15
ENDBRANCH  13  14
ENDBRANCH  12  13
ENDBRANCH   5  12
BRANCH   4  22
ATOM     22  C   UNL d   1     -49.674  14.374  22.570  0.00  0.00     0.004 A 
ATOM     23  C   UNL d   1     -49.954  14.305  21.798  0.00  0.00     0.000 A 
ATOM     24  C   UNL d   1     -50.619  14.739  21.558  0.00  0.00     0.000 A 
ATOM     25  C   UNL d   1     -50.999  15.239  22.093  0.00  0.00     0.000 A 
ATOM     26  C   UNL d   1     -50.719  15.307  22.866  0.00  0.00     0.000 A 
ATOM     27  C   UNL d   1     -50.059  14.878  23.108  0.00  0.00     0.000 A 
ENDBRANCH   4  22
TORSDOF 6
ENDMDL
MODEL 2
REMARK VINA RESULT:      -5.3      1.669      2.016
REMARK  6 active torsions:
REMARK  status: ('A' for Active; 'I' for Inactive)
REMARK    1  A    between atoms: C_10  and  C_4 
REMARK    2  A    between atoms: N_12  and  C_5 
REMARK    3  A    between atoms: N_11  and  C_15 
REMARK    4  A    between atoms: C_20  and  N_12 
REMARK    5  A    between atoms: C_15  and  C_16 
REMARK    6  A    between atoms: C_16  and  C_20 
ROOT
ATOM      1  N   UNL d   1     -47.377  13.732  22.871  0.00  0.00    -0.195 N 
ATOM      2  C   UNL d   1     -48.171  13.540  22.985  0.00  0.00     0.167 A 
ATOM      3  N   UNL d   1     -47.333  14.510  22.614  0.00  0.00    -0.163 NA
ATOM      4  C   UNL d   1     -48.620  14.199  22.798  0.00  0.00     0.055 A 
ATOM      5  C   UNL d   1     -46.784  13.174  23.015  0.00  0.00     0.167 A 
ATOM      6  C   UNL d   1     -48.110  14.799  22.569  0.00  0.00     0.104 A 
ATOM      7  N   UNL d   1     -48.380  12.788  23.244  0.00  0.00    -0.227 NA
ATOM      8  C   UNL d   1     -47.000  12.412  23.278  0.00  0.00     0.058 A 
ATOM      9  C   UNL d   1     -47.793  12.220  23.392  0.00  0.00     0.086 A 
ATOM     10  C   UNL d   1     -48.328  15.559  22.335  0.00  0.00     0.023 C 
ATOM     11  C   UNL d   1     -48.005  11.464  23.653  0.00  0.00     0.021 C 
ENDROOT
BRANCH   5  12
ATOM     12  N   UNL d   1     -45.999  13.363  22.903  0.00  0.00    -0.225 NA
BRANCH  12  13
ATOM     13  C   UNL d   1     -45.537  12.922  22.384  0.00  0.00     0.102 C 
BRANCH  13  14
ATOM     14  C   UNL d   1     -44.763  13.166  22.202  0.00  0.00     0.040 C 
BRANCH  14  15
ATOM     15  C   UNL d   1     -44.356  12.817  21.577  0.00  0.00     0.082 C 
BRANCH  15  16
ATOM     16  N   UNL d   1     -43.561  12.994  21.452  0.00  0.00    -0.299 N 
ATOM     17  C   UNL d   1     -42.981  12.421  21.607  0.00  0.00     0.107 A 
ATOM     18  C   UNL d   1     -42.182  12.598  21.481  0.00  0.00     0.142 A 
ATOM     19  O   UNL d   1     -41.965  13.349  21.200  0.00  0.00    -0.300 OA
ATOM     20  C   UNL d   1     -42.543  13.914  21.047  0.00  0.00     0.142 A 
ATOM     21  C   UNL d   1     -43.342  13.737  21.173  0.00  0.00     0.107 A 
ENDBRANCH  15  16
ENDBRANCH  14  15
ENDBRANCH  13  14
ENDBRANCH  12  13
ENDBRANCH   5  12
BRANCH   4  22
ATOM     22  C   UNL d   1     -49.431  14.336  22.806  0.00  0.00     0.004 A 
ATOM     23  C   UNL d   1     -49.889  14.163  22.142  0.00  0.00     0.000 A 
ATOM     24  C   UNL d   1     -50.707  14.303  22.154  0.00  0.00     0.000 A 
ATOM     25  C   UNL d   1     -51.060  14.615  22.830  0.00  0.00     0.000 A 
ATOM     26  C   UNL d   1     -50.603  14.789  23.494  0.00  0.00     0.000 A 
ATOM     27  C   UNL d   1     -49.792  14.652  23.486  0.00  0.00     0.000 A 
ENDBRANCH   4  22
TORSDOF 6
ENDMDL
MODEL 3
REMARK VINA RESULT:      -4.9      1.999      2.791
REMARK  6 active torsions:
REMARK  status: ('A' for Active; 'I' for Inactive)
REMARK    1  A    between atoms: C_10  and  C_4 
REMARK    2  A    between atoms: N_12  and  C_5 
REMARK    3  A    between atoms: N_11  and  C_15 
REMARK    4  A    between atoms: C_20  and  N_12 
REMARK    5  A    between atoms: C_15  and  C_16 
REMARK    6  A    between atoms: C_16  and  C_20 
ROOT
ATOM      1  N   UNL d   1     -47.317  12.856  22.827  0.00  0.00    -0.195 N 
ATOM      2  C   UNL d   1     -48.090  13.141  22.817  0.00  0.00     0.167 A 
ATOM      3  N   UNL d   1     -47.342  12.041  22.921  0.00  0.00    -0.163 NA
ATOM      4  C   UNL d   1     -48.597  12.503  22.906  0.00  0.00     0.055 A 
ATOM      5  C   UNL d   1     -46.676  13.373  22.749  0.00  0.00     0.167 A 
ATOM      6  C   UNL d   1     -48.142  11.824  22.970  0.00  0.00     0.104 A 
ATOM      7  N   UNL d   1     -48.230  13.947  22.729  0.00  0.00    -0.227 NA
ATOM      8  C   UNL d   1     -46.822  14.189  22.659  0.00  0.00     0.058 A 
ATOM      9  C   UNL d   1     -47.595  14.474  22.650  0.00  0.00     0.086 A 
ATOM     10  C   UNL d   1     -48.427  11.056  23.066  0.00  0.00     0.023 C 
ATOM     11  C   UNL d   1     -47.739  15.285  22.561  0.00  0.00     0.021 C 
ENDROOT
BRANCH   5  12
ATOM     12  N   UNL d   1     -45.910  13.091  22.758  0.00  0.00    -0.225 NA
BRANCH  12  13
ATOM     13  C   UNL d   1     -45.386  13.299  22.159  0.00  0.00     0.102 C 
BRANCH  13  14
ATOM     14  C   UNL d   1     -44.609  13.002  22.163  0.00  0.00     0.040 C 
BRANCH  14  15
ATOM     15  C   UNL d   1     -44.204  12.894  21.454  0.00  0.00     0.082 C 
BRANCH  15  16
ATOM     16  N   UNL d   1     -43.386  12.986  21.427  0.00  0.00    -0.299 N 
ATOM     17  C   UNL d   1     -42.894  12.416  21.776  0.00  0.00     0.107 A 
ATOM     18  C   UNL d   1     -42.072  12.508  21.749  0.00  0.00     0.142 A 
ATOM     19  O   UNL d   1     -41.743  13.171  21.372  0.00  0.00    -0.300 OA
ATOM     20  C   UNL d   1     -42.234  13.734  21.026  0.00  0.00     0.142 A 
ATOM     21  C   UNL d   1     -43.056  13.642  21.054  0.00  0.00     0.107 A 
ENDBRANCH  15  16
ENDBRANCH  14  15
ENDBRANCH  13  14
ENDBRANCH  12  13
ENDBRANCH   5  12
BRANCH   4  22
ATOM     22  C   UNL d   1     -49.417  12.448  22.936  0.00  0.00     0.004 A 
ATOM     23  C   UNL d   1     -49.864  12.509  22.246  0.00  0.00     0.000 A 
ATOM     24  C   UNL d   1     -50.691  12.453  22.281  0.00  0.00     0.000 A 
ATOM     25  C   UNL d   1     -51.064  12.336  23.008  0.00  0.00     0.000 A 
ATOM     26  C   UNL d   1     -50.617  12.276  23.698  0.00  0.00     0.000 A 
ATOM     27  C   UNL d   1     -49.797  12.331  23.667  0.00  0.00     0.000 A 
ENDBRANCH   4  22
TORSDOF 6
ENDMDL
MODEL 4
REMARK VINA RESULT:      -4.8      8.659     10.478
REMARK  6 active torsions:
REMARK  status: ('A' for Active; 'I' for Inactive)
REMARK    1  A    between atoms: C_10  and  C_4 
REMARK    2  A    between atoms: N_12  and  C_5 
REMARK    3  A    between atoms: N_11  and  C_15 
REMARK    4  A    between atoms: C_20  and  N_12 
REMARK    5  A    between atoms: C_15  and  C_16 
REMARK    6  A    between atoms: C_16  and  C_20 
ROOT
ATOM      1  N   UNL d   1     -39.787  14.464  17.969  0.00  0.00    -0.195 N 
ATOM      2  C   UNL d   1     -39.714  14.711  17.186  0.00  0.00     0.167 A 
ATOM      3  N   UNL d   1     -39.139  13.997  18.155  0.00  0.00    -0.163 NA
ATOM      4  C   UNL d   1     -39.019  14.397  16.885  0.00  0.00     0.055 A 
ATOM      5  C   UNL d   1     -40.439  14.694  18.423  0.00  0.00     0.167 A 
ATOM      6  C   UNL d   1     -38.662  13.958  17.477  0.00  0.00     0.104 A 
ATOM      7  N   UNL d   1     -40.291  15.190  16.849  0.00  0.00    -0.227 NA
ATOM      8  C   UNL d   1     -41.023  15.180  18.079  0.00  0.00     0.058 A 
ATOM      9  C   UNL d   1     -40.949  15.427  17.296  0.00  0.00     0.086 A 
ATOM     10  C   UNL d   1     -37.950  13.545  17.414  0.00  0.00     0.023 C 
ATOM     11  C   UNL d   1     -41.530  15.910  16.955  0.00  0.00     0.021 C 
ENDROOT
BRANCH   5  12
ATOM     12  N   UNL d   1     -40.512  14.450  19.199  0.00  0.00    -0.225 NA
BRANCH  12  13
ATOM     13  C   UNL d   1     -40.474  15.000  19.810  0.00  0.00     0.102 C 
BRANCH  13  14
ATOM     14  C   UNL d   1     -40.166  14.780  20.551  0.00  0.00     0.040 C 
BRANCH  14  15
ATOM     15  C   UNL d   1     -40.189  15.309  21.181  0.00  0.00     0.082 C 
BRANCH  15  16
ATOM     16  N   UNL d   1     -39.615  15.274  21.771  0.00  0.00    -0.299 N 
ATOM     17  C   UNL d   1     -39.504  15.922  22.278  0.00  0.00     0.107 A 
ATOM     18  C   UNL d   1     -38.927  15.887  22.871  0.00  0.00     0.142 A 
ATOM     19  O   UNL d   1     -38.463  15.205  22.956  0.00  0.00    -0.300 OA
ATOM     20  C   UNL d   1     -38.576  14.564  22.451  0.00  0.00     0.142 A 
ATOM     21  C   UNL d   1     -39.152  14.599  21.858  0.00  0.00     0.107 A 
ENDBRANCH  15  16
ENDBRANCH  14  15
ENDBRANCH  13  14
ENDBRANCH  12  13
ENDBRANCH   5  12
BRANCH   4  22
ATOM     22  C   UNL d   1     -38.661  14.452  16.147  0.00  0.00     0.004 A 
ATOM     23  C   UNL d   1     -38.597  13.787  15.664  0.00  0.00     0.000 A 
ATOM     24  C   UNL d   1     -38.235  13.847  14.920  0.00  0.00     0.000 A 
ATOM     25  C   UNL d   1     -37.940  14.573  14.664  0.00  0.00     0.000 A 
ATOM     26  C   UNL d   1     -38.003  15.239  15.147  0.00  0.00     0.000 A 
ATOM     27  C   UNL d   1     -38.362  15.184  15.886  0.00  0.00     0.000 A 
ENDBRANCH   4  22
TORSDOF 6
ENDMDL
MODEL 5
REMARK VINA RESULT:      -4.0      2.406      3.483
REMARK  6 active torsions:
REMARK  status: ('A' for Active; 'I' for Inactive)
REMARK    1  A    between atoms: C_10  and  C_4 
REMARK    2  A    between atoms: N_12  and  C_5 
REMARK    3  A    between atoms: N_11  and  C_15 
REMARK    4  A    between atoms: C_20  and  N_12 
REMARK    5  A    between atoms: C_15  and  C_16 
REMARK    6  A    between atoms: C_16  and  C_20 
ROOT
ATOM      1  N   UNL d   1     -46.122  13.009  22.470  0.00  0.00    -0.195 N 
ATOM      2  C   UNL d   1     -46.703  12.513  22.779  0.00  0.00     0.167 A 
ATOM      3  N   UNL d   1     -46.490  13.661  22.135  0.00  0.00    -0.163 NA
ATOM      4  C   UNL d   1     -47.433  12.857  22.637  0.00  0.00     0.055 A 
ATOM      5  C   UNL d   1     -45.322  12.808  22.530  0.00  0.00     0.167 A 
ATOM      6  C   UNL d   1     -47.307  13.563  22.241  0.00  0.00     0.104 A 
ATOM      7  N   UNL d   1     -46.490  11.811  23.152  0.00  0.00    -0.227 NA
ATOM      8  C   UNL d   1     -45.110  12.095  22.908  0.00  0.00     0.058 A 
ATOM      9  C   UNL d   1     -45.691  11.599  23.217  0.00  0.00     0.086 A 
ATOM     10  C   UNL d   1     -47.890  14.090  21.989  0.00  0.00     0.023 C 
ATOM     11  C   UNL d   1     -45.478  10.892  23.592  0.00  0.00     0.021 C 
ENDROOT
BRANCH   5  12
ATOM     12  N   UNL d   1     -44.746  13.299  22.223  0.00  0.00    -0.225 NA
BRANCH  12  13
ATOM     13  C   UNL d   1     -44.077  12.978  21.868  0.00  0.00     0.102 C 
BRANCH  13  14
ATOM     14  C   UNL d   1     -43.426  13.465  21.687  0.00  0.00     0.040 C 
BRANCH  14  15
ATOM     15  C   UNL d   1     -42.818  13.182  21.211  0.00  0.00     0.082 C 
BRANCH  15  16
ATOM     16  N   UNL d   1     -42.121  13.614  21.130  0.00  0.00    -0.299 N 
ATOM     17  C   UNL d   1     -41.412  13.317  21.442  0.00  0.00     0.107 A 
ATOM     18  C   UNL d   1     -40.712  13.751  21.361  0.00  0.00     0.142 A 
ATOM     19  O   UNL d   1     -40.722  14.482  20.967  0.00  0.00    -0.300 OA
ATOM     20  C   UNL d   1     -41.428  14.773  20.658  0.00  0.00     0.142 A 
ATOM     21  C   UNL d   1     -42.128  14.339  20.740  0.00  0.00     0.107 A 
ENDBRANCH  15  16
ENDBRANCH  14  15
ENDBRANCH  13  14
ENDBRANCH  12  13
ENDBRANCH   5  12
BRANCH   4  22
ATOM     22  C   UNL d   1     -48.200  12.621  22.815  0.00  0.00     0.004 A 
ATOM     23  C   UNL d   1     -48.556  12.860  23.519  0.00  0.00     0.000 A 
ATOM     24  C   UNL d   1     -49.331  12.621  23.695  0.00  0.00     0.000 A 
ATOM     25  C   UNL d   1     -49.743  12.143  23.164  0.00  0.00     0.000 A 
ATOM     26  C   UNL d   1     -49.388  11.904  22.460  0.00  0.00     0.000 A 
ATOM     27  C   UNL d   1     -48.620  12.140  22.282  0.00  0.00     0.000 A 
ENDBRANCH   4  22
TORSDOF 6
ENDMDL
MODEL 6
REMARK VINA RESULT:      -4.0      6.203      9.137
REMARK  6 active torsions:
REMARK  status: ('A' for Active; 'I' for Inactive)
REMARK    1  A    between atoms: C_10  and  C_4 
REMARK    2  A    between atoms: N_12  and  C_5 
REMARK    3  A    between atoms: N_11  and  C_15 
REMARK    4  A    between atoms: C_20  and  N_12 
REMARK    5  A    between atoms: C_15  and  C_16 
REMARK    6  A    between atoms: C_16  and  C_20 
ROOT
ATOM      1  N   UNL d   1     -40.467  14.584  19.120  0.00  0.00    -0.195 N 
ATOM      2  C   UNL d   1     -39.719  14.648  18.781  0.00  0.00     0.167 A 
ATOM      3  N   UNL d   1     -41.028  14.745  18.543  0.00  0.00    -0.163 NA
ATOM      4  C   UNL d   1     -39.815  14.850  17.992  0.00  0.00     0.055 A 
ATOM      5  C   UNL d   1     -40.551  14.385  19.919  0.00  0.00     0.167 A 
ATOM      6  C   UNL d   1     -40.618  14.911  17.841  0.00  0.00     0.104 A 
ATOM      7  N   UNL d   1     -39.047  14.514  19.236  0.00  0.00    -0.227 NA
ATOM      8  C   UNL d   1     -39.867  14.250  20.377  0.00  0.00     0.058 A 
ATOM      9  C   UNL d   1     -39.119  14.314  20.037  0.00  0.00     0.086 A 
ATOM     10  C   UNL d   1     -40.963  15.104  17.117  0.00  0.00     0.023 C 
ATOM     11  C   UNL d   1     -38.442  14.180  20.494  0.00  0.00     0.021 C 
ENDROOT
BRANCH   5  12
ATOM     12  N   UNL d   1     -41.292  14.321  20.255  0.00  0.00    -0.225 NA
BRANCH  12  13
ATOM     13  C   UNL d   1     -41.449  13.720  20.796  0.00  0.00     0.102 C 
BRANCH  13  14
ATOM     14  C   UNL d   1     -42.222  13.609  21.082  0.00  0.00     0.040 C 
BRANCH  14  15
ATOM     15  C   UNL d   1     -42.556  12.856  21.088  0.00  0.00     0.082 C 
BRANCH  15  16
ATOM     16  N   UNL d   1     -43.245  12.712  21.517  0.00  0.00    -0.299 N 
ATOM     17  C   UNL d   1     -43.268  12.088  22.064  0.00  0.00     0.107 A 
ATOM     18  C   UNL d   1     -43.961  11.944  22.494  0.00  0.00     0.142 A 
ATOM     19  O   UNL d   1     -44.628  12.424  22.377  0.00  0.00    -0.300 OA
ATOM     20  C   UNL d   1     -44.600  13.042  21.833  0.00  0.00     0.142 A 
ATOM     21  C   UNL d   1     -43.908  13.186  21.403  0.00  0.00     0.107 A 
ENDBRANCH  15  16
ENDBRANCH  14  15
ENDBRANCH  13  14
ENDBRANCH  12  13
ENDBRANCH   5  12
BRANCH   4  22
ATOM     22  C   UNL d   1     -39.275  14.988  17.386  0.00  0.00     0.004 A 
ATOM     23  C   UNL d   1     -39.022  14.367  16.906  0.00  0.00     0.000 A 
ATOM     24  C   UNL d   1     -38.478  14.510  16.296  0.00  0.00     0.000 A 
ATOM     25  C   UNL d   1     -38.192  15.274  16.172  0.00  0.00     0.000 A 
ATOM     26  C   UNL d   1     -38.445  15.894  16.652  0.00  0.00     0.000 A 
ATOM     27  C   UNL d   1     -38.984  15.757  17.258  0.00  0.00     0.000 A 
ENDBRANCH   4  22
TORSDOF 6
ENDMDL
