MODEL 1
REMARK VINA RESULT:      23.5      0.000      0.000
REMARK  6 active torsions:
REMARK  status: ('A' for Active; 'I' for Inactive)
REMARK    1  A    between atoms: N_3  and  S_1 
REMARK    2  A    between atoms: C_7  and  S_1 
REMARK    3  A    between atoms: C_2  and  N_3 
REMARK    4  A    between atoms: N_9  and  C_5 
REMARK    5  A    between atoms: C_22  and  N_9 
REMARK    6  A    between atoms: C_21  and  C_22 
ROOT
ATOM      1  C   UNL d   1     -41.752-122.088 -52.977  0.00  0.00     0.211 A 
ATOM      2  N   UNL d   1     -41.978-122.796 -53.321  0.00  0.00    -0.222 NA
ATOM      3  C   UNL d   1     -41.778-121.386 -53.412  0.00  0.00     0.200 A 
ATOM      4  N   UNL d   1     -42.035-121.405 -54.204  0.00  0.00    -0.223 NA
ATOM      5  C   UNL d   1     -42.230-122.812 -54.099  0.00  0.00     0.101 A 
ATOM      6  C   UNL d   1     -42.261-122.122 -54.546  0.00  0.00     0.101 A 
ATOM      7  C   UNL d   1     -42.516-122.143 -55.329  0.00  0.00     0.021 A 
ATOM      8  C   UNL d   1     -42.457-123.533 -54.440  0.00  0.00     0.021 A 
ATOM      9  C   UNL d   1     -42.740-122.858 -55.664  0.00  0.00     0.002 A 
ATOM     10  C   UNL d   1     -42.711-123.550 -55.224  0.00  0.00     0.002 A 
ENDROOT
BRANCH   1  11
ATOM     11  N   UNL d   1     -41.499-122.071 -52.196  0.00  0.00    -0.136 NA
BRANCH  11  12
ATOM     12  S   UNL d   1     -41.579-122.820 -51.715  0.00  0.00     0.287 S 
ATOM     13  O   UNL d   1     -41.216-123.564 -52.048  0.00  0.00    -0.198 OA
ATOM     14  O   UNL d   1     -41.151-123.039 -52.402  0.00  0.00    -0.198 OA
BRANCH  12  15
ATOM     15  C   UNL d   1     -41.932-122.990 -50.989  0.00  0.00     0.105 A 
ATOM     16  C   UNL d   1     -42.548-122.515 -50.701  0.00  0.00     0.013 A 
ATOM     17  C   UNL d   1     -42.907-122.686 -49.968  0.00  0.00     0.001 A 
ATOM     18  C   UNL d   1     -43.515-122.213 -49.688  0.00  0.00     0.000 C 
ATOM     19  C   UNL d   1     -42.642-123.339 -49.525  0.00  0.00     0.000 A 
ATOM     20  C   UNL d   1     -42.027-123.811 -49.816  0.00  0.00     0.001 A 
ATOM     21  C   UNL d   1     -41.673-123.640 -50.541  0.00  0.00     0.013 A 
ENDBRANCH  12  15
ENDBRANCH  11  12
ENDBRANCH   1  11
BRANCH   3  22
ATOM     22  N   UNL d   1     -41.551-120.665 -53.070  0.00  0.00    -0.223 NA
BRANCH  22  23
ATOM     23  C   UNL d   1     -41.130-120.101 -53.515  0.00  0.00     0.101 C 
BRANCH  23  24
ATOM     24  C   UNL d   1     -41.150-119.306 -53.297  0.00  0.00     0.021 A 
ATOM     25  C   UNL d   1     -41.186-118.604 -53.739  0.00  0.00     0.028 A 
ATOM     26  C   UNL d   1     -41.199-117.872 -53.346  0.00  0.00     0.119 A 
ATOM     27  O   UNL d   1     -41.233-117.098 -53.631  0.00  0.00    -0.300 OA
ATOM     28  C   UNL d   1     -41.176-117.848 -52.523  0.00  0.00     0.119 A 
ATOM     29  C   UNL d   1     -41.231-116.591 -52.981  0.00  0.00     0.304 A 
ATOM     30  O   UNL d   1     -41.197-117.048 -52.298  0.00  0.00    -0.300 OA
ATOM     31  C   UNL d   1     -41.141-118.546 -52.088  0.00  0.00     0.026 A 
ATOM     32  C   UNL d   1     -41.127-119.273 -52.470  0.00  0.00     0.004 A 
ENDBRANCH  23  24
ENDBRANCH  22  23
ENDBRANCH   3  22
TORSDOF 6
ENDMDL
MODEL 2
REMARK VINA RESULT:      24.5      2.788      4.919
REMARK  6 active torsions:
REMARK  status: ('A' for Active; 'I' for Inactive)
REMARK    1  A    between atoms: N_3  and  S_1 
REMARK    2  A    between atoms: C_7  and  S_1 
REMARK    3  A    between atoms: C_2  and  N_3 
REMARK    4  A    between atoms: N_9  and  C_5 
REMARK    5  A    between atoms: C_22  and  N_9 
REMARK    6  A    between atoms: C_21  and  C_22 
ROOT
ATOM      1  C   UNL d   1     -42.625-123.321 -49.815  0.00  0.00     0.211 A 
ATOM      2  N   UNL d   1     -42.923-123.196 -49.061  0.00  0.00    -0.222 NA
ATOM      3  C   UNL d   1     -41.820-123.475 -49.924  0.00  0.00     0.200 A 
ATOM      4  N   UNL d   1     -41.315-123.502 -49.262  0.00  0.00    -0.223 NA
ATOM      5  C   UNL d   1     -42.425-123.223 -48.414  0.00  0.00     0.101 A 
ATOM      6  C   UNL d   1     -41.621-123.375 -48.506  0.00  0.00     0.101 A 
ATOM      7  C   UNL d   1     -41.123-123.401 -47.849  0.00  0.00     0.021 A 
ATOM      8  C   UNL d   1     -42.735-123.096 -47.655  0.00  0.00     0.021 A 
ATOM      9  C   UNL d   1     -41.433-123.275 -47.099  0.00  0.00     0.002 A 
ATOM     10  C   UNL d   1     -42.233-123.123 -47.001  0.00  0.00     0.002 A 
ENDROOT
BRANCH   1  11
ATOM     11  N   UNL d   1     -43.124-123.294 -50.466  0.00  0.00    -0.136 NA
BRANCH  11  12
ATOM     12  S   UNL d   1     -43.952-122.982 -50.344  0.00  0.00     0.287 S 
ATOM     13  O   UNL d   1     -44.608-123.580 -50.255  0.00  0.00    -0.198 OA
ATOM     14  O   UNL d   1     -44.024-123.817 -50.341  0.00  0.00    -0.198 OA
BRANCH  12  15
ATOM     15  C   UNL d   1     -44.267-122.221 -50.293  0.00  0.00     0.105 A 
ATOM     16  C   UNL d   1     -45.039-122.105 -50.012  0.00  0.00     0.013 A 
ATOM     17  C   UNL d   1     -45.359-121.336 -49.959  0.00  0.00     0.001 A 
ATOM     18  C   UNL d   1     -46.121-121.227 -49.681  0.00  0.00     0.000 C 
ATOM     19  C   UNL d   1     -44.897-120.685 -50.192  0.00  0.00     0.000 A 
ATOM     20  C   UNL d   1     -44.127-120.805 -50.472  0.00  0.00     0.001 A 
ATOM     21  C   UNL d   1     -43.812-121.565 -50.524  0.00  0.00     0.013 A 
ENDBRANCH  12  15
ENDBRANCH  11  12
ENDBRANCH   1  11
BRANCH   3  22
ATOM     22  N   UNL d   1     -41.511-123.602 -50.683  0.00  0.00    -0.223 NA
BRANCH  22  23
ATOM     23  C   UNL d   1     -41.123-122.987 -51.089  0.00  0.00     0.101 C 
BRANCH  23  24
ATOM     24  C   UNL d   1     -41.145-122.959 -51.913  0.00  0.00     0.021 A 
ATOM     25  C   UNL d   1     -41.144-123.553 -52.494  0.00  0.00     0.028 A 
ATOM     26  C   UNL d   1     -41.171-123.341 -53.297  0.00  0.00     0.119 A 
ATOM     27  O   UNL d   1     -41.177-123.797 -53.984  0.00  0.00    -0.300 OA
ATOM     28  C   UNL d   1     -41.199-122.546 -53.510  0.00  0.00     0.119 A 
ATOM     29  C   UNL d   1     -41.208-123.283 -54.628  0.00  0.00     0.304 A 
ATOM     30  O   UNL d   1     -41.222-122.512 -54.341  0.00  0.00    -0.300 OA
ATOM     31  C   UNL d   1     -41.200-121.960 -52.932  0.00  0.00     0.026 A 
ATOM     32  C   UNL d   1     -41.173-122.162 -52.135  0.00  0.00     0.004 A 
ENDBRANCH  23  24
ENDBRANCH  22  23
ENDBRANCH   3  22
TORSDOF 6
ENDMDL
