MODEL 1
REMARK VINA RESULT:      -6.6      0.000      0.000
REMARK  8 active torsions:
REMARK  status: ('A' for Active; 'I' for Inactive)
REMARK       I    between atoms: C_2  and  N_1 
REMARK    1  A    between atoms: C_3  and  N_1 
REMARK    2  A    between atoms: C_4  and  N_1 
REMARK    3  A    between atoms: C_6  and  C_2 
REMARK    4  A    between atoms: C_5  and  C_4 
REMARK    5  A    between atoms: C_7  and  C_5 
REMARK    6  A    between atoms: O_19  and  C_7 
REMARK    7  A    between atoms: C_9  and  O_11 
REMARK    8  A    between atoms: O_11  and  C_16 
ROOT
ATOM      1  N   UNL d   1     -48.711  12.841  22.779  0.00  0.00    -0.258 N 
ATOM      2  C   UNL d   1     -48.104  12.283  22.777  0.00  0.00     0.266 C 
ATOM      3  O   UNL d   1     -48.278  11.483  22.863  0.00  0.00    -0.267 OA
ENDROOT
BRANCH   1   4
ATOM      4  C   UNL d   1     -49.499  12.593  22.867  0.00  0.00     0.150 A 
ATOM      5  N   UNL d   1     -49.797  12.416  23.615  0.00  0.00    -0.227 NA
ATOM      6  C   UNL d   1     -50.577  12.170  23.698  0.00  0.00     0.101 A 
ATOM      7  C   UNL d   1     -51.064  12.100  23.029  0.00  0.00     0.021 A 
ATOM      8  C   UNL d   1     -50.767  12.276  22.283  0.00  0.00     0.005 A 
ATOM      9  C   UNL d   1     -49.986  12.523  22.199  0.00  0.00     0.037 A 
ENDBRANCH   1   4
BRANCH   1  10
ATOM     10  C   UNL d   1     -48.545  13.638  22.695  0.00  0.00     0.090 C 
BRANCH  10  11
ATOM     11  C   UNL d   1     -49.140  14.203  22.843  0.00  0.00     0.087 C 
BRANCH  11  12
ATOM     12  C   UNL d   1     -48.964  15.007  22.822  0.00  0.00     0.297 C 
ATOM     13  O   UNL d   1     -48.744  15.365  22.111  0.00  0.00    -0.259 OA
BRANCH  12  14
ATOM     14  O   UNL d   1     -49.008  15.455  23.512  0.00  0.00    -0.296 OA
ATOM     15  C   UNL d   1     -49.734  15.855  23.462  0.00  0.00     0.185 C 
ENDBRANCH  12  14
ENDBRANCH  11  12
ENDBRANCH  10  11
ENDBRANCH   1  10
BRANCH   2  16
ATOM     16  C   UNL d   1     -47.321  12.531  22.690  0.00  0.00     0.057 A 
ATOM     17  C   UNL d   1     -47.041  12.735  21.943  0.00  0.00     0.007 A 
ATOM     18  C   UNL d   1     -46.259  12.982  21.861  0.00  0.00     0.025 A 
ATOM     19  C   UNL d   1     -45.763  13.024  22.519  0.00  0.00     0.103 A 
ATOM     20  C   UNL d   1     -46.053  12.817  23.262  0.00  0.00     0.025 A 
ATOM     21  C   UNL d   1     -46.838  12.567  23.358  0.00  0.00     0.007 A 
BRANCH  19  22
ATOM     22  O   UNL d   1     -44.982  13.270  22.436  0.00  0.00    -0.273 OA
BRANCH  22  23
ATOM     23  C   UNL d   1     -44.445  12.805  22.017  0.00  0.00     0.300 C 
ATOM     24  O   UNL d   1     -44.054  12.185  22.393  0.00  0.00    -0.259 OA
ATOM     25  C   UNL d   1     -44.299  12.964  21.214  0.00  0.00     0.074 C 
ENDBRANCH  22  23
ENDBRANCH  19  22
ENDBRANCH   2  16
TORSDOF 8
ENDMDL
MODEL 2
REMARK VINA RESULT:      -6.1      1.426      4.372
REMARK  8 active torsions:
REMARK  status: ('A' for Active; 'I' for Inactive)
REMARK       I    between atoms: C_2  and  N_1 
REMARK    1  A    between atoms: C_3  and  N_1 
REMARK    2  A    between atoms: C_4  and  N_1 
REMARK    3  A    between atoms: C_6  and  C_2 
REMARK    4  A    between atoms: C_5  and  C_4 
REMARK    5  A    between atoms: C_7  and  C_5 
REMARK    6  A    between atoms: O_19  and  C_7 
REMARK    7  A    between atoms: C_9  and  O_11 
REMARK    8  A    between atoms: O_11  and  C_16 
ROOT
ATOM      1  N   UNL d   1     -47.052  13.428  22.499  0.00  0.00    -0.258 N 
ATOM      2  C   UNL d   1     -47.112  14.192  22.805  0.00  0.00     0.266 C 
ATOM      3  O   UNL d   1     -46.449  14.560  23.127  0.00  0.00    -0.267 OA
ENDROOT
BRANCH   1   4
ATOM      4  C   UNL d   1     -46.323  13.032  22.518  0.00  0.00     0.150 A 
ATOM      5  N   UNL d   1     -46.116  12.574  23.171  0.00  0.00    -0.227 NA
ATOM      6  C   UNL d   1     -45.392  12.184  23.186  0.00  0.00     0.101 A 
ATOM      7  C   UNL d   1     -44.871  12.250  22.544  0.00  0.00     0.021 A 
ATOM      8  C   UNL d   1     -45.076  12.707  21.892  0.00  0.00     0.005 A 
ATOM      9  C   UNL d   1     -45.801  13.099  21.876  0.00  0.00     0.037 A 
ENDBRANCH   1   4
BRANCH   1  10
ATOM     10  C   UNL d   1     -47.706  13.057  22.177  0.00  0.00     0.090 C 
BRANCH  10  11
ATOM     11  C   UNL d   1     -47.875  12.266  22.380  0.00  0.00     0.087 C 
BRANCH  11  12
ATOM     12  C   UNL d   1     -48.571  11.909  22.121  0.00  0.00     0.297 C 
ATOM     13  O   UNL d   1     -48.810  11.992  21.335  0.00  0.00    -0.259 OA
BRANCH  12  14
ATOM     14  O   UNL d   1     -49.028  11.470  22.647  0.00  0.00    -0.296 OA
ATOM     15  C   UNL d   1     -49.812  11.580  22.392  0.00  0.00     0.185 C 
ENDBRANCH  12  14
ENDBRANCH  11  12
ENDBRANCH  10  11
ENDBRANCH   1  10
BRANCH   2  16
ATOM     16  C   UNL d   1     -47.837  14.585  22.785  0.00  0.00     0.057 A 
ATOM     17  C   UNL d   1     -48.048  15.016  22.116  0.00  0.00     0.007 A 
ATOM     18  C   UNL d   1     -48.773  15.407  22.102  0.00  0.00     0.025 A 
ATOM     19  C   UNL d   1     -49.282  15.366  22.750  0.00  0.00     0.103 A 
ATOM     20  C   UNL d   1     -49.062  14.932  23.415  0.00  0.00     0.025 A 
ATOM     21  C   UNL d   1     -48.334  14.534  23.442  0.00  0.00     0.007 A 
BRANCH  19  22
ATOM     22  O   UNL d   1     -50.006  15.756  22.735  0.00  0.00    -0.273 OA
BRANCH  22  23
ATOM     23  C   UNL d   1     -50.709  15.325  22.766  0.00  0.00     0.300 C 
ATOM     24  O   UNL d   1     -51.060  15.056  22.071  0.00  0.00    -0.259 OA
ATOM     25  C   UNL d   1     -51.061  15.161  23.501  0.00  0.00     0.074 C 
ENDBRANCH  22  23
ENDBRANCH  19  22
ENDBRANCH   2  16
TORSDOF 8
ENDMDL
MODEL 3
REMARK VINA RESULT:      -5.2      8.455      9.749
REMARK  8 active torsions:
REMARK  status: ('A' for Active; 'I' for Inactive)
REMARK       I    between atoms: C_2  and  N_1 
REMARK    1  A    between atoms: C_3  and  N_1 
REMARK    2  A    between atoms: C_4  and  N_1 
REMARK    3  A    between atoms: C_6  and  C_2 
REMARK    4  A    between atoms: C_5  and  C_4 
REMARK    5  A    between atoms: C_7  and  C_5 
REMARK    6  A    between atoms: O_19  and  C_7 
REMARK    7  A    between atoms: C_9  and  O_11 
REMARK    8  A    between atoms: O_11  and  C_16 
ROOT
ATOM      1  N   UNL d   1     -40.003  14.923  18.670  0.00  0.00    -0.258 N 
ATOM      2  C   UNL d   1     -40.271  15.309  19.348  0.00  0.00     0.266 C 
ATOM      3  O   UNL d   1     -40.820  15.921  19.286  0.00  0.00    -0.267 OA
ENDROOT
BRANCH   1   4
ATOM      4  C   UNL d   1     -40.288  15.154  17.925  0.00  0.00     0.150 A 
ATOM      5  N   UNL d   1     -41.001  14.853  17.643  0.00  0.00    -0.227 NA
ATOM      6  C   UNL d   1     -41.280  15.084  16.904  0.00  0.00     0.101 A 
ATOM      7  C   UNL d   1     -40.844  15.619  16.443  0.00  0.00     0.021 A 
ATOM      8  C   UNL d   1     -40.132  15.920  16.725  0.00  0.00     0.005 A 
ATOM      9  C   UNL d   1     -39.852  15.689  17.464  0.00  0.00     0.037 A 
ENDBRANCH   1   4
BRANCH   1  10
ATOM     10  C   UNL d   1     -39.459  14.316  18.725  0.00  0.00     0.090 C 
BRANCH  10  11
ATOM     11  C   UNL d   1     -39.395  13.759  18.107  0.00  0.00     0.087 C 
BRANCH  11  12
ATOM     12  C   UNL d   1     -38.799  13.191  18.118  0.00  0.00     0.297 C 
ATOM     13  O   UNL d   1     -38.168  13.265  18.646  0.00  0.00    -0.259 OA
BRANCH  12  14
ATOM     14  O   UNL d   1     -38.831  12.551  17.601  0.00  0.00    -0.296 OA
ATOM     15  C   UNL d   1     -38.110  12.152  17.709  0.00  0.00     0.185 C 
ENDBRANCH  12  14
ENDBRANCH  11  12
ENDBRANCH  10  11
ENDBRANCH   1  10
BRANCH   2  16
ATOM     16  C   UNL d   1     -39.987  15.080  20.088  0.00  0.00     0.057 A 
ATOM     17  C   UNL d   1     -40.374  14.484  20.505  0.00  0.00     0.007 A 
ATOM     18  C   UNL d   1     -40.087  14.259  21.244  0.00  0.00     0.025 A 
ATOM     19  C   UNL d   1     -39.419  14.625  21.561  0.00  0.00     0.103 A 
ATOM     20  C   UNL d   1     -39.039  15.220  21.137  0.00  0.00     0.025 A 
ATOM     21  C   UNL d   1     -39.318  15.456  20.392  0.00  0.00     0.007 A 
BRANCH  19  22
ATOM     22  O   UNL d   1     -39.133  14.400  22.299  0.00  0.00    -0.273 OA
BRANCH  22  23
ATOM     23  C   UNL d   1     -38.610  13.764  22.363  0.00  0.00     0.300 C 
ATOM     24  O   UNL d   1     -38.015  13.662  21.802  0.00  0.00    -0.259 OA
ATOM     25  C   UNL d   1     -38.686  13.228  22.993  0.00  0.00     0.074 C 
ENDBRANCH  22  23
ENDBRANCH  19  22
ENDBRANCH   2  16
TORSDOF 8
ENDMDL
MODEL 4
REMARK VINA RESULT:      -5.1      6.651      9.376
REMARK  8 active torsions:
REMARK  status: ('A' for Active; 'I' for Inactive)
REMARK       I    between atoms: C_2  and  N_1 
REMARK    1  A    between atoms: C_3  and  N_1 
REMARK    2  A    between atoms: C_4  and  N_1 
REMARK    3  A    between atoms: C_6  and  C_2 
REMARK    4  A    between atoms: C_5  and  C_4 
REMARK    5  A    between atoms: C_7  and  C_5 
REMARK    6  A    between atoms: O_19  and  C_7 
REMARK    7  A    between atoms: C_9  and  O_11 
REMARK    8  A    between atoms: O_11  and  C_16 
ROOT
ATOM      1  N   UNL d   1     -39.240  14.562  20.619  0.00  0.00    -0.258 N 
ATOM      2  C   UNL d   1     -38.749  14.598  19.957  0.00  0.00     0.266 C 
ATOM      3  O   UNL d   1     -37.940  14.467  20.036  0.00  0.00    -0.267 OA
ENDROOT
BRANCH   1   4
ATOM      4  C   UNL d   1     -38.915  14.394  21.365  0.00  0.00     0.150 A 
ATOM      5  N   UNL d   1     -38.744  13.616  21.577  0.00  0.00    -0.227 NA
ATOM      6  C   UNL d   1     -38.422  13.454  22.316  0.00  0.00     0.101 A 
ATOM      7  C   UNL d   1     -38.270  14.073  22.848  0.00  0.00     0.021 A 
ATOM      8  C   UNL d   1     -38.441  14.849  22.637  0.00  0.00     0.005 A 
ATOM      9  C   UNL d   1     -38.763  15.012  21.897  0.00  0.00     0.037 A 
ENDBRANCH   1   4
BRANCH   1  10
ATOM     10  C   UNL d   1     -40.045  14.690  20.548  0.00  0.00     0.090 C 
BRANCH  10  11
ATOM     11  C   UNL d   1     -40.574  14.302  21.063  0.00  0.00     0.087 C 
BRANCH  11  12
ATOM     12  C   UNL d   1     -41.387  14.374  20.956  0.00  0.00     0.297 C 
ATOM     13  O   UNL d   1     -41.754  15.106  21.061  0.00  0.00    -0.259 OA
BRANCH  12  14
ATOM     14  O   UNL d   1     -41.834  13.716  20.743  0.00  0.00    -0.296 OA
ATOM     15  C   UNL d   1     -42.437  13.673  21.313  0.00  0.00     0.185 C 
ENDBRANCH  12  14
ENDBRANCH  11  12
ENDBRANCH  10  11
ENDBRANCH   1  10
BRANCH   2  16
ATOM     16  C   UNL d   1     -39.073  14.765  19.217  0.00  0.00     0.057 A 
ATOM     17  C   UNL d   1     -39.200  15.549  18.997  0.00  0.00     0.007 A 
ATOM     18  C   UNL d   1     -39.524  15.710  18.256  0.00  0.00     0.025 A 
ATOM     19  C   UNL d   1     -39.717  15.095  17.742  0.00  0.00     0.103 A 
ATOM     20  C   UNL d   1     -39.586  14.315  17.971  0.00  0.00     0.025 A 
ATOM     21  C   UNL d   1     -39.261  14.138  18.714  0.00  0.00     0.007 A 
BRANCH  19  22
ATOM     22  O   UNL d   1     -40.040  15.257  17.002  0.00  0.00    -0.273 OA
BRANCH  22  23
ATOM     23  C   UNL d   1     -40.859  15.268  16.903  0.00  0.00     0.300 C 
ATOM     24  O   UNL d   1     -41.315  14.633  17.162  0.00  0.00    -0.259 OA
ATOM     25  C   UNL d   1     -41.222  15.922  16.541  0.00  0.00     0.074 C 
ENDBRANCH  22  23
ENDBRANCH  19  22
ENDBRANCH   2  16
TORSDOF 8
ENDMDL
