MODEL 1
REMARK VINA RESULT:      -4.5      0.000      0.000
REMARK  5 active torsions:
REMARK  status: ('A' for Active; 'I' for Inactive)
REMARK    1  A    between atoms: N_2  and  S_1 
REMARK    2  A    between atoms: C_8  and  S_1 
REMARK    3  A    between atoms: S_5  and  C_3 
REMARK    4  A    between atoms: C_13  and  S_5 
REMARK    5  A    between atoms: C_12  and  C_13 
ROOT
ATOM      1  N   UNL d   1      58.706   0.306  30.177  0.00  0.00    -0.208 N 
ATOM      2  C   UNL d   1      58.425   0.349  30.960  0.00  0.00     0.189 A 
ATOM      3  N   UNL d   1      59.053   0.581  31.448  0.00  0.00    -0.219 NA
ATOM      4  C   UNL d   1      59.514   0.513  30.184  0.00  0.00     0.114 A 
ATOM      5  C   UNL d   1      59.722   0.682  30.967  0.00  0.00     0.121 A 
ENDROOT
BRANCH   1   6
ATOM      6  S   UNL d   1      58.259   0.093  29.510  0.00  0.00     0.273 S 
ATOM      7  O   UNL d   1      57.725   0.678  29.728  0.00  0.00    -0.200 OA
ATOM      8  O   UNL d   1      57.663   0.068  28.933  0.00  0.00    -0.200 OA
BRANCH   6   9
ATOM      9  C   UNL d   1      58.785  -0.501  29.275  0.00  0.00     0.104 A 
ATOM     10  C   UNL d   1      59.423  -0.308  28.798  0.00  0.00     0.013 A 
ATOM     11  C   UNL d   1      59.946  -0.900  28.564  0.00  0.00     0.001 A 
ATOM     12  C   UNL d   1      59.826  -1.678  28.810  0.00  0.00     0.000 A 
ATOM     13  C   UNL d   1      59.185  -1.865  29.288  0.00  0.00     0.001 A 
ATOM     14  C   UNL d   1      58.661  -1.267  29.521  0.00  0.00     0.013 A 
ENDBRANCH   6   9
ENDBRANCH   1   6
BRANCH   2  15
ATOM     15  S   UNL d   1      57.645   0.186  31.208  0.00  0.00    -0.049 SA
BRANCH  15  16
ATOM     16  C   UNL d   1      57.396   0.422  31.960  0.00  0.00     0.040 C 
BRANCH  16  17
ATOM     17  C   UNL d   1      56.769   0.029  32.324  0.00  0.00     0.026 A 
ATOM     18  C   UNL d   1      56.217   0.462  32.791  0.00  0.00     0.099 A 
ATOM     19  N   UNL d   1      55.586   0.086  33.161  0.00  0.00    -0.242 NA
ATOM     20  C   UNL d   1      55.502  -0.730  33.067  0.00  0.00     0.099 A 
ATOM     21  C   UNL d   1      56.040  -1.160  32.612  0.00  0.00     0.021 A 
ATOM     22  C   UNL d   1      56.672  -0.778  32.241  0.00  0.00     0.004 A 
ENDBRANCH  16  17
ENDBRANCH  15  16
ENDBRANCH   2  15
TORSDOF 5
ENDMDL
MODEL 2
REMARK VINA RESULT:      -3.7      1.232      1.635
REMARK  5 active torsions:
REMARK  status: ('A' for Active; 'I' for Inactive)
REMARK    1  A    between atoms: N_2  and  S_1 
REMARK    2  A    between atoms: C_8  and  S_1 
REMARK    3  A    between atoms: S_5  and  C_3 
REMARK    4  A    between atoms: C_13  and  S_5 
REMARK    5  A    between atoms: C_12  and  C_13 
ROOT
ATOM      1  N   UNL d   1      58.442  -0.554  29.281  0.00  0.00    -0.208 N 
ATOM      2  C   UNL d   1      58.027   0.003  29.741  0.00  0.00     0.189 A 
ATOM      3  N   UNL d   1      57.870   0.665  29.267  0.00  0.00    -0.219 NA
ATOM      4  C   UNL d   1      58.542  -0.231  28.518  0.00  0.00     0.114 A 
ATOM      5  C   UNL d   1      58.189   0.517  28.514  0.00  0.00     0.121 A 
ENDROOT
BRANCH   1   6
ATOM      6  S   UNL d   1      58.708  -1.296  29.540  0.00  0.00     0.273 S 
ATOM      7  O   UNL d   1      57.930  -1.466  29.736  0.00  0.00    -0.200 OA
ATOM      8  O   UNL d   1      58.726  -2.066  29.850  0.00  0.00    -0.200 OA
BRANCH   6   9
ATOM      9  C   UNL d   1      59.499  -1.143  29.349  0.00  0.00     0.104 A 
ATOM     10  C   UNL d   1      59.808  -1.432  28.647  0.00  0.00     0.013 A 
ATOM     11  C   UNL d   1      60.595  -1.280  28.458  0.00  0.00     0.001 A 
ATOM     12  C   UNL d   1      61.065  -0.839  28.973  0.00  0.00     0.000 A 
ATOM     13  C   UNL d   1      60.751  -0.552  29.675  0.00  0.00     0.001 A 
ATOM     14  C   UNL d   1      59.959  -0.707  29.862  0.00  0.00     0.013 A 
ENDBRANCH   6   9
ENDBRANCH   1   6
BRANCH   2  15
ATOM     15  S   UNL d   1      57.807  -0.090  30.540  0.00  0.00    -0.049 SA
BRANCH  15  16
ATOM     16  C   UNL d   1      57.250   0.420  30.875  0.00  0.00     0.040 C 
BRANCH  16  17
ATOM     17  C   UNL d   1      57.044   0.336  31.670  0.00  0.00     0.026 A 
ATOM     18  C   UNL d   1      57.530   0.676  32.268  0.00  0.00     0.099 A 
ATOM     19  N   UNL d   1      57.339   0.601  33.064  0.00  0.00    -0.242 NA
ATOM     20  C   UNL d   1      56.657   0.183  33.269  0.00  0.00     0.099 A 
ATOM     21  C   UNL d   1      56.178  -0.153  32.688  0.00  0.00     0.021 A 
ATOM     22  C   UNL d   1      56.373  -0.075  31.889  0.00  0.00     0.004 A 
ENDBRANCH  16  17
ENDBRANCH  15  16
ENDBRANCH   2  15
TORSDOF 5
ENDMDL
MODEL 3
REMARK VINA RESULT:      -3.5      1.497      4.359
REMARK  5 active torsions:
REMARK  status: ('A' for Active; 'I' for Inactive)
REMARK    1  A    between atoms: N_2  and  S_1 
REMARK    2  A    between atoms: C_8  and  S_1 
REMARK    3  A    between atoms: S_5  and  C_3 
REMARK    4  A    between atoms: C_13  and  S_5 
REMARK    5  A    between atoms: C_12  and  C_13 
ROOT
ATOM      1  N   UNL d   1      57.064  -0.096  32.660  0.00  0.00    -0.208 N 
ATOM      2  C   UNL d   1      57.626   0.204  32.125  0.00  0.00     0.189 A 
ATOM      3  N   UNL d   1      58.157   0.680  32.547  0.00  0.00    -0.219 NA
ATOM      4  C   UNL d   1      57.250   0.199  33.419  0.00  0.00     0.114 A 
ATOM      5  C   UNL d   1      57.923   0.675  33.343  0.00  0.00     0.121 A 
ENDROOT
BRANCH   1   6
ATOM      6  S   UNL d   1      56.430  -0.598  32.470  0.00  0.00     0.273 S 
ATOM      7  O   UNL d   1      56.925  -0.954  31.921  0.00  0.00    -0.200 OA
ATOM      8  O   UNL d   1      55.971  -1.193  32.118  0.00  0.00    -0.200 OA
BRANCH   6   9
ATOM      9  C   UNL d   1      55.916  -0.252  33.019  0.00  0.00     0.104 A 
ATOM     10  C   UNL d   1      55.402   0.337  32.774  0.00  0.00     0.013 A 
ATOM     11  C   UNL d   1      54.891   0.681  33.320  0.00  0.00     0.001 A 
ATOM     12  C   UNL d   1      54.899   0.432  34.106  0.00  0.00     0.000 A 
ATOM     13  C   UNL d   1      55.416  -0.159  34.347  0.00  0.00     0.001 A 
ATOM     14  C   UNL d   1      55.929  -0.503  33.794  0.00  0.00     0.013 A 
ENDBRANCH   6   9
ENDBRANCH   1   6
BRANCH   2  15
ATOM     15  S   UNL d   1      57.650   0.051  31.305  0.00  0.00    -0.049 SA
BRANCH  15  16
ATOM     16  C   UNL d   1      57.981   0.608  30.792  0.00  0.00     0.040 C 
BRANCH  16  17
ATOM     17  C   UNL d   1      58.206   0.381  30.032  0.00  0.00     0.026 A 
ATOM     18  C   UNL d   1      57.696   0.533  29.379  0.00  0.00     0.099 A 
ATOM     19  N   UNL d   1      57.906   0.313  28.615  0.00  0.00    -0.242 NA
ATOM     20  C   UNL d   1      58.632  -0.063  28.498  0.00  0.00     0.099 A 
ATOM     21  C   UNL d   1      59.136  -0.215  29.133  0.00  0.00     0.021 A 
ATOM     22  C   UNL d   1      58.921   0.008  29.899  0.00  0.00     0.004 A 
ENDBRANCH  16  17
ENDBRANCH  15  16
ENDBRANCH   2  15
TORSDOF 5
ENDMDL
MODEL 4
REMARK VINA RESULT:      -2.1      1.489      4.162
REMARK  5 active torsions:
REMARK  status: ('A' for Active; 'I' for Inactive)
REMARK    1  A    between atoms: N_2  and  S_1 
REMARK    2  A    between atoms: C_8  and  S_1 
REMARK    3  A    between atoms: S_5  and  C_3 
REMARK    4  A    between atoms: C_13  and  S_5 
REMARK    5  A    between atoms: C_12  and  C_13 
ROOT
ATOM      1  N   UNL d   1      58.348   0.147  30.103  0.00  0.00    -0.208 N 
ATOM      2  C   UNL d   1      58.526  -0.381  29.485  0.00  0.00     0.189 A 
ATOM      3  N   UNL d   1      58.063  -0.176  28.828  0.00  0.00    -0.219 NA
ATOM      4  C   UNL d   1      57.770   0.681  29.825  0.00  0.00     0.114 A 
ATOM      5  C   UNL d   1      57.599   0.478  29.041  0.00  0.00     0.121 A 
ENDROOT
BRANCH   1   6
ATOM      6  S   UNL d   1      58.687   0.141  30.861  0.00  0.00     0.273 S 
ATOM      7  O   UNL d   1      59.416   0.226  30.496  0.00  0.00    -0.200 OA
ATOM      8  O   UNL d   1      59.238   0.161  31.481  0.00  0.00    -0.200 OA
BRANCH   6   9
ATOM      9  C   UNL d   1      57.960   0.055  31.248  0.00  0.00     0.104 A 
ATOM     10  C   UNL d   1      57.560  -0.659  31.201  0.00  0.00     0.013 A 
ATOM     11  C   UNL d   1      56.837  -0.743  31.586  0.00  0.00     0.001 A 
ATOM     12  C   UNL d   1      56.521  -0.113  32.015  0.00  0.00     0.000 A 
ATOM     13  C   UNL d   1      56.926   0.600  32.059  0.00  0.00     0.001 A 
ATOM     14  C   UNL d   1      57.654   0.682  31.670  0.00  0.00     0.013 A 
ENDBRANCH   6   9
ENDBRANCH   1   6
BRANCH   2  15
ATOM     15  S   UNL d   1      59.076  -1.007  29.521  0.00  0.00    -0.049 SA
BRANCH  15  16
ATOM     16  C   UNL d   1      59.436  -1.278  28.828  0.00  0.00     0.040 C 
BRANCH  16  17
ATOM     17  C   UNL d   1      59.872  -1.978  28.841  0.00  0.00     0.026 A 
ATOM     18  C   UNL d   1      60.648  -1.996  28.514  0.00  0.00     0.099 A 
ATOM     19  N   UNL d   1      61.096  -2.686  28.519  0.00  0.00    -0.242 NA
ATOM     20  C   UNL d   1      60.769  -3.367  28.853  0.00  0.00     0.099 A 
ATOM     21  C   UNL d   1      60.009  -3.356  29.174  0.00  0.00     0.021 A 
ATOM     22  C   UNL d   1      59.563  -2.661  29.167  0.00  0.00     0.004 A 
ENDBRANCH  16  17
ENDBRANCH  15  16
ENDBRANCH   2  15
TORSDOF 5
ENDMDL
MODEL 5
REMARK VINA RESULT:      -1.6      1.259      1.821
REMARK  5 active torsions:
REMARK  status: ('A' for Active; 'I' for Inactive)
REMARK    1  A    between atoms: N_2  and  S_1 
REMARK    2  A    between atoms: C_8  and  S_1 
REMARK    3  A    between atoms: S_5  and  C_3 
REMARK    4  A    between atoms: C_13  and  S_5 
REMARK    5  A    between atoms: C_12  and  C_13 
ROOT
ATOM      1  N   UNL d   1      58.337  -0.660  30.619  0.00  0.00    -0.208 N 
ATOM      2  C   UNL d   1      57.642  -0.936  30.985  0.00  0.00     0.189 A 
ATOM      3  N   UNL d   1      57.433  -1.658  30.634  0.00  0.00    -0.219 NA
ATOM      4  C   UNL d   1      58.559  -1.217  30.038  0.00  0.00     0.114 A 
ATOM      5  C   UNL d   1      58.000  -1.828  30.052  0.00  0.00     0.121 A 
ENDROOT
BRANCH   1   6
ATOM      6  S   UNL d   1      58.736   0.044  30.802  0.00  0.00     0.273 S 
ATOM      7  O   UNL d   1      58.548  -0.096  31.588  0.00  0.00    -0.200 OA
ATOM      8  O   UNL d   1      59.064   0.681  31.221  0.00  0.00    -0.200 OA
BRANCH   6   9
ATOM      9  C   UNL d   1      58.936   0.203  30.015  0.00  0.00     0.104 A 
ATOM     10  C   UNL d   1      59.694   0.039  29.750  0.00  0.00     0.013 A 
ATOM     11  C   UNL d   1      59.892   0.197  28.966  0.00  0.00     0.001 A 
ATOM     12  C   UNL d   1      59.329   0.519  28.455  0.00  0.00     0.000 A 
ATOM     13  C   UNL d   1      58.571   0.682  28.726  0.00  0.00     0.001 A 
ATOM     14  C   UNL d   1      58.376   0.521  29.515  0.00  0.00     0.013 A 
ENDBRANCH   6   9
ENDBRANCH   1   6
BRANCH   2  15
ATOM     15  S   UNL d   1      57.227  -0.551  31.598  0.00  0.00    -0.049 SA
BRANCH  15  16
ATOM     16  C   UNL d   1      56.588  -0.929  31.962  0.00  0.00     0.040 C 
BRANCH  16  17
ATOM     17  C   UNL d   1      56.131  -0.520  32.514  0.00  0.00     0.026 A 
ATOM     18  C   UNL d   1      55.968  -0.867  33.264  0.00  0.00     0.099 A 
ATOM     19  N   UNL d   1      55.515  -0.472  33.825  0.00  0.00    -0.242 NA
ATOM     20  C   UNL d   1      55.220   0.277  33.639  0.00  0.00     0.099 A 
ATOM     21  C   UNL d   1      55.376   0.622  32.906  0.00  0.00     0.021 A 
ATOM     22  C   UNL d   1      55.832   0.222  32.345  0.00  0.00     0.004 A 
ENDBRANCH  16  17
ENDBRANCH  15  16
ENDBRANCH   2  15
TORSDOF 5
ENDMDL
