MODEL 1
REMARK VINA RESULT:     103.3      0.000      0.000
REMARK  6 active torsions:
REMARK  status: ('A' for Active; 'I' for Inactive)
REMARK    1  A    between atoms: C_11  and  C_4 
REMARK    2  A    between atoms: N_10  and  C_5 
REMARK    3  A    between atoms: C_16  and  C_9 
REMARK    4  A    between atoms: C_13  and  N_10 
REMARK    5  A    between atoms: C_14  and  C_13 
REMARK    6  A    between atoms: C_21  and  C_16 
ROOT
ATOM      1  N   UNL d   1      59.009  47.523  50.509  0.00  0.00    -0.195 N 
ATOM      2  C   UNL d   1      58.455  48.107  50.689  0.00  0.00     0.167 A 
ATOM      3  N   UNL d   1      57.982  46.690  50.046  0.00  0.00    -0.163 NA
ATOM      4  C   UNL d   1      57.679  47.978  50.548  0.00  0.00     0.055 A 
ATOM      5  C   UNL d   1      59.786  47.673  50.659  0.00  0.00     0.167 A 
ATOM      6  C   UNL d   1      57.427  47.274  50.226  0.00  0.00     0.104 A 
ATOM      7  N   UNL d   1      58.707  48.810  51.010  0.00  0.00    -0.227 NA
ATOM      8  C   UNL d   1      60.042  48.360  50.974  0.00  0.00     0.058 A 
ATOM      9  C   UNL d   1      59.488  48.944  51.154  0.00  0.00     0.086 A 
ATOM     10  C   UNL d   1      56.649  47.137  50.082  0.00  0.00     0.023 C 
ENDROOT
BRANCH   5  11
ATOM     11  N   UNL d   1      60.358  47.071  50.473  0.00  0.00    -0.224 NA
BRANCH  11  12
ATOM     12  C   UNL d   1      61.156  46.967  50.214  0.00  0.00     0.120 C 
BRANCH  12  13
ATOM     13  C   UNL d   1      61.425  46.224  49.925  0.00  0.00     0.101 A 
ATOM     14  N   UNL d   1      61.964  46.191  49.269  0.00  0.00    -0.242 NA
ATOM     15  C   UNL d   1      62.230  45.441  48.984  0.00  0.00     0.099 A 
ATOM     16  C   UNL d   1      61.962  44.726  49.350  0.00  0.00     0.021 A 
ATOM     17  C   UNL d   1      61.420  44.767  50.009  0.00  0.00     0.003 A 
ATOM     18  C   UNL d   1      61.154  45.517  50.294  0.00  0.00     0.021 A 
ENDBRANCH  12  13
ENDBRANCH  11  12
ENDBRANCH   5  11
BRANCH   9  19
ATOM     19  C   UNL d   1      59.744  49.679  51.489  0.00  0.00     0.019 C 
BRANCH  19  20
ATOM     20  C   UNL d   1      60.410  49.705  52.023  0.00  0.00     0.002 C 
ATOM     21  C   UNL d   1      60.301  49.573  52.844  0.00  0.00     0.000 C 
ENDBRANCH  19  20
ENDBRANCH   9  19
BRANCH   4  22
ATOM     22  C   UNL d   1      57.134  48.552  50.725  0.00  0.00     0.004 A 
ATOM     23  C   UNL d   1      56.775  48.552  51.452  0.00  0.00     0.000 A 
ATOM     24  C   UNL d   1      56.229  49.127  51.630  0.00  0.00     0.000 A 
ATOM     25  C   UNL d   1      56.042  49.701  51.081  0.00  0.00     0.000 A 
ATOM     26  C   UNL d   1      56.401  49.704  50.350  0.00  0.00     0.000 A 
ATOM     27  C   UNL d   1      56.955  49.120  50.170  0.00  0.00     0.000 A 
ENDBRANCH   4  22
TORSDOF 6
ENDMDL
