MODEL 1
REMARK VINA RESULT:      -7.2      0.000      0.000
REMARK  4 active torsions:
REMARK  status: ('A' for Active; 'I' for Inactive)
REMARK    1  A    between atoms: C_5  and  N_1 
REMARK    2  A    between atoms: C_6  and  C_5 
REMARK       I    between atoms: N_9  and  C_6 
REMARK    3  A    between atoms: C_13  and  N_9 
REMARK    4  A    between atoms: O_19  and  C_14 
ROOT
ATOM      1  C   UNL d   1     -48.405  13.098  22.844  0.00  0.00     0.297 C 
ATOM      2  N   UNL d   1     -47.772  13.161  23.369  0.00  0.00    -0.207 NA
ATOM      3  O   UNL d   1     -48.267  13.095  22.030  0.00  0.00    -0.264 OA
ENDROOT
BRANCH   1   4
ATOM      4  C   UNL d   1     -49.173  13.037  23.130  0.00  0.00     0.148 C 
BRANCH   4   5
ATOM      5  N   UNL d   1     -49.803  13.337  22.690  0.00  0.00    -0.235 N 
ATOM      6  C   UNL d   1     -50.095  14.100  22.853  0.00  0.00     0.273 A 
ATOM      7  C   UNL d   1     -50.725  14.400  22.414  0.00  0.00     0.086 A 
ATOM      8  O   UNL d   1     -49.748  14.553  23.457  0.00  0.00    -0.266 OA
ATOM      9  C   UNL d   1     -51.020  15.157  22.570  0.00  0.00     0.012 C 
ATOM     10  S   UNL d   1     -51.064  13.936  21.810  0.00  0.00    -0.077 SA
ATOM     11  C   UNL d   1     -50.772  13.188  21.656  0.00  0.00     0.097 A 
ATOM     12  C   UNL d   1     -50.142  12.888  22.095  0.00  0.00     0.274 A 
ATOM     13  O   UNL d   1     -49.843  12.122  21.937  0.00  0.00    -0.266 OA
ENDBRANCH   4   5
ENDBRANCH   1   4
BRANCH   2  14
ATOM     14  C   UNL d   1     -47.002  13.222  23.080  0.00  0.00     0.085 A 
ATOM     15  C   UNL d   1     -46.687  13.956  22.910  0.00  0.00     0.021 A 
ATOM     16  C   UNL d   1     -45.932  14.025  22.626  0.00  0.00     0.026 A 
ATOM     17  C   UNL d   1     -45.472  13.341  22.505  0.00  0.00     0.094 A 
ATOM     18  C   UNL d   1     -45.786  12.607  22.675  0.00  0.00     0.026 A 
ATOM     19  C   UNL d   1     -46.564  12.550  22.967  0.00  0.00     0.021 A 
BRANCH  17  20
ATOM     20  O   UNL d   1     -44.691  13.413  22.211  0.00  0.00    -0.328 OA
ATOM     21  C   UNL d   1     -44.423  12.924  21.603  0.00  0.00     0.181 C 
ENDBRANCH  17  20
ENDBRANCH   2  14
TORSDOF 4
ENDMDL
MODEL 2
REMARK VINA RESULT:      -5.8      8.927     10.193
REMARK  4 active torsions:
REMARK  status: ('A' for Active; 'I' for Inactive)
REMARK    1  A    between atoms: C_5  and  N_1 
REMARK    2  A    between atoms: C_6  and  C_5 
REMARK       I    between atoms: N_9  and  C_6 
REMARK    3  A    between atoms: C_13  and  N_9 
REMARK    4  A    between atoms: O_19  and  C_14 
ROOT
ATOM      1  C   UNL d   1     -39.959  14.572  18.737  0.00  0.00     0.297 C 
ATOM      2  N   UNL d   1     -40.486  14.484  19.365  0.00  0.00    -0.207 NA
ATOM      3  O   UNL d   1     -39.263  15.003  18.841  0.00  0.00    -0.264 OA
ENDROOT
BRANCH   1   4
ATOM      4  C   UNL d   1     -40.125  14.233  18.009  0.00  0.00     0.148 C 
BRANCH   4   5
ATOM      5  N   UNL d   1     -39.549  14.218  17.418  0.00  0.00    -0.235 N 
ATOM      6  C   UNL d   1     -39.041  13.561  17.353  0.00  0.00     0.273 A 
ATOM      7  C   UNL d   1     -38.465  13.546  16.762  0.00  0.00     0.086 A 
ATOM      8  O   UNL d   1     -39.117  12.926  17.883  0.00  0.00    -0.266 OA
ATOM      9  C   UNL d   1     -37.957  12.897  16.691  0.00  0.00     0.012 C 
ATOM     10  S   UNL d   1     -38.398  14.189  16.235  0.00  0.00    -0.077 SA
ATOM     11  C   UNL d   1     -38.901  14.830  16.306  0.00  0.00     0.097 A 
ATOM     12  C   UNL d   1     -39.476  14.844  16.897  0.00  0.00     0.274 A 
ATOM     13  O   UNL d   1     -39.991  15.502  16.968  0.00  0.00    -0.266 OA
ENDBRANCH   4   5
ENDBRANCH   1   4
BRANCH   2  14
ATOM     14  C   UNL d   1     -40.317  14.827  20.097  0.00  0.00     0.085 A 
ATOM     15  C   UNL d   1     -39.881  14.414  20.649  0.00  0.00     0.021 A 
ATOM     16  C   UNL d   1     -39.710  14.742  21.369  0.00  0.00     0.026 A 
ATOM     17  C   UNL d   1     -39.982  15.509  21.548  0.00  0.00     0.094 A 
ATOM     18  C   UNL d   1     -40.419  15.922  20.996  0.00  0.00     0.026 A 
ATOM     19  C   UNL d   1     -40.587  15.572  20.259  0.00  0.00     0.021 A 
BRANCH  17  20
ATOM     20  O   UNL d   1     -39.806  15.848  22.293  0.00  0.00    -0.328 OA
ATOM     21  C   UNL d   1     -39.026  15.903  22.556  0.00  0.00     0.181 C 
ENDBRANCH  17  20
ENDBRANCH   2  14
TORSDOF 4
ENDMDL
MODEL 3
REMARK VINA RESULT:      -5.6      8.924     10.204
REMARK  4 active torsions:
REMARK  status: ('A' for Active; 'I' for Inactive)
REMARK    1  A    between atoms: C_5  and  N_1 
REMARK    2  A    between atoms: C_6  and  C_5 
REMARK       I    between atoms: N_9  and  C_6 
REMARK    3  A    between atoms: C_13  and  N_9 
REMARK    4  A    between atoms: O_19  and  C_14 
ROOT
ATOM      1  C   UNL d   1     -39.923  14.623  18.604  0.00  0.00     0.297 C 
ATOM      2  N   UNL d   1     -40.519  14.601  19.174  0.00  0.00    -0.207 NA
ATOM      3  O   UNL d   1     -39.181  14.928  18.795  0.00  0.00    -0.264 OA
ENDROOT
BRANCH   1   4
ATOM      4  C   UNL d   1     -40.067  14.340  17.847  0.00  0.00     0.148 C 
BRANCH   4   5
ATOM      5  N   UNL d   1     -39.447  14.270  17.306  0.00  0.00    -0.235 N 
ATOM      6  C   UNL d   1     -39.246  14.918  16.822  0.00  0.00     0.273 A 
ATOM      7  C   UNL d   1     -38.627  14.848  16.282  0.00  0.00     0.086 A 
ATOM      8  O   UNL d   1     -39.671  15.629  16.887  0.00  0.00    -0.266 OA
ATOM      9  C   UNL d   1     -38.421  15.487  15.798  0.00  0.00     0.012 C 
ATOM     10  S   UNL d   1     -38.208  14.130  16.225  0.00  0.00    -0.077 SA
ATOM     11  C   UNL d   1     -38.412  13.499  16.704  0.00  0.00     0.097 A 
ATOM     12  C   UNL d   1     -39.031  13.569  17.244  0.00  0.00     0.274 A 
ATOM     13  O   UNL d   1     -39.239  12.922  17.734  0.00  0.00    -0.266 OA
ENDBRANCH   4   5
ENDBRANCH   1   4
BRANCH   2  14
ATOM     14  C   UNL d   1     -40.372  14.886  19.934  0.00  0.00     0.085 A 
ATOM     15  C   UNL d   1     -40.620  15.634  20.145  0.00  0.00     0.021 A 
ATOM     16  C   UNL d   1     -40.481  15.922  20.889  0.00  0.00     0.026 A 
ATOM     17  C   UNL d   1     -40.079  15.448  21.445  0.00  0.00     0.094 A 
ATOM     18  C   UNL d   1     -39.831  14.700  21.235  0.00  0.00     0.026 A 
ATOM     19  C   UNL d   1     -39.981  14.417  20.466  0.00  0.00     0.021 A 
BRANCH  17  20
ATOM     20  O   UNL d   1     -39.935  15.746  22.214  0.00  0.00    -0.328 OA
ATOM     21  C   UNL d   1     -39.166  15.795  22.509  0.00  0.00     0.181 C 
ENDBRANCH  17  20
ENDBRANCH   2  14
TORSDOF 4
ENDMDL
MODEL 4
REMARK VINA RESULT:      -5.3      8.679     10.016
REMARK  4 active torsions:
REMARK  status: ('A' for Active; 'I' for Inactive)
REMARK    1  A    between atoms: C_5  and  N_1 
REMARK    2  A    between atoms: C_6  and  C_5 
REMARK       I    between atoms: N_9  and  C_6 
REMARK    3  A    between atoms: C_13  and  N_9 
REMARK    4  A    between atoms: O_19  and  C_14 
ROOT
ATOM      1  C   UNL d   1     -39.880  14.392  18.927  0.00  0.00     0.297 C 
ATOM      2  N   UNL d   1     -40.075  13.995  18.231  0.00  0.00    -0.207 NA
ATOM      3  O   UNL d   1     -39.182  14.830  18.970  0.00  0.00    -0.264 OA
ENDROOT
BRANCH   1   4
ATOM      4  C   UNL d   1     -40.378  14.352  19.578  0.00  0.00     0.148 C 
BRANCH   4   5
ATOM      5  N   UNL d   1     -40.188  14.757  20.271  0.00  0.00    -0.235 N 
ATOM      6  C   UNL d   1     -39.712  14.389  20.847  0.00  0.00     0.273 A 
ATOM      7  C   UNL d   1     -39.521  14.794  21.541  0.00  0.00     0.086 A 
ATOM      8  O   UNL d   1     -39.432  13.617  20.719  0.00  0.00    -0.266 OA
ATOM      9  C   UNL d   1     -39.049  14.435  22.117  0.00  0.00     0.012 C 
ATOM     10  S   UNL d   1     -39.808  15.568  21.658  0.00  0.00    -0.077 SA
ATOM     11  C   UNL d   1     -40.275  15.922  21.088  0.00  0.00     0.097 A 
ATOM     12  C   UNL d   1     -40.465  15.517  20.395  0.00  0.00     0.274 A 
ATOM     13  O   UNL d   1     -40.944  15.880  19.811  0.00  0.00    -0.266 OA
ENDBRANCH   4   5
ENDBRANCH   1   4
BRANCH   2  14
ATOM     14  C   UNL d   1     -39.572  14.038  17.578  0.00  0.00     0.085 A 
ATOM     15  C   UNL d   1     -39.005  13.463  17.463  0.00  0.00     0.021 A 
ATOM     16  C   UNL d   1     -38.507  13.496  16.825  0.00  0.00     0.026 A 
ATOM     17  C   UNL d   1     -38.575  14.123  16.281  0.00  0.00     0.094 A 
ATOM     18  C   UNL d   1     -39.143  14.698  16.395  0.00  0.00     0.026 A 
ATOM     19  C   UNL d   1     -39.648  14.652  17.056  0.00  0.00     0.021 A 
BRANCH  17  20
ATOM     20  O   UNL d   1     -38.060  14.157  15.621  0.00  0.00    -0.328 OA
ATOM     21  C   UNL d   1     -38.056  13.553  15.060  0.00  0.00     0.181 C 
ENDBRANCH  17  20
ENDBRANCH   2  14
TORSDOF 4
ENDMDL
MODEL 5
REMARK VINA RESULT:      -5.2      9.475     10.135
REMARK  4 active torsions:
REMARK  status: ('A' for Active; 'I' for Inactive)
REMARK    1  A    between atoms: C_5  and  N_1 
REMARK    2  A    between atoms: C_6  and  C_5 
REMARK       I    between atoms: N_9  and  C_6 
REMARK    3  A    between atoms: C_13  and  N_9 
REMARK    4  A    between atoms: O_19  and  C_14 
ROOT
ATOM      1  C   UNL d   1     -38.932  14.748  19.837  0.00  0.00     0.297 C 
ATOM      2  N   UNL d   1     -38.832  15.107  19.101  0.00  0.00    -0.207 NA
ATOM      3  O   UNL d   1     -39.656  14.405  20.033  0.00  0.00    -0.264 OA
ENDROOT
BRANCH   1   4
ATOM      4  C   UNL d   1     -38.312  14.732  20.376  0.00  0.00     0.148 C 
BRANCH   4   5
ATOM      5  N   UNL d   1     -38.454  14.532  21.164  0.00  0.00    -0.235 N 
ATOM      6  C   UNL d   1     -38.632  15.130  21.716  0.00  0.00     0.273 A 
ATOM      7  C   UNL d   1     -38.773  14.930  22.504  0.00  0.00     0.086 A 
ATOM      8  O   UNL d   1     -38.665  15.922  21.469  0.00  0.00    -0.266 OA
ATOM      9  C   UNL d   1     -38.950  15.519  23.058  0.00  0.00     0.012 C 
ATOM     10  S   UNL d   1     -38.736  14.132  22.740  0.00  0.00    -0.077 SA
ATOM     11  C   UNL d   1     -38.561  13.551  22.192  0.00  0.00     0.097 A 
ATOM     12  C   UNL d   1     -38.419  13.751  21.404  0.00  0.00     0.274 A 
ATOM     13  O   UNL d   1     -38.240  13.155  20.843  0.00  0.00    -0.266 OA
ENDBRANCH   4   5
ENDBRANCH   1   4
BRANCH   2  14
ATOM     14  C   UNL d   1     -39.456  15.123  18.562  0.00  0.00     0.085 A 
ATOM     15  C   UNL d   1     -39.543  14.517  18.022  0.00  0.00     0.021 A 
ATOM     16  C   UNL d   1     -40.153  14.524  17.489  0.00  0.00     0.026 A 
ATOM     17  C   UNL d   1     -40.696  15.156  17.492  0.00  0.00     0.094 A 
ATOM     18  C   UNL d   1     -40.609  15.762  18.032  0.00  0.00     0.026 A 
ATOM     19  C   UNL d   1     -39.977  15.742  18.574  0.00  0.00     0.021 A 
BRANCH  17  20
ATOM     20  O   UNL d   1     -41.326  15.162  16.941  0.00  0.00    -0.328 OA
ATOM     21  C   UNL d   1     -41.552  15.863  16.568  0.00  0.00     0.181 C 
ENDBRANCH  17  20
ENDBRANCH   2  14
TORSDOF 4
ENDMDL
