MODEL 1
REMARK VINA RESULT:      -2.5      0.000      0.000
REMARK  4 active torsions:
REMARK  status: ('A' for Active; 'I' for Inactive)
REMARK    1  A    between atoms: C_2  and  S_1 
REMARK    2  A    between atoms: N_9  and  S_1 
REMARK    3  A    between atoms: C_18  and  N_9 
REMARK    4  A    between atoms: C_19  and  N_9 
ROOT
ATOM      1  C   UNL d   1      30.602  16.321 -23.862  0.00  0.00     0.104 A 
ATOM      2  C   UNL d   1      32.796  17.825 -24.581  0.00  0.00     0.225 A 
ATOM      3  S   UNL d   1      32.958  16.942 -23.966  0.00  0.00    -0.046 SA
ATOM      4  C   UNL d   1      31.688  17.159 -24.281  0.00  0.00     0.010 A 
ATOM      5  C   UNL d   1      32.218  16.645 -23.865  0.00  0.00     0.033 A 
ATOM      6  C   UNL d   1      30.880  17.001 -24.283  0.00  0.00     0.013 A 
ATOM      7  C   UNL d   1      31.978  17.810 -24.680  0.00  0.00     0.046 A 
ATOM      8  C   UNL d   1      31.109  15.829 -23.464  0.00  0.00     0.013 A 
ATOM      9  C   UNL d   1      31.917  15.995 -23.468  0.00  0.00     0.007 A 
ATOM     10  O   UNL d   1      33.202  18.456 -24.951  0.00  0.00    -0.279 OA
ATOM     11  C   UNL d   1      30.351  17.515 -24.699  0.00  0.00     0.001 A 
ATOM     12  C   UNL d   1      31.448  18.324 -25.096  0.00  0.00     0.004 A 
ATOM     13  C   UNL d   1      30.651  18.166 -25.096  0.00  0.00     0.000 A 
ENDROOT
BRANCH   1  14
ATOM     14  S   UNL d   1      29.777  16.144 -23.853  0.00  0.00     0.271 S 
ATOM     15  O   UNL d   1      29.910  15.645 -24.500  0.00  0.00    -0.200 OA
ATOM     16  O   UNL d   1      29.665  16.665 -23.184  0.00  0.00    -0.200 OA
BRANCH  14  17
ATOM     17  N   UNL d   1      28.945  15.972 -23.834  0.00  0.00    -0.229 N 
BRANCH  17  18
ATOM     18  C   UNL d   1      28.675  15.453 -24.424  0.00  0.00     0.092 C 
ATOM     19  C   UNL d   1      28.022  15.593 -24.886  0.00  0.00     0.021 C 
ENDBRANCH  17  18
BRANCH  17  20
ATOM     20  C   UNL d   1      28.447  16.293 -23.278  0.00  0.00     0.092 C 
ATOM     21  C   UNL d   1      27.843  15.829 -22.948  0.00  0.00     0.021 C 
ENDBRANCH  17  20
ENDBRANCH  14  17
ENDBRANCH   1  14
TORSDOF 4
ENDMDL
MODEL 2
REMARK VINA RESULT:      -2.0      1.895      3.730
REMARK  4 active torsions:
REMARK  status: ('A' for Active; 'I' for Inactive)
REMARK    1  A    between atoms: C_2  and  S_1 
REMARK    2  A    between atoms: N_9  and  S_1 
REMARK    3  A    between atoms: C_18  and  N_9 
REMARK    4  A    between atoms: C_19  and  N_9 
ROOT
ATOM      1  C   UNL d   1      32.475  17.721 -24.065  0.00  0.00     0.104 A 
ATOM      2  C   UNL d   1      30.690  15.818 -24.953  0.00  0.00     0.225 A 
ATOM      3  S   UNL d   1      31.753  15.633 -25.097  0.00  0.00    -0.046 SA
ATOM      4  C   UNL d   1      31.479  16.783 -24.497  0.00  0.00     0.010 A 
ATOM      5  C   UNL d   1      32.102  16.284 -24.781  0.00  0.00     0.033 A 
ATOM      6  C   UNL d   1      31.660  17.502 -24.138  0.00  0.00     0.013 A 
ATOM      7  C   UNL d   1      30.700  16.553 -24.578  0.00  0.00     0.046 A 
ATOM      8  C   UNL d   1      33.072  17.242 -24.337  0.00  0.00     0.013 A 
ATOM      9  C   UNL d   1      32.880  16.524 -24.694  0.00  0.00     0.007 A 
ATOM     10  O   UNL d   1      29.936  15.482 -25.089  0.00  0.00    -0.279 OA
ATOM     11  C   UNL d   1      31.038  18.001 -23.855  0.00  0.00     0.001 A 
ATOM     12  C   UNL d   1      30.077  17.052 -24.294  0.00  0.00     0.004 A 
ATOM     13  C   UNL d   1      30.258  17.761 -23.941  0.00  0.00     0.000 A 
ENDROOT
BRANCH   1  14
ATOM     14  S   UNL d   1      32.679  18.453 -23.700  0.00  0.00     0.271 S 
ATOM     15  O   UNL d   1      32.572  18.813 -24.438  0.00  0.00    -0.200 OA
ATOM     16  O   UNL d   1      32.785  18.059 -22.949  0.00  0.00    -0.200 OA
BRANCH  14  17
ATOM     17  N   UNL d   1      32.887  19.186 -23.323  0.00  0.00    -0.229 N 
BRANCH  17  18
ATOM     18  C   UNL d   1      32.724  19.872 -23.763  0.00  0.00     0.092 C 
ATOM     19  C   UNL d   1      33.202  20.528 -23.770  0.00  0.00     0.021 C 
ENDBRANCH  17  18
BRANCH  17  20
ATOM     20  C   UNL d   1      33.222  19.214 -22.583  0.00  0.00     0.092 C 
ATOM     21  C   UNL d   1      32.977  19.793 -22.041  0.00  0.00     0.021 C 
ENDBRANCH  17  20
ENDBRANCH  14  17
ENDBRANCH   1  14
TORSDOF 4
ENDMDL
MODEL 3
REMARK VINA RESULT:      -1.8      2.138      3.117
REMARK  4 active torsions:
REMARK  status: ('A' for Active; 'I' for Inactive)
REMARK    1  A    between atoms: C_2  and  S_1 
REMARK    2  A    between atoms: N_9  and  S_1 
REMARK    3  A    between atoms: C_18  and  N_9 
REMARK    4  A    between atoms: C_19  and  N_9 
ROOT
ATOM      1  C   UNL d   1      32.596  18.087 -23.254  0.00  0.00     0.104 A 
ATOM      2  C   UNL d   1      33.153  20.775 -23.502  0.00  0.00     0.225 A 
ATOM      3  S   UNL d   1      33.238  20.320 -22.516  0.00  0.00    -0.046 SA
ATOM      4  C   UNL d   1      32.868  19.478 -23.471  0.00  0.00     0.010 A 
ATOM      5  C   UNL d   1      33.041  19.552 -22.646  0.00  0.00     0.033 A 
ATOM      6  C   UNL d   1      32.645  18.748 -23.780  0.00  0.00     0.013 A 
ATOM      7  C   UNL d   1      32.921  20.129 -23.961  0.00  0.00     0.046 A 
ATOM      8  C   UNL d   1      32.762  18.158 -22.463  0.00  0.00     0.013 A 
ATOM      9  C   UNL d   1      32.984  18.893 -22.162  0.00  0.00     0.007 A 
ATOM     10  O   UNL d   1      33.241  21.502 -23.904  0.00  0.00    -0.279 OA
ATOM     11  C   UNL d   1      32.472  18.675 -24.606  0.00  0.00     0.001 A 
ATOM     12  C   UNL d   1      32.749  20.056 -24.787  0.00  0.00     0.004 A 
ATOM     13  C   UNL d   1      32.529  19.334 -25.090  0.00  0.00     0.000 A 
ENDROOT
BRANCH   1  14
ATOM     14  S   UNL d   1      32.370  17.331 -23.553  0.00  0.00     0.271 S 
ATOM     15  O   UNL d   1      33.172  17.126 -23.551  0.00  0.00    -0.200 OA
ATOM     16  O   UNL d   1      31.547  17.566 -23.545  0.00  0.00    -0.200 OA
BRANCH  14  17
ATOM     17  N   UNL d   1      32.131  16.573 -23.853  0.00  0.00    -0.229 N 
BRANCH  17  18
ATOM     18  C   UNL d   1      32.750  16.068 -24.080  0.00  0.00     0.092 C 
ATOM     19  C   UNL d   1      32.697  15.531 -24.687  0.00  0.00     0.021 C 
ENDBRANCH  17  18
BRANCH  17  20
ATOM     20  C   UNL d   1      31.350  16.356 -23.915  0.00  0.00     0.092 C 
ATOM     21  C   UNL d   1      31.063  15.714 -23.473  0.00  0.00     0.021 C 
ENDBRANCH  17  20
ENDBRANCH  14  17
ENDBRANCH   1  14
TORSDOF 4
ENDMDL
MODEL 4
REMARK VINA RESULT:      -0.5      5.308      6.486
REMARK  4 active torsions:
REMARK  status: ('A' for Active; 'I' for Inactive)
REMARK    1  A    between atoms: C_2  and  S_1 
REMARK    2  A    between atoms: N_9  and  S_1 
REMARK    3  A    between atoms: C_18  and  N_9 
REMARK    4  A    between atoms: C_19  and  N_9 
ROOT
ATOM      1  C   UNL d   1      32.696  21.607 -21.954  0.00  0.00     0.104 A 
ATOM      2  C   UNL d   1      32.660  23.221 -19.720  0.00  0.00     0.225 A 
ATOM      3  S   UNL d   1      32.358  23.654 -20.672  0.00  0.00    -0.046 SA
ATOM      4  C   UNL d   1      32.706  22.376 -20.744  0.00  0.00     0.010 A 
ATOM      5  C   UNL d   1      32.433  23.043 -21.189  0.00  0.00     0.033 A 
ATOM      6  C   UNL d   1      32.839  21.657 -21.122  0.00  0.00     0.013 A 
ATOM      7  C   UNL d   1      32.838  22.446 -19.941  0.00  0.00     0.046 A 
ATOM      8  C   UNL d   1      32.434  22.246 -22.381  0.00  0.00     0.013 A 
ATOM      9  C   UNL d   1      32.304  22.963 -21.994  0.00  0.00     0.007 A 
ATOM     10  O   UNL d   1      32.759  23.407 -18.911  0.00  0.00    -0.279 OA
ATOM     11  C   UNL d   1      33.112  20.990 -20.676  0.00  0.00     0.001 A 
ATOM     12  C   UNL d   1      33.111  21.779 -19.495  0.00  0.00     0.004 A 
ATOM     13  C   UNL d   1      33.241  21.070 -19.870  0.00  0.00     0.000 A 
ENDROOT
BRANCH   1  14
ATOM     14  S   UNL d   1      32.826  20.879 -22.359  0.00  0.00     0.271 S 
ATOM     15  O   UNL d   1      33.241  21.308 -22.932  0.00  0.00    -0.200 OA
ATOM     16  O   UNL d   1      32.393  20.457 -21.753  0.00  0.00    -0.200 OA
BRANCH  14  17
ATOM     17  N   UNL d   1      32.952  20.139 -22.758  0.00  0.00    -0.229 N 
BRANCH  17  18
ATOM     18  C   UNL d   1      33.197  20.198 -23.549  0.00  0.00     0.092 C 
ATOM     19  C   UNL d   1      33.240  19.566 -24.058  0.00  0.00     0.021 C 
ENDBRANCH  17  18
BRANCH  17  20
ATOM     20  C   UNL d   1      32.839  19.422 -22.390  0.00  0.00     0.092 C 
ATOM     21  C   UNL d   1      32.840  18.724 -22.839  0.00  0.00     0.021 C 
ENDBRANCH  17  20
ENDBRANCH  14  17
ENDBRANCH   1  14
TORSDOF 4
ENDMDL
MODEL 5
REMARK VINA RESULT:       0.5      6.701      7.763
REMARK  4 active torsions:
REMARK  status: ('A' for Active; 'I' for Inactive)
REMARK    1  A    between atoms: C_2  and  S_1 
REMARK    2  A    between atoms: N_9  and  S_1 
REMARK    3  A    between atoms: C_18  and  N_9 
REMARK    4  A    between atoms: C_19  and  N_9 
ROOT
ATOM      1  C   UNL d   1      32.755  22.915 -20.271  0.00  0.00     0.104 A 
ATOM      2  C   UNL d   1      33.063  21.391 -22.547  0.00  0.00     0.225 A 
ATOM      3  S   UNL d   1      32.834  22.449 -22.663  0.00  0.00    -0.046 SA
ATOM      4  C   UNL d   1      32.931  22.051 -21.402  0.00  0.00     0.010 A 
ATOM      5  C   UNL d   1      32.783  22.715 -21.906  0.00  0.00     0.033 A 
ATOM      6  C   UNL d   1      32.918  22.146 -20.584  0.00  0.00     0.013 A 
ATOM      7  C   UNL d   1      33.087  21.317 -21.725  0.00  0.00     0.046 A 
ATOM      8  C   UNL d   1      32.613  23.551 -20.754  0.00  0.00     0.013 A 
ATOM      9  C   UNL d   1      32.628  23.447 -21.572  0.00  0.00     0.007 A 
ATOM     10  O   UNL d   1      33.210  20.695 -22.985  0.00  0.00    -0.279 OA
ATOM     11  C   UNL d   1      33.066  21.481 -20.080  0.00  0.00     0.001 A 
ATOM     12  C   UNL d   1      33.235  20.653 -21.221  0.00  0.00     0.004 A 
ATOM     13  C   UNL d   1      33.221  20.749 -20.414  0.00  0.00     0.000 A 
ENDROOT
BRANCH   1  14
ATOM     14  S   UNL d   1      32.737  23.031 -19.435  0.00  0.00     0.271 S 
ATOM     15  O   UNL d   1      33.241  22.378 -19.366  0.00  0.00    -0.200 OA
ATOM     16  O   UNL d   1      32.216  23.702 -19.532  0.00  0.00    -0.200 OA
BRANCH  14  17
ATOM     17  N   UNL d   1      32.712  23.157 -18.595  0.00  0.00    -0.229 N 
BRANCH  17  18
ATOM     18  C   UNL d   1      32.125  22.732 -18.189  0.00  0.00     0.092 C 
ATOM     19  C   UNL d   1      31.829  22.951 -17.464  0.00  0.00     0.021 C 
ENDBRANCH  17  18
BRANCH  17  20
ATOM     20  C   UNL d   1      33.228  23.658 -18.215  0.00  0.00     0.092 C 
ATOM     21  C   UNL d   1      33.239  23.687 -17.386  0.00  0.00     0.021 C 
ENDBRANCH  17  20
ENDBRANCH  14  17
ENDBRANCH   1  14
TORSDOF 4
ENDMDL
MODEL 6
REMARK VINA RESULT:       0.5      3.130      4.727
REMARK  4 active torsions:
REMARK  status: ('A' for Active; 'I' for Inactive)
REMARK    1  A    between atoms: C_2  and  S_1 
REMARK    2  A    between atoms: N_9  and  S_1 
REMARK    3  A    between atoms: C_18  and  N_9 
REMARK    4  A    between atoms: C_19  and  N_9 
ROOT
ATOM      1  C   UNL d   1      32.653  19.605 -23.304  0.00  0.00     0.104 A 
ATOM      2  C   UNL d   1      32.808  17.019 -24.245  0.00  0.00     0.225 A 
ATOM      3  S   UNL d   1      32.499  17.801 -24.937  0.00  0.00    -0.046 SA
ATOM      4  C   UNL d   1      32.760  18.234 -23.711  0.00  0.00     0.010 A 
ATOM      5  C   UNL d   1      32.515  18.467 -24.488  0.00  0.00     0.033 A 
ATOM      6  C   UNL d   1      32.831  18.799 -23.117  0.00  0.00     0.013 A 
ATOM      7  C   UNL d   1      32.926  17.451 -23.552  0.00  0.00     0.046 A 
ATOM      8  C   UNL d   1      32.418  19.829 -24.048  0.00  0.00     0.013 A 
ATOM      9  C   UNL d   1      32.350  19.256 -24.638  0.00  0.00     0.007 A 
ATOM     10  O   UNL d   1      32.950  16.197 -24.198  0.00  0.00    -0.279 OA
ATOM     11  C   UNL d   1      33.076  18.566 -22.340  0.00  0.00     0.001 A 
ATOM     12  C   UNL d   1      33.172  17.217 -22.775  0.00  0.00     0.004 A 
ATOM     13  C   UNL d   1      33.241  17.777 -22.190  0.00  0.00     0.000 A 
ENDROOT
BRANCH   1  14
ATOM     14  S   UNL d   1      32.720  20.198 -22.708  0.00  0.00     0.271 S 
ATOM     15  O   UNL d   1      32.231  19.728 -22.232  0.00  0.00    -0.200 OA
ATOM     16  O   UNL d   1      33.224  20.665 -23.217  0.00  0.00    -0.200 OA
BRANCH  14  17
ATOM     17  N   UNL d   1      32.794  20.801 -22.114  0.00  0.00    -0.229 N 
BRANCH  17  18
ATOM     18  C   UNL d   1      32.380  20.659 -21.408  0.00  0.00     0.092 C 
ATOM     19  C   UNL d   1      32.248  21.223 -20.839  0.00  0.00     0.021 C 
ENDBRANCH  17  18
BRANCH  17  20
ATOM     20  C   UNL d   1      33.240  21.471 -22.228  0.00  0.00     0.092 C 
ATOM     21  C   UNL d   1      33.135  22.127 -21.729  0.00  0.00     0.021 C 
ENDBRANCH  17  20
ENDBRANCH  14  17
ENDBRANCH   1  14
TORSDOF 4
ENDMDL
