MODEL 1
REMARK VINA RESULT:      -4.8      0.000      0.000
REMARK  3 active torsions:
REMARK  status: ('A' for Active; 'I' for Inactive)
REMARK    1  A    between atoms: C_5  and  N_1 
REMARK    2  A    between atoms: C_4  and  C_5 
REMARK       I    between atoms: N_8  and  C_4 
REMARK    3  A    between atoms: C_13  and  N_8 
ROOT
ATOM      1  C   UNL d   1      58.208   0.176  30.447  0.00  0.00     0.297 C 
ATOM      2  N   UNL d   1      57.395   0.226  30.525  0.00  0.00    -0.207 NA
ATOM      3  O   UNL d   1      58.684  -0.032  31.090  0.00  0.00    -0.264 OA
ENDROOT
BRANCH   1   4
ATOM      4  C   UNL d   1      58.558   0.333  29.716  0.00  0.00     0.148 C 
BRANCH   4   5
ATOM      5  N   UNL d   1      59.193  -0.129  29.457  0.00  0.00    -0.235 N 
ATOM      6  C   UNL d   1      59.056  -0.771  28.948  0.00  0.00     0.274 A 
ATOM      7  O   UNL d   1      58.283  -0.946  28.703  0.00  0.00    -0.266 OA
ATOM      8  C   UNL d   1      59.684  -1.227  28.692  0.00  0.00     0.097 A 
ATOM      9  S   UNL d   1      60.452  -1.061  28.930  0.00  0.00    -0.076 SA
ATOM     10  C   UNL d   1      60.592  -0.426  29.434  0.00  0.00     0.097 A 
ATOM     11  C   UNL d   1      59.968   0.045  29.702  0.00  0.00     0.274 A 
ATOM     12  O   UNL d   1      60.106   0.682  30.207  0.00  0.00    -0.266 OA
ENDBRANCH   4   5
ENDBRANCH   1   4
BRANCH   2  13
ATOM     13  C   UNL d   1      57.046   0.069  31.256  0.00  0.00     0.087 A 
ATOM     14  C   UNL d   1      56.789  -0.695  31.433  0.00  0.00     0.045 A 
ATOM     15  C   UNL d   1      56.441  -0.861  32.155  0.00  0.00     0.121 A 
ATOM     16  O   UNL d   1      56.135  -1.560  32.483  0.00  0.00    -0.299 OA
ATOM     17  C   UNL d   1      56.344  -0.260  32.713  0.00  0.00     0.119 A 
ATOM     18  C   UNL d   1      55.852  -1.382  33.243  0.00  0.00     0.304 A 
ATOM     19  O   UNL d   1      55.985  -0.583  33.375  0.00  0.00    -0.300 OA
ATOM     20  C   UNL d   1      56.605   0.507  32.529  0.00  0.00     0.028 A 
ATOM     21  C   UNL d   1      56.954   0.669  31.804  0.00  0.00     0.021 A 
ENDBRANCH   2  13
TORSDOF 3
ENDMDL
MODEL 2
REMARK VINA RESULT:      -2.4      1.891      4.207
REMARK  3 active torsions:
REMARK  status: ('A' for Active; 'I' for Inactive)
REMARK    1  A    between atoms: C_5  and  N_1 
REMARK    2  A    between atoms: C_4  and  C_5 
REMARK       I    between atoms: N_8  and  C_4 
REMARK    3  A    between atoms: C_13  and  N_8 
ROOT
ATOM      1  C   UNL d   1      58.106   0.017  30.684  0.00  0.00     0.297 C 
ATOM      2  N   UNL d   1      58.480   0.101  29.961  0.00  0.00    -0.207 NA
ATOM      3  O   UNL d   1      58.032  -0.726  31.040  0.00  0.00    -0.264 OA
ENDROOT
BRANCH   1   4
ATOM      4  C   UNL d   1      57.799   0.682  31.064  0.00  0.00     0.148 C 
BRANCH   4   5
ATOM      5  N   UNL d   1      57.441   0.602  31.805  0.00  0.00    -0.235 N 
ATOM      6  C   UNL d   1      56.616   0.522  31.857  0.00  0.00     0.274 A 
ATOM      7  O   UNL d   1      56.155   0.522  31.167  0.00  0.00    -0.266 OA
ATOM      8  C   UNL d   1      56.261   0.443  32.590  0.00  0.00     0.097 A 
ATOM      9  S   UNL d   1      56.709   0.442  33.278  0.00  0.00    -0.076 SA
ATOM     10  C   UNL d   1      57.526   0.521  33.231  0.00  0.00     0.097 A 
ATOM     11  C   UNL d   1      57.899   0.602  32.498  0.00  0.00     0.274 A 
ATOM     12  O   UNL d   1      58.718   0.681  32.447  0.00  0.00    -0.266 OA
ENDBRANCH   4   5
ENDBRANCH   1   4
BRANCH   2  13
ATOM     13  C   UNL d   1      58.787  -0.563  29.581  0.00  0.00     0.087 A 
ATOM     14  C   UNL d   1      59.600  -0.697  29.580  0.00  0.00     0.045 A 
ATOM     15  C   UNL d   1      59.915  -1.354  29.205  0.00  0.00     0.121 A 
ATOM     16  O   UNL d   1      60.693  -1.629  29.113  0.00  0.00    -0.299 OA
ATOM     17  C   UNL d   1      59.414  -1.889  28.824  0.00  0.00     0.119 A 
ATOM     18  C   UNL d   1      60.664  -2.333  28.675  0.00  0.00     0.304 A 
ATOM     19  O   UNL d   1      59.876  -2.484  28.502  0.00  0.00    -0.300 OA
ATOM     20  C   UNL d   1      58.596  -1.749  28.829  0.00  0.00     0.028 A 
ATOM     21  C   UNL d   1      58.285  -1.089  29.206  0.00  0.00     0.021 A 
ENDBRANCH   2  13
TORSDOF 3
ENDMDL
