MODEL 1
REMARK VINA RESULT:      84.7      0.000      0.000
REMARK  5 active torsions:
REMARK  status: ('A' for Active; 'I' for Inactive)
REMARK    1  A    between atoms: C_22  and  N_10 
REMARK    2  A    between atoms: C_19  and  N_13 
REMARK    3  A    between atoms: N_14  and  C_26 
REMARK    4  A    between atoms: C_25  and  C_22 
REMARK    5  A    between atoms: C_26  and  C_25 
ROOT
ATOM      1  C   UNL d   1      58.065  49.584  51.204  0.00  0.00     0.173 A 
ATOM      2  C   UNL d   1      58.512  49.627  50.539  0.00  0.00     0.191 A 
ATOM      3  C   UNL d   1      59.702  49.634  51.316  0.00  0.00     0.722 A 
ATOM      4  N   UNL d   1      59.252  49.590  52.006  0.00  0.00    -0.131 N 
ATOM      5  N   UNL d   1      59.332  49.652  50.583  0.00  0.00    -0.042 NA
ATOM      6  N   UNL d   1      58.157  49.646  49.802  0.00  0.00    -0.240 N 
ATOM      7  N   UNL d   1      56.868  49.575  50.478  0.00  0.00    -0.223 N 
ATOM      8  C   UNL d   1      57.331  49.620  49.769  0.00  0.00     0.343 A 
ATOM      9  C   UNL d   1      57.244  49.557  51.203  0.00  0.00     0.288 A 
ATOM     10  N   UNL d   1      60.528  49.659  51.363  0.00  0.00    -0.139 N 
ATOM     11  C   UNL d   1      60.451  49.597  52.788  0.00  0.00     0.116 A 
ATOM     12  C   UNL d   1      60.901  49.641  52.098  0.00  0.00     0.100 A 
ATOM     13  O   UNL d   1      56.977  49.641  48.991  0.00  0.00    -0.245 OA
ATOM     14  O   UNL d   1      56.795  49.513  51.892  0.00  0.00    -0.265 OA
ATOM     15  C   UNL d   1      58.608  49.690  49.112  0.00  0.00     0.105 C 
ATOM     16  C   UNL d   1      56.055  49.549  50.440  0.00  0.00     0.107 C 
ATOM     17  C   UNL d   1      61.730  49.667  52.121  0.00  0.00     0.021 C 
ENDROOT
BRANCH  10  18
ATOM     18  C   UNL d   1      60.981  49.703  50.676  0.00  0.00     0.100 C 
BRANCH  18  19
ATOM     19  C   UNL d   1      61.070  49.038  50.188  0.00  0.00     0.039 C 
BRANCH  19  20
ATOM     20  C   UNL d   1      61.720  48.556  50.269  0.00  0.00     0.082 C 
BRANCH  20  21
ATOM     21  N   UNL d   1      61.656  47.749  50.124  0.00  0.00    -0.300 N 
ATOM     22  C   UNL d   1      62.109  47.405  49.526  0.00  0.00     0.100 A 
ATOM     23  C   UNL d   1      62.043  46.601  49.384  0.00  0.00     0.100 A 
ATOM     24  N   UNL d   1      61.532  46.143  49.833  0.00  0.00    -0.301 N 
ATOM     25  C   UNL d   1      61.087  46.491  50.425  0.00  0.00     0.100 A 
ATOM     26  C   UNL d   1      61.146  47.301  50.575  0.00  0.00     0.100 A 
BRANCH  24  27
ATOM     27  C   UNL d   1      61.468  45.337  49.689  0.00  0.00     0.064 A 
ATOM     28  C   UNL d   1      61.724  44.797  50.246  0.00  0.00     0.018 A 
ATOM     29  C   UNL d   1      61.663  43.994  50.109  0.00  0.00     0.002 A 
ATOM     30  C   UNL d   1      61.338  43.728  49.397  0.00  0.00     0.000 A 
ATOM     31  C   UNL d   1      61.078  44.274  48.830  0.00  0.00     0.002 A 
ATOM     32  C   UNL d   1      61.143  45.071  48.977  0.00  0.00     0.018 A 
ENDBRANCH  24  27
ENDBRANCH  20  21
ENDBRANCH  19  20
ENDBRANCH  18  19
ENDBRANCH  10  18
TORSDOF 5
ENDMDL
