MODEL 1
REMARK VINA RESULT:      99.5      0.000      0.000
REMARK  10 active torsions:
REMARK  status: ('A' for Active; 'I' for Inactive)
REMARK    1  A    between atoms: C_15  and  C_3 
REMARK       I    between atoms: C_8  and  N_7 
REMARK    2  A    between atoms: O_29  and  C_8 
REMARK       I    between atoms: N_9  and  C_11 
REMARK    3  A    between atoms: S_17  and  C_10 
REMARK    4  A    between atoms: C_11  and  C_23 
REMARK       I    between atoms: C_13  and  N_26 
REMARK    5  A    between atoms: C_16  and  C_13 
REMARK    6  A    between atoms: C_30  and  C_15 
REMARK    7  A    between atoms: C_23  and  S_17 
REMARK    8  A    between atoms: N_26  and  C_30 
REMARK    9  A    between atoms: C_35  and  O_29 
REMARK   10  A    between atoms: O_34  and  C_31 
ROOT
ATOM      1  N   UNL d   1     -56.891 -99.876 -44.263  0.00  0.00    -0.191 N 
ATOM      2  C   UNL d   1     -56.881-100.450 -44.864  0.00  0.00     0.187 A 
ATOM      3  C   UNL d   1     -57.657 -99.568 -44.213  0.00  0.00     0.188 A 
ATOM      4  N   UNL d   1     -56.202 -99.710 -43.841  0.00  0.00    -0.156 NA
ATOM      5  N   UNL d   1     -57.644-100.490 -45.181  0.00  0.00    -0.127 NA
ATOM      6  N   UNL d   1     -58.123 -99.951 -44.784  0.00  0.00    -0.127 NA
ATOM      7  C   UNL d   1     -55.501-100.117 -44.019  0.00  0.00     0.131 A 
ATOM      8  C   UNL d   1     -56.185-100.847 -45.034  0.00  0.00     0.043 A 
ATOM      9  C   UNL d   1     -55.492-100.685 -44.615  0.00  0.00     0.031 A 
ENDROOT
BRANCH   7  10
ATOM     10  S   UNL d   1     -54.809 -99.947 -43.591  0.00  0.00    -0.061 SA
BRANCH  10  11
ATOM     11  C   UNL d   1     -54.735-100.208 -42.804  0.00  0.00     0.098 C 
BRANCH  11  12
ATOM     12  C   UNL d   1     -54.735-101.024 -42.643  0.00  0.00     0.272 C 
ATOM     13  N   UNL d   1     -54.733-101.275 -41.863  0.00  0.00    -0.269 N 
ATOM     14  C   UNL d   1     -54.731-100.720 -41.263  0.00  0.00     0.102 A 
ATOM     15  C   UNL d   1     -54.732-102.077 -41.688  0.00  0.00     0.102 A 
ATOM     16  C   UNL d   1     -54.728-100.985 -40.472  0.00  0.00     0.104 A 
ATOM     17  N   UNL d   1     -54.728-101.797 -40.311  0.00  0.00    -0.249 N 
ATOM     18  C   UNL d   1     -54.730-102.336 -40.918  0.00  0.00     0.104 A 
ATOM     19  C   UNL d   1     -54.725-102.050 -39.519  0.00  0.00     0.378 C 
ATOM     20  O   UNL d   1     -54.725-102.863 -39.357  0.00  0.00    -0.237 OA
ATOM     21  O   UNL d   1     -54.737-101.570 -43.258  0.00  0.00    -0.266 OA
BRANCH  19  22
ATOM     22  O   UNL d   1     -54.723-101.499 -38.915  0.00  0.00    -0.257 OA
BRANCH  22  23
ATOM     23  C   UNL d   1     -54.732-101.762 -38.137  0.00  0.00     0.128 C 
ATOM     24  C   UNL d   1     -55.002-102.520 -37.964  0.00  0.00     0.029 C 
ENDBRANCH  22  23
ENDBRANCH  19  22
ENDBRANCH  11  12
ENDBRANCH  10  11
ENDBRANCH   7  10
BRANCH   3  25
ATOM     25  C   UNL d   1     -57.907 -98.983 -43.686  0.00  0.00     0.061 C 
BRANCH  25  26
ATOM     26  C   UNL d   1     -58.715 -98.834 -43.578  0.00  0.00     0.105 C 
BRANCH  26  27
ATOM     27  N   UNL d   1     -59.024 -98.799 -42.813  0.00  0.00    -0.206 NA
ATOM     28  C   UNL d   1     -58.524 -98.929 -42.160  0.00  0.00     0.279 C 
ATOM     29  O   UNL d   1     -57.719 -99.093 -42.288  0.00  0.00    -0.265 OA
BRANCH  28  30
ATOM     30  C   UNL d   1     -58.829 -98.894 -41.397  0.00  0.00     0.058 A 
ATOM     31  C   UNL d   1     -58.319 -98.951 -40.751  0.00  0.00     0.007 A 
ATOM     32  C   UNL d   1     -58.619 -98.917 -39.985  0.00  0.00     0.024 A 
ATOM     33  C   UNL d   1     -59.433 -98.825 -39.868  0.00  0.00     0.094 A 
ATOM     34  C   UNL d   1     -59.944 -98.768 -40.513  0.00  0.00     0.024 A 
ATOM     35  C   UNL d   1     -59.636 -98.803 -41.282  0.00  0.00     0.007 A 
BRANCH  33  36
ATOM     36  O   UNL d   1     -59.734 -98.791 -39.105  0.00  0.00    -0.328 OA
ATOM     37  C   UNL d   1     -59.685 -99.442 -38.611  0.00  0.00     0.181 C 
ENDBRANCH  33  36
ENDBRANCH  28  30
ENDBRANCH  26  27
ENDBRANCH  25  26
ENDBRANCH   3  25
TORSDOF 10
ENDMDL
