MODEL 1
REMARK VINA RESULT:      -7.3      0.000      0.000
REMARK  2 active torsions:
REMARK  status: ('A' for Active; 'I' for Inactive)
REMARK       I    between atoms: C_3  and  N_1 
REMARK       I    between atoms: C_4  and  N_2 
REMARK    1  A    between atoms: C_5  and  C_3 
REMARK    2  A    between atoms: C_6  and  C_4 
ROOT
ATOM      1  N   UNL d   1      53.400  33.350  54.335  0.00  0.00    -0.270 N 
ATOM      2  N   UNL d   1      53.141  31.886  53.620  0.00  0.00    -0.269 N 
ATOM      3  C   UNL d   1      53.530  34.072  54.691  0.00  0.00     0.271 C 
ATOM      4  C   UNL d   1      53.018  31.158  53.274  0.00  0.00     0.271 C 
ATOM      5  C   UNL d   1      52.964  33.306  53.628  0.00  0.00     0.085 A 
ATOM      6  C   UNL d   1      52.842  32.578  53.284  0.00  0.00     0.101 A 
ATOM      7  C   UNL d   1      53.709  32.671  54.692  0.00  0.00     0.102 A 
ATOM      8  C   UNL d   1      53.576  31.931  54.326  0.00  0.00     0.102 A 
ATOM      9  O   UNL d   1      53.969  34.113  55.404  0.00  0.00    -0.266 OA
ATOM     10  O   UNL d   1      52.592  31.114  52.581  0.00  0.00    -0.266 OA
ATOM     11  C   UNL d   1      52.665  33.998  53.292  0.00  0.00     0.021 C 
ENDROOT
BRANCH   3  12
ATOM     12  C   UNL d   1      53.236  34.766  54.364  0.00  0.00     0.086 A 
ATOM     13  S   UNL d   1      52.883  35.273  53.811  0.00  0.00    -0.082 SA
ATOM     14  C   UNL d   1      52.865  36.027  54.136  0.00  0.00     0.036 A 
ATOM     15  C   UNL d   1      53.207  35.990  54.892  0.00  0.00     0.008 A 
ATOM     16  C   UNL d   1      53.436  35.203  55.029  0.00  0.00     0.012 A 
ENDBRANCH   3  12
BRANCH   4  17
ATOM     17  C   UNL d   1      53.232  30.383  53.457  0.00  0.00     0.086 A 
ATOM     18  S   UNL d   1      53.769  29.849  53.783  0.00  0.00    -0.082 SA
ATOM     19  C   UNL d   1      53.451  29.088  53.692  0.00  0.00     0.036 A 
ATOM     20  C   UNL d   1      52.713  29.170  53.306  0.00  0.00     0.008 A 
ATOM     21  C   UNL d   1      52.596  29.969  53.170  0.00  0.00     0.012 A 
ENDBRANCH   4  17
TORSDOF 2
ENDMDL
MODEL 2
REMARK VINA RESULT:      -7.1      2.555      4.084
REMARK  2 active torsions:
REMARK  status: ('A' for Active; 'I' for Inactive)
REMARK       I    between atoms: C_3  and  N_1 
REMARK       I    between atoms: C_4  and  N_2 
REMARK    1  A    between atoms: C_5  and  C_3 
REMARK    2  A    between atoms: C_6  and  C_4 
ROOT
ATOM      1  N   UNL d   1      52.509  33.551  53.249  0.00  0.00    -0.270 N 
ATOM      2  N   UNL d   1      51.069  34.278  52.902  0.00  0.00    -0.269 N 
ATOM      3  C   UNL d   1      53.219  33.189  53.417  0.00  0.00     0.271 C 
ATOM      4  C   UNL d   1      50.356  34.631  52.722  0.00  0.00     0.271 C 
ATOM      5  C   UNL d   1      52.215  34.147  53.748  0.00  0.00     0.085 A 
ATOM      6  C   UNL d   1      51.503  34.500  53.568  0.00  0.00     0.101 A 
ATOM      7  C   UNL d   1      52.092  33.311  52.576  0.00  0.00     0.102 A 
ATOM      8  C   UNL d   1      51.363  33.681  52.403  0.00  0.00     0.102 A 
ATOM      9  O   UNL d   1      53.513  32.589  52.912  0.00  0.00    -0.266 OA
ATOM     10  O   UNL d   1      50.068  35.216  53.211  0.00  0.00    -0.266 OA
ATOM     11  C   UNL d   1      52.649  34.370  54.414  0.00  0.00     0.021 C 
ENDROOT
BRANCH   3  12
ATOM     12  C   UNL d   1      53.659  33.404  54.078  0.00  0.00     0.086 A 
ATOM     13  S   UNL d   1      53.859  33.791  54.782  0.00  0.00    -0.082 SA
ATOM     14  C   UNL d   1      54.599  33.524  55.016  0.00  0.00     0.036 A 
ATOM     15  C   UNL d   1      54.861  32.969  54.455  0.00  0.00     0.008 A 
ATOM     16  C   UNL d   1      54.273  32.898  53.874  0.00  0.00     0.012 A 
ENDBRANCH   3  12
BRANCH   4  17
ATOM     17  C   UNL d   1      49.799  34.545  52.121  0.00  0.00     0.086 A 
ATOM     18  S   UNL d   1      49.581  34.235  51.389  0.00  0.00    -0.082 SA
ATOM     19  C   UNL d   1      48.808  34.490  51.228  0.00  0.00     0.036 A 
ATOM     20  C   UNL d   1      48.561  34.960  51.876  0.00  0.00     0.008 A 
ATOM     21  C   UNL d   1      49.180  34.982  52.411  0.00  0.00     0.012 A 
ENDBRANCH   4  17
TORSDOF 2
ENDMDL
MODEL 3
REMARK VINA RESULT:      -6.6      0.266      4.600
REMARK  2 active torsions:
REMARK  status: ('A' for Active; 'I' for Inactive)
REMARK       I    between atoms: C_3  and  N_1 
REMARK       I    between atoms: C_4  and  N_2 
REMARK    1  A    between atoms: C_5  and  C_3 
REMARK    2  A    between atoms: C_6  and  C_4 
ROOT
ATOM      1  N   UNL d   1      53.077  31.887  53.466  0.00  0.00    -0.270 N 
ATOM      2  N   UNL d   1      53.375  33.330  54.208  0.00  0.00    -0.269 N 
ATOM      3  C   UNL d   1      52.928  31.176  53.097  0.00  0.00     0.271 C 
ATOM      4  C   UNL d   1      53.517  34.048  54.567  0.00  0.00     0.271 C 
ATOM      5  C   UNL d   1      53.488  31.904  54.189  0.00  0.00     0.085 A 
ATOM      6  C   UNL d   1      53.630  32.622  54.547  0.00  0.00     0.101 A 
ATOM      7  C   UNL d   1      52.811  32.583  53.107  0.00  0.00     0.102 A 
ATOM      8  C   UNL d   1      52.964  33.312  53.486  0.00  0.00     0.102 A 
ATOM      9  O   UNL d   1      52.513  31.162  52.369  0.00  0.00    -0.266 OA
ATOM     10  O   UNL d   1      53.920  34.066  55.275  0.00  0.00    -0.266 OA
ATOM     11  C   UNL d   1      53.743  31.196  54.527  0.00  0.00     0.021 C 
ENDROOT
BRANCH   3  12
ATOM     12  C   UNL d   1      53.178  30.465  53.426  0.00  0.00     0.086 A 
ATOM     13  S   UNL d   1      53.599  29.944  53.913  0.00  0.00    -0.082 SA
ATOM     14  C   UNL d   1      53.354  29.180  53.737  0.00  0.00     0.036 A 
ATOM     15  C   UNL d   1      52.779  29.227  53.139  0.00  0.00     0.008 A 
ATOM     16  C   UNL d   1      52.673  30.028  52.949  0.00  0.00     0.012 A 
ENDBRANCH   3  12
BRANCH   4  17
ATOM     17  C   UNL d   1      53.345  34.834  54.386  0.00  0.00     0.086 A 
ATOM     18  S   UNL d   1      53.269  35.438  53.830  0.00  0.00    -0.082 SA
ATOM     19  C   UNL d   1      53.042  36.125  54.236  0.00  0.00     0.036 A 
ATOM     20  C   UNL d   1      52.981  35.927  55.047  0.00  0.00     0.008 A 
ATOM     21  C   UNL d   1      53.170  35.134  55.120  0.00  0.00     0.012 A 
ENDBRANCH   4  17
TORSDOF 2
ENDMDL
MODEL 4
REMARK VINA RESULT:      -6.4      2.982      3.910
REMARK  2 active torsions:
REMARK  status: ('A' for Active; 'I' for Inactive)
REMARK       I    between atoms: C_3  and  N_1 
REMARK       I    between atoms: C_4  and  N_2 
REMARK    1  A    between atoms: C_5  and  C_3 
REMARK    2  A    between atoms: C_6  and  C_4 
ROOT
ATOM      1  N   UNL d   1      50.410  34.439  52.802  0.00  0.00    -0.270 N 
ATOM      2  N   UNL d   1      51.884  33.729  53.017  0.00  0.00    -0.269 N 
ATOM      3  C   UNL d   1      49.682  34.791  52.700  0.00  0.00     0.271 C 
ATOM      4  C   UNL d   1      52.612  33.381  53.133  0.00  0.00     0.271 C 
ATOM      5  C   UNL d   1      50.765  34.022  52.176  0.00  0.00     0.085 A 
ATOM      6  C   UNL d   1      51.492  33.675  52.293  0.00  0.00     0.101 A 
ATOM      7  C   UNL d   1      50.783  34.506  53.538  0.00  0.00     0.102 A 
ATOM      8  C   UNL d   1      51.529  34.145  53.643  0.00  0.00     0.102 A 
ATOM      9  O   UNL d   1      49.328  35.210  53.333  0.00  0.00    -0.266 OA
ATOM     10  O   UNL d   1      52.960  32.973  52.520  0.00  0.00    -0.266 OA
ATOM     11  C   UNL d   1      50.373  33.968  51.451  0.00  0.00     0.021 C 
ENDROOT
BRANCH   3  12
ATOM     12  C   UNL d   1      49.284  34.743  51.982  0.00  0.00     0.086 A 
ATOM     13  S   UNL d   1      49.130  34.535  51.195  0.00  0.00    -0.082 SA
ATOM     14  C   UNL d   1      48.404  34.857  50.986  0.00  0.00     0.036 A 
ATOM     15  C   UNL d   1      48.106  35.266  51.645  0.00  0.00     0.008 A 
ATOM     16  C   UNL d   1      48.657  35.192  52.262  0.00  0.00     0.012 A 
ENDBRANCH   3  12
BRANCH   4  17
ATOM     17  C   UNL d   1      53.138  33.329  53.766  0.00  0.00     0.086 A 
ATOM     18  S   UNL d   1      53.428  33.624  54.479  0.00  0.00    -0.082 SA
ATOM     19  C   UNL d   1      54.044  33.125  54.724  0.00  0.00     0.036 A 
ATOM     20  C   UNL d   1      54.123  32.524  54.147  0.00  0.00     0.008 A 
ATOM     21  C   UNL d   1      53.561  32.665  53.569  0.00  0.00     0.012 A 
ENDBRANCH   4  17
TORSDOF 2
ENDMDL
MODEL 5
REMARK VINA RESULT:      -6.1     10.547     11.154
REMARK  2 active torsions:
REMARK  status: ('A' for Active; 'I' for Inactive)
REMARK       I    between atoms: C_3  and  N_1 
REMARK       I    between atoms: C_4  and  N_2 
REMARK    1  A    between atoms: C_5  and  C_3 
REMARK    2  A    between atoms: C_6  and  C_4 
ROOT
ATOM      1  N   UNL d   1      44.604  29.733  58.756  0.00  0.00    -0.270 N 
ATOM      2  N   UNL d   1      44.608  30.323  60.297  0.00  0.00    -0.269 N 
ATOM      3  C   UNL d   1      44.601  29.438  57.996  0.00  0.00     0.271 C 
ATOM      4  C   UNL d   1      44.611  30.605  61.061  0.00  0.00     0.271 C 
ATOM      5  C   UNL d   1      44.620  30.555  58.885  0.00  0.00     0.085 A 
ATOM      6  C   UNL d   1      44.622  30.835  59.649  0.00  0.00     0.101 A 
ATOM      7  C   UNL d   1      44.590  29.200  59.388  0.00  0.00     0.102 A 
ATOM      8  C   UNL d   1      44.592  29.503  60.167  0.00  0.00     0.102 A 
ATOM      9  O   UNL d   1      44.585  28.610  57.869  0.00  0.00    -0.266 OA
ATOM     10  O   UNL d   1      44.626  31.410  61.189  0.00  0.00    -0.266 OA
ATOM     11  C   UNL d   1      44.633  31.067  58.238  0.00  0.00     0.021 C 
ENDROOT
BRANCH   3  12
ATOM     12  C   UNL d   1      44.614  29.940  57.345  0.00  0.00     0.086 A 
ATOM     13  S   UNL d   1      44.627  30.647  56.913  0.00  0.00    -0.082 SA
ATOM     14  C   UNL d   1      44.635  30.454  56.114  0.00  0.00     0.036 A 
ATOM     15  C   UNL d   1      44.626  29.626  56.050  0.00  0.00     0.008 A 
ATOM     16  C   UNL d   1      44.614  29.311  56.818  0.00  0.00     0.012 A 
ENDBRANCH   3  12
BRANCH   4  17
ATOM     17  C   UNL d   1      44.600  30.259  61.810  0.00  0.00     0.086 A 
ATOM     18  S   UNL d   1      44.715  29.602  62.293  0.00  0.00    -0.082 SA
ATOM     19  C   UNL d   1      44.539  29.829  63.071  0.00  0.00     0.036 A 
ATOM     20  C   UNL d   1      44.315  30.636  63.051  0.00  0.00     0.008 A 
ATOM     21  C   UNL d   1      44.358  30.882  62.272  0.00  0.00     0.012 A 
ENDBRANCH   4  17
TORSDOF 2
ENDMDL
MODEL 6
REMARK VINA RESULT:      -6.1     10.506     11.653
REMARK  2 active torsions:
REMARK  status: ('A' for Active; 'I' for Inactive)
REMARK       I    between atoms: C_3  and  N_1 
REMARK       I    between atoms: C_4  and  N_2 
REMARK    1  A    between atoms: C_5  and  C_3 
REMARK    2  A    between atoms: C_6  and  C_4 
ROOT
ATOM      1  N   UNL d   1      44.783  27.986  59.218  0.00  0.00    -0.270 N 
ATOM      2  N   UNL d   1      44.735  29.423  60.028  0.00  0.00    -0.269 N 
ATOM      3  C   UNL d   1      44.806  27.274  58.822  0.00  0.00     0.271 C 
ATOM      4  C   UNL d   1      44.708  30.128  60.437  0.00  0.00     0.271 C 
ATOM      5  C   UNL d   1      44.934  28.696  58.812  0.00  0.00     0.085 A 
ATOM      6  C   UNL d   1      44.907  29.399  59.221  0.00  0.00     0.101 A 
ATOM      7  C   UNL d   1      44.608  27.983  60.027  0.00  0.00     0.102 A 
ATOM      8  C   UNL d   1      44.584  28.713  60.433  0.00  0.00     0.102 A 
ATOM      9  O   UNL d   1      44.654  26.561  59.234  0.00  0.00    -0.266 OA
ATOM     10  O   UNL d   1      44.856  30.823  60.039  0.00  0.00    -0.266 OA
ATOM     11  C   UNL d   1      45.106  28.672  58.005  0.00  0.00     0.021 C 
ENDROOT
BRANCH   3  12
ATOM     12  C   UNL d   1      44.977  27.241  58.018  0.00  0.00     0.086 A 
ATOM     13  S   UNL d   1      45.199  27.498  57.263  0.00  0.00    -0.082 SA
ATOM     14  C   UNL d   1      45.174  26.852  56.758  0.00  0.00     0.036 A 
ATOM     15  C   UNL d   1      44.935  26.190  57.200  0.00  0.00     0.008 A 
ATOM     16  C   UNL d   1      44.814  26.437  57.983  0.00  0.00     0.012 A 
ENDBRANCH   3  12
BRANCH   4  17
ATOM     17  C   UNL d   1      44.558  30.342  61.219  0.00  0.00     0.086 A 
ATOM     18  S   UNL d   1      44.429  30.130  62.004  0.00  0.00    -0.082 SA
ATOM     19  C   UNL d   1      44.316  30.828  62.437  0.00  0.00     0.036 A 
ATOM     20  C   UNL d   1      44.378  31.468  61.900  0.00  0.00     0.008 A 
ATOM     21  C   UNL d   1      44.526  31.151  61.160  0.00  0.00     0.012 A 
ENDBRANCH   4  17
TORSDOF 2
ENDMDL
MODEL 7
REMARK VINA RESULT:      -5.7      9.682     10.484
REMARK  2 active torsions:
REMARK  status: ('A' for Active; 'I' for Inactive)
REMARK       I    between atoms: C_3  and  N_1 
REMARK       I    between atoms: C_4  and  N_2 
REMARK    1  A    between atoms: C_5  and  C_3 
REMARK    2  A    between atoms: C_6  and  C_4 
ROOT
ATOM      1  N   UNL d   1      44.937  28.386  57.493  0.00  0.00    -0.270 N 
ATOM      2  N   UNL d   1      44.794  26.747  57.374  0.00  0.00    -0.269 N 
ATOM      3  C   UNL d   1      45.008  29.196  57.548  0.00  0.00     0.271 C 
ATOM      4  C   UNL d   1      44.723  25.938  57.306  0.00  0.00     0.271 C 
ATOM      5  C   UNL d   1      44.883  27.924  58.182  0.00  0.00     0.085 A 
ATOM      6  C   UNL d   1      44.812  27.116  58.113  0.00  0.00     0.101 A 
ATOM      7  C   UNL d   1      44.920  28.040  56.742  0.00  0.00     0.102 A 
ATOM      8  C   UNL d   1      44.848  27.209  56.686  0.00  0.00     0.102 A 
ATOM      9  O   UNL d   1      45.062  29.659  56.852  0.00  0.00    -0.266 OA
ATOM     10  O   UNL d   1      44.670  25.484  57.980  0.00  0.00    -0.266 OA
ATOM     11  C   UNL d   1      44.902  28.293  58.921  0.00  0.00     0.021 C 
ENDROOT
BRANCH   3  12
ATOM     12  C   UNL d   1      45.027  29.573  58.279  0.00  0.00     0.086 A 
ATOM     13  S   UNL d   1      45.041  29.665  59.102  0.00  0.00    -0.082 SA
ATOM     14  C   UNL d   1      45.064  30.469  59.266  0.00  0.00     0.036 A 
ATOM     15  C   UNL d   1      45.064  30.879  58.543  0.00  0.00     0.008 A 
ATOM     16  C   UNL d   1      45.042  30.317  57.932  0.00  0.00     0.012 A 
ENDBRANCH   3  12
BRANCH   4  17
ATOM     17  C   UNL d   1      44.688  25.408  56.675  0.00  0.00     0.086 A 
ATOM     18  S   UNL d   1      44.691  25.263  55.863  0.00  0.00    -0.082 SA
ATOM     19  C   UNL d   1      44.620  24.444  55.755  0.00  0.00     0.036 A 
ATOM     20  C   UNL d   1      44.575  24.094  56.514  0.00  0.00     0.008 A 
ATOM     21  C   UNL d   1      44.618  24.699  57.064  0.00  0.00     0.012 A 
ENDBRANCH   4  17
TORSDOF 2
ENDMDL
MODEL 8
REMARK VINA RESULT:      -5.6      9.741     11.467
REMARK  2 active torsions:
REMARK  status: ('A' for Active; 'I' for Inactive)
REMARK       I    between atoms: C_3  and  N_1 
REMARK       I    between atoms: C_4  and  N_2 
REMARK    1  A    between atoms: C_5  and  C_3 
REMARK    2  A    between atoms: C_6  and  C_4 
ROOT
ATOM      1  N   UNL d   1      44.716  26.595  57.781  0.00  0.00    -0.270 N 
ATOM      2  N   UNL d   1      44.886  28.234  57.690  0.00  0.00    -0.269 N 
ATOM      3  C   UNL d   1      44.631  25.786  57.831  0.00  0.00     0.271 C 
ATOM      4  C   UNL d   1      44.971  29.044  57.655  0.00  0.00     0.271 C 
ATOM      5  C   UNL d   1      44.762  26.966  57.039  0.00  0.00     0.085 A 
ATOM      6  C   UNL d   1      44.846  27.775  57.004  0.00  0.00     0.101 A 
ATOM      7  C   UNL d   1      44.753  27.033  58.482  0.00  0.00     0.102 A 
ATOM      8  C   UNL d   1      44.840  27.863  58.432  0.00  0.00     0.102 A 
ATOM      9  O   UNL d   1      44.585  25.416  58.581  0.00  0.00    -0.266 OA
ATOM     10  O   UNL d   1      45.016  29.408  56.927  0.00  0.00    -0.266 OA
ATOM     11  C   UNL d   1      44.722  26.508  56.353  0.00  0.00     0.021 C 
ENDROOT
BRANCH   3  12
ATOM     12  C   UNL d   1      44.591  25.321  57.154  0.00  0.00     0.086 A 
ATOM     13  S   UNL d   1      44.603  25.122  56.350  0.00  0.00    -0.082 SA
ATOM     14  C   UNL d   1      44.468  24.314  56.288  0.00  0.00     0.036 A 
ATOM     15  C   UNL d   1      44.372  24.010  57.055  0.00  0.00     0.008 A 
ATOM     16  C   UNL d   1      44.449  24.641  57.590  0.00  0.00     0.012 A 
ENDBRANCH   3  12
BRANCH   4  17
ATOM     17  C   UNL d   1      45.027  29.648  58.213  0.00  0.00     0.086 A 
ATOM     18  S   UNL d   1      45.123  29.891  58.995  0.00  0.00    -0.082 SA
ATOM     19  C   UNL d   1      45.101  30.720  59.004  0.00  0.00     0.036 A 
ATOM     20  C   UNL d   1      44.990  30.976  58.215  0.00  0.00     0.008 A 
ATOM     21  C   UNL d   1      44.947  30.307  57.745  0.00  0.00     0.012 A 
ENDBRANCH   4  17
TORSDOF 2
ENDMDL
