MODEL 1
REMARK VINA RESULT:      -8.3      0.000      0.000
REMARK  4 active torsions:
REMARK  status: ('A' for Active; 'I' for Inactive)
REMARK    1  A    between atoms: N_10  and  C_3 
REMARK    2  A    between atoms: C_11  and  C_5 
REMARK    3  A    between atoms: C_12  and  N_10 
REMARK    4  A    between atoms: O_21  and  C_14 
ROOT
ATOM      1  N   UNL d   1     -47.835  12.588  22.836  0.00  0.00    -0.184 N 
ATOM      2  C   UNL d   1     -48.452  13.140  22.696  0.00  0.00     0.168 A 
ATOM      3  C   UNL d   1     -47.053  12.853  22.879  0.00  0.00     0.217 A 
ATOM      4  N   UNL d   1     -48.786  11.536  22.884  0.00  0.00    -0.162 NA
ATOM      5  C   UNL d   1     -49.216  12.883  22.653  0.00  0.00     0.055 A 
ATOM      6  N   UNL d   1     -48.264  13.935  22.605  0.00  0.00    -0.227 NA
ATOM      7  C   UNL d   1     -46.883  13.641  22.787  0.00  0.00     0.066 A 
ATOM      8  C   UNL d   1     -49.393  12.079  22.746  0.00  0.00     0.104 A 
ATOM      9  C   UNL d   1     -47.494  14.199  22.647  0.00  0.00     0.087 A 
ATOM     10  C   UNL d   1     -46.187  14.057  22.801  0.00  0.00     0.006 A 
ATOM     11  C   UNL d   1     -50.170  11.827  22.701  0.00  0.00     0.023 C 
ATOM     12  C   UNL d   1     -47.159  14.943  22.578  0.00  0.00     0.019 A 
ATOM     13  C   UNL d   1     -46.339  14.850  22.676  0.00  0.00     0.002 A 
ENDROOT
BRANCH   3  14
ATOM     14  N   UNL d   1     -46.427  12.299  23.021  0.00  0.00    -0.383 NA
BRANCH  14  15
ATOM     15  C   UNL d   1     -45.826  11.724  23.134  0.00  0.00     0.134 A 
ATOM     16  C   UNL d   1     -45.062  11.830  22.827  0.00  0.00     0.034 A 
ATOM     17  C   UNL d   1     -44.463  11.253  22.942  0.00  0.00     0.027 A 
ATOM     18  C   UNL d   1     -44.628  10.548  23.376  0.00  0.00     0.094 A 
ATOM     19  C   UNL d   1     -45.415  10.429  23.697  0.00  0.00     0.027 A 
ATOM     20  C   UNL d   1     -46.011  11.008  23.580  0.00  0.00     0.034 A 
BRANCH  18  21
ATOM     21  O   UNL d   1     -44.032   9.968  23.494  0.00  0.00    -0.328 OA
ATOM     22  C   UNL d   1     -43.246  10.201  23.698  0.00  0.00     0.181 C 
ENDBRANCH  18  21
ENDBRANCH  14  15
ENDBRANCH   3  14
BRANCH   5  23
ATOM     23  C   UNL d   1     -49.819  13.422  22.516  0.00  0.00     0.004 A 
ATOM     24  C   UNL d   1     -50.043  13.605  21.747  0.00  0.00     0.000 A 
ATOM     25  C   UNL d   1     -50.644  14.142  21.607  0.00  0.00     0.000 A 
ATOM     26  C   UNL d   1     -51.028  14.502  22.242  0.00  0.00     0.000 A 
ATOM     27  C   UNL d   1     -50.813  14.327  23.003  0.00  0.00     0.000 A 
ATOM     28  C   UNL d   1     -50.202  13.781  23.142  0.00  0.00     0.000 A 
ENDBRANCH   5  23
TORSDOF 4
ENDMDL
MODEL 2
REMARK VINA RESULT:      -8.2      1.014      2.200
REMARK  4 active torsions:
REMARK  status: ('A' for Active; 'I' for Inactive)
REMARK    1  A    between atoms: N_10  and  C_3 
REMARK    2  A    between atoms: C_11  and  C_5 
REMARK    3  A    between atoms: C_12  and  N_10 
REMARK    4  A    between atoms: O_21  and  C_14 
ROOT
ATOM      1  N   UNL d   1     -47.967  13.263  23.024  0.00  0.00    -0.184 N 
ATOM      2  C   UNL d   1     -48.731  13.607  22.984  0.00  0.00     0.168 A 
ATOM      3  C   UNL d   1     -47.887  12.466  23.230  0.00  0.00     0.217 A 
ATOM      4  N   UNL d   1     -47.389  14.506  22.658  0.00  0.00    -0.162 NA
ATOM      5  C   UNL d   1     -48.810  14.384  22.784  0.00  0.00     0.055 A 
ATOM      6  N   UNL d   1     -49.388  13.140  23.151  0.00  0.00    -0.227 NA
ATOM      7  C   UNL d   1     -48.545  12.019  23.391  0.00  0.00     0.066 A 
ATOM      8  C   UNL d   1     -48.142  14.845  22.618  0.00  0.00     0.104 A 
ATOM      9  C   UNL d   1     -49.313  12.355  23.353  0.00  0.00     0.087 A 
ATOM     10  C   UNL d   1     -48.641  11.242  23.603  0.00  0.00     0.006 A 
ATOM     11  C   UNL d   1     -48.231  15.632  22.416  0.00  0.00     0.023 C 
ATOM     12  C   UNL d   1     -49.862  11.776  23.542  0.00  0.00     0.019 A 
ATOM     13  C   UNL d   1     -49.436  11.080  23.698  0.00  0.00     0.002 A 
ENDROOT
BRANCH   3  14
ATOM     14  N   UNL d   1     -47.117  12.116  23.271  0.00  0.00    -0.383 NA
BRANCH  14  15
ATOM     15  C   UNL d   1     -46.340  11.797  23.284  0.00  0.00     0.134 A 
ATOM     16  C   UNL d   1     -45.704  12.193  22.926  0.00  0.00     0.034 A 
ATOM     17  C   UNL d   1     -44.928  11.870  22.941  0.00  0.00     0.027 A 
ATOM     18  C   UNL d   1     -44.780  11.133  23.324  0.00  0.00     0.094 A 
ATOM     19  C   UNL d   1     -45.431  10.716  23.697  0.00  0.00     0.027 A 
ATOM     20  C   UNL d   1     -46.204  11.042  23.680  0.00  0.00     0.034 A 
BRANCH  18  21
ATOM     21  O   UNL d   1     -44.006  10.808  23.341  0.00  0.00    -0.328 OA
ATOM     22  C   UNL d   1     -43.895   9.971  23.312  0.00  0.00     0.181 C 
ENDBRANCH  18  21
ENDBRANCH  14  15
ENDBRANCH   3  14
BRANCH   5  23
ATOM     23  C   UNL d   1     -49.558  14.721  22.745  0.00  0.00     0.004 A 
ATOM     24  C   UNL d   1     -49.882  15.087  23.405  0.00  0.00     0.000 A 
ATOM     25  C   UNL d   1     -50.627  15.423  23.369  0.00  0.00     0.000 A 
ATOM     26  C   UNL d   1     -51.056  15.393  22.666  0.00  0.00     0.000 A 
ATOM     27  C   UNL d   1     -50.745  15.033  22.010  0.00  0.00     0.000 A 
ATOM     28  C   UNL d   1     -49.987  14.693  22.050  0.00  0.00     0.000 A 
ENDBRANCH   5  23
TORSDOF 4
ENDMDL
MODEL 3
REMARK VINA RESULT:      -7.8      1.326      2.349
REMARK  4 active torsions:
REMARK  status: ('A' for Active; 'I' for Inactive)
REMARK    1  A    between atoms: N_10  and  C_3 
REMARK    2  A    between atoms: C_11  and  C_5 
REMARK    3  A    between atoms: C_12  and  N_10 
REMARK    4  A    between atoms: O_21  and  C_14 
ROOT
ATOM      1  N   UNL d   1     -47.603  13.696  22.656  0.00  0.00    -0.184 N 
ATOM      2  C   UNL d   1     -48.406  13.867  22.828  0.00  0.00     0.168 A 
ATOM      3  C   UNL d   1     -47.298  12.946  22.826  0.00  0.00     0.217 A 
ATOM      4  N   UNL d   1     -47.431  15.012  22.154  0.00  0.00    -0.162 NA
ATOM      5  C   UNL d   1     -48.704  14.598  22.662  0.00  0.00     0.055 A 
ATOM      6  N   UNL d   1     -48.876  13.281  23.164  0.00  0.00    -0.227 NA
ATOM      7  C   UNL d   1     -47.775  12.379  23.158  0.00  0.00     0.066 A 
ATOM      8  C   UNL d   1     -48.222  15.180  22.323  0.00  0.00     0.104 A 
ATOM      9  C   UNL d   1     -48.579  12.541  23.333  0.00  0.00     0.087 A 
ATOM     10  C   UNL d   1     -47.638  11.611  23.383  0.00  0.00     0.006 A 
ATOM     11  C   UNL d   1     -48.532  15.919  22.158  0.00  0.00     0.023 C 
ATOM     12  C   UNL d   1     -48.917  11.870  23.660  0.00  0.00     0.019 A 
ATOM     13  C   UNL d   1     -48.323  11.290  23.690  0.00  0.00     0.002 A 
ENDROOT
BRANCH   3  14
ATOM     14  N   UNL d   1     -46.488  12.771  22.654  0.00  0.00    -0.383 NA
BRANCH  14  15
ATOM     15  C   UNL d   1     -45.682  12.633  22.463  0.00  0.00     0.134 A 
ATOM     16  C   UNL d   1     -45.305  13.050  21.852  0.00  0.00     0.034 A 
ATOM     17  C   UNL d   1     -44.499  12.910  21.663  0.00  0.00     0.027 A 
ATOM     18  C   UNL d   1     -44.053  12.337  22.094  0.00  0.00     0.094 A 
ATOM     19  C   UNL d   1     -44.433  11.901  22.727  0.00  0.00     0.027 A 
ATOM     20  C   UNL d   1     -45.240  12.044  22.913  0.00  0.00     0.034 A 
BRANCH  18  21
ATOM     21  O   UNL d   1     -43.247  12.194  21.908  0.00  0.00    -0.328 OA
ATOM     22  C   UNL d   1     -42.808  12.755  21.454  0.00  0.00     0.181 C 
ENDBRANCH  18  21
ENDBRANCH  14  15
ENDBRANCH   3  14
BRANCH   5  23
ATOM     23  C   UNL d   1     -49.490  14.765  22.830  0.00  0.00     0.004 A 
ATOM     24  C   UNL d   1     -49.691  15.150  23.527  0.00  0.00     0.000 A 
ATOM     25  C   UNL d   1     -50.473  15.318  23.698  0.00  0.00     0.000 A 
ATOM     26  C   UNL d   1     -51.064  15.099  23.167  0.00  0.00     0.000 A 
ATOM     27  C   UNL d   1     -50.875  14.718  22.476  0.00  0.00     0.000 A 
ATOM     28  C   UNL d   1     -50.079  14.549  22.306  0.00  0.00     0.000 A 
ENDBRANCH   5  23
TORSDOF 4
ENDMDL
MODEL 4
REMARK VINA RESULT:      -6.1      1.350      1.811
REMARK  4 active torsions:
REMARK  status: ('A' for Active; 'I' for Inactive)
REMARK    1  A    between atoms: N_10  and  C_3 
REMARK    2  A    between atoms: C_11  and  C_5 
REMARK    3  A    between atoms: C_12  and  N_10 
REMARK    4  A    between atoms: O_21  and  C_14 
ROOT
ATOM      1  N   UNL d   1     -47.341  12.693  22.490  0.00  0.00    -0.184 N 
ATOM      2  C   UNL d   1     -48.148  12.880  22.625  0.00  0.00     0.168 A 
ATOM      3  C   UNL d   1     -46.782  13.301  22.447  0.00  0.00     0.217 A 
ATOM      4  N   UNL d   1     -47.669  11.313  22.444  0.00  0.00    -0.162 NA
ATOM      5  C   UNL d   1     -48.694  12.287  22.667  0.00  0.00     0.055 A 
ATOM      6  N   UNL d   1     -48.367  13.668  22.713  0.00  0.00    -0.227 NA
ATOM      7  C   UNL d   1     -47.013  14.074  22.536  0.00  0.00     0.066 A 
ATOM      8  C   UNL d   1     -48.463  11.497  22.577  0.00  0.00     0.104 A 
ATOM      9  C   UNL d   1     -47.818  14.270  22.672  0.00  0.00     0.087 A 
ATOM     10  C   UNL d   1     -46.603  14.774  22.522  0.00  0.00     0.006 A 
ATOM     11  C   UNL d   1     -49.023  10.903  22.621  0.00  0.00     0.023 C 
ATOM     12  C   UNL d   1     -47.882  15.084  22.738  0.00  0.00     0.019 A 
ATOM     13  C   UNL d   1     -47.119  15.396  22.644  0.00  0.00     0.002 A 
ENDROOT
BRANCH   3  14
ATOM     14  N   UNL d   1     -45.967  13.116  22.311  0.00  0.00    -0.383 NA
BRANCH  14  15
ATOM     15  C   UNL d   1     -45.171  12.900  22.153  0.00  0.00     0.134 A 
ATOM     16  C   UNL d   1     -44.775  12.339  22.620  0.00  0.00     0.034 A 
ATOM     17  C   UNL d   1     -43.979  12.125  22.459  0.00  0.00     0.027 A 
ATOM     18  C   UNL d   1     -43.563  12.478  21.816  0.00  0.00     0.094 A 
ATOM     19  C   UNL d   1     -43.964  13.059  21.328  0.00  0.00     0.027 A 
ATOM     20  C   UNL d   1     -44.760  13.271  21.491  0.00  0.00     0.034 A 
BRANCH  18  21
ATOM     21  O   UNL d   1     -42.767  12.267  21.652  0.00  0.00    -0.328 OA
ATOM     22  C   UNL d   1     -42.174  12.865  21.580  0.00  0.00     0.181 C 
ENDBRANCH  18  21
ENDBRANCH  14  15
ENDBRANCH   3  14
BRANCH   5  23
ATOM     23  C   UNL d   1     -49.484  12.470  22.799  0.00  0.00     0.004 A 
ATOM     24  C   UNL d   1     -49.751  12.618  23.562  0.00  0.00     0.000 A 
ATOM     25  C   UNL d   1     -50.537  12.801  23.697  0.00  0.00     0.000 A 
ATOM     26  C   UNL d   1     -51.064  12.837  23.064  0.00  0.00     0.000 A 
ATOM     27  C   UNL d   1     -50.808  12.692  22.309  0.00  0.00     0.000 A 
ATOM     28  C   UNL d   1     -50.009  12.507  22.175  0.00  0.00     0.000 A 
ENDBRANCH   5  23
TORSDOF 4
ENDMDL
