MODEL 1
REMARK VINA RESULT:      95.2      0.000      0.000
REMARK  7 active torsions:
REMARK  status: ('A' for Active; 'I' for Inactive)
REMARK    1  A    between atoms: C_6  and  C_1 
REMARK    2  A    between atoms: C_9  and  N_3 
REMARK    3  A    between atoms: C_11  and  C_4 
REMARK       I    between atoms: N_7  and  C_6 
REMARK    4  A    between atoms: C_15  and  N_7 
REMARK    5  A    between atoms: C_8  and  C_10 
REMARK    6  A    between atoms: O_18  and  C_8 
REMARK    7  A    between atoms: C_27  and  O_18 
ROOT
ATOM      1  C   UNL d   1      59.693  48.610  50.788  0.00  0.00     0.096 A 
ATOM      2  N   UNL d   1      59.258  49.708  51.587  0.00  0.00    -0.165 NA
ATOM      3  N   UNL d   1      58.371  49.124  50.641  0.00  0.00    -0.228 N 
ATOM      4  C   UNL d   1      59.845  49.174  51.374  0.00  0.00     0.108 A 
ATOM      5  C   UNL d   1      58.953  48.591  50.426  0.00  0.00     0.107 A 
ENDROOT
BRANCH   1   6
ATOM      6  C   UNL d   1      60.276  48.076  50.573  0.00  0.00     0.282 C 
ATOM      7  N   UNL d   1      60.104  47.239  50.541  0.00  0.00    -0.208 NA
ATOM      8  O   UNL d   1      61.029  48.344  50.387  0.00  0.00    -0.265 OA
BRANCH   7   9
ATOM      9  C   UNL d   1      60.708  46.691  50.319  0.00  0.00     0.085 A 
ATOM     10  C   UNL d   1      61.210  46.848  49.661  0.00  0.00     0.019 A 
ATOM     11  C   UNL d   1      61.814  46.299  49.440  0.00  0.00     0.007 A 
ATOM     12  C   UNL d   1      61.915  45.583  49.885  0.00  0.00     0.064 A 
ATOM     13  C   UNL d   1      61.411  45.430  50.542  0.00  0.00     0.007 A 
ATOM     14  C   UNL d   1      60.809  45.982  50.758  0.00  0.00     0.019 A 
BRANCH  12  15
ATOM     15  C   UNL d   1      62.521  45.026  49.667  0.00  0.00     0.300 C 
ATOM     16  O   UNL d   1      63.153  45.264  49.153  0.00  0.00    -0.259 OA
BRANCH  15  17
ATOM     17  O   UNL d   1      62.496  44.232  49.964  0.00  0.00    -0.271 OA
BRANCH  17  18
ATOM     18  C   UNL d   1      63.140  43.705  49.819  0.00  0.00     0.126 C 
ATOM     19  C   UNL d   1      63.085  42.903  50.054  0.00  0.00     0.029 C 
ENDBRANCH  17  18
ENDBRANCH  15  17
ENDBRANCH  12  15
ENDBRANCH   7   9
ENDBRANCH   1   6
BRANCH   4  20
ATOM     20  C   UNL d   1      60.570  49.200  51.735  0.00  0.00     0.023 A 
ATOM     21  C   UNL d   1      60.654  48.953  52.514  0.00  0.00     0.022 A 
ATOM     22  C   UNL d   1      61.385  48.977  52.884  0.00  0.00     0.099 A 
ATOM     23  N   UNL d   1      62.043  49.255  52.467  0.00  0.00    -0.242 NA
ATOM     24  C   UNL d   1      61.965  49.503  51.689  0.00  0.00     0.099 A 
ATOM     25  C   UNL d   1      61.228  49.476  51.323  0.00  0.00     0.022 A 
ENDBRANCH   4  20
BRANCH   3  26
ATOM     26  C   UNL d   1      57.597  49.264  50.408  0.00  0.00     0.083 A 
ATOM     27  C   UNL d   1      57.445  49.510  49.641  0.00  0.00     0.019 A 
ATOM     28  C   UNL d   1      56.670  49.650  49.411  0.00  0.00     0.002 A 
ATOM     29  C   UNL d   1      56.049  49.544  49.943  0.00  0.00     0.000 A 
ATOM     30  C   UNL d   1      56.207  49.296  50.714  0.00  0.00     0.002 A 
ATOM     31  C   UNL d   1      56.981  49.157  50.945  0.00  0.00     0.019 A 
ENDBRANCH   3  26
TORSDOF 7
ENDMDL
