MODEL 1
REMARK VINA RESULT:      -2.5      0.000      0.000
REMARK  6 active torsions:
REMARK  status: ('A' for Active; 'I' for Inactive)
REMARK    1  A    between atoms: N_2  and  S_1 
REMARK    2  A    between atoms: C_5  and  S_1 
REMARK    3  A    between atoms: S_6  and  C_3 
REMARK    4  A    between atoms: C_18  and  S_6 
REMARK       I    between atoms: C_9  and  N_11 
REMARK    5  A    between atoms: N_11  and  C_19 
REMARK    6  A    between atoms: C_17  and  C_18 
ROOT
ATOM      1  N   UNL d   1      32.455  17.586 -24.086  0.00  0.00    -0.208 N 
ATOM      2  C   UNL d   1      31.997  16.912 -23.918  0.00  0.00     0.189 A 
ATOM      3  N   UNL d   1      32.483  16.357 -23.544  0.00  0.00    -0.219 NA
ATOM      4  C   UNL d   1      33.228  17.445 -23.813  0.00  0.00     0.114 A 
ATOM      5  C   UNL d   1      33.241  16.689 -23.481  0.00  0.00     0.121 A 
ENDROOT
BRANCH   1   6
ATOM      6  S   UNL d   1      32.184  18.276 -24.460  0.00  0.00     0.273 S 
ATOM      7  O   UNL d   1      31.839  18.795 -25.007  0.00  0.00    -0.200 OA
ATOM      8  O   UNL d   1      31.913  17.797 -25.067  0.00  0.00    -0.200 OA
BRANCH   6   9
ATOM      9  C   UNL d   1      32.450  18.776 -23.856  0.00  0.00     0.104 A 
ATOM     10  C   UNL d   1      32.185  18.661 -23.096  0.00  0.00     0.014 A 
ATOM     11  C   UNL d   1      32.446  19.156 -22.482  0.00  0.00     0.020 A 
ATOM     12  C   UNL d   1      32.974  19.762 -22.658  0.00  0.00     0.085 A 
ATOM     13  C   UNL d   1      33.238  19.872 -23.431  0.00  0.00     0.020 A 
ATOM     14  C   UNL d   1      32.978  19.379 -24.038  0.00  0.00     0.014 A 
BRANCH  12  15
ATOM     15  N   UNL d   1      33.240  20.261 -22.055  0.00  0.00    -0.208 NA
ATOM     16  C   UNL d   1      32.694  20.670 -21.595  0.00  0.00     0.279 C 
ATOM     17  O   UNL d   1      31.888  20.592 -21.722  0.00  0.00    -0.265 OA
ATOM     18  C   UNL d   1      32.963  21.177 -20.982  0.00  0.00     0.068 C 
ENDBRANCH  12  15
ENDBRANCH   6   9
ENDBRANCH   1   6
BRANCH   2  19
ATOM     19  S   UNL d   1      31.189  16.815 -24.097  0.00  0.00    -0.049 SA
BRANCH  19  20
ATOM     20  C   UNL d   1      30.853  16.061 -24.073  0.00  0.00     0.040 C 
BRANCH  20  21
ATOM     21  C   UNL d   1      30.034  15.980 -24.030  0.00  0.00     0.026 A 
ATOM     22  C   UNL d   1      29.675  15.704 -23.322  0.00  0.00     0.099 A 
ATOM     23  N   UNL d   1      28.860  15.617 -23.263  0.00  0.00    -0.242 NA
ATOM     24  C   UNL d   1      28.396  15.807 -23.919  0.00  0.00     0.099 A 
ATOM     25  C   UNL d   1      28.741  16.078 -24.616  0.00  0.00     0.021 A 
ATOM     26  C   UNL d   1      29.560  16.163 -24.670  0.00  0.00     0.004 A 
ENDBRANCH  20  21
ENDBRANCH  19  20
ENDBRANCH   2  19
TORSDOF 6
ENDMDL
MODEL 2
REMARK VINA RESULT:      -1.6      1.184      1.638
REMARK  6 active torsions:
REMARK  status: ('A' for Active; 'I' for Inactive)
REMARK    1  A    between atoms: N_2  and  S_1 
REMARK    2  A    between atoms: C_5  and  S_1 
REMARK    3  A    between atoms: S_6  and  C_3 
REMARK    4  A    between atoms: C_18  and  S_6 
REMARK       I    between atoms: C_9  and  N_11 
REMARK    5  A    between atoms: N_11  and  C_19 
REMARK    6  A    between atoms: C_17  and  C_18 
ROOT
ATOM      1  N   UNL d   1      32.770  18.469 -24.052  0.00  0.00    -0.208 N 
ATOM      2  C   UNL d   1      32.084  18.336 -24.505  0.00  0.00     0.189 A 
ATOM      3  N   UNL d   1      32.050  18.915 -25.096  0.00  0.00    -0.219 NA
ATOM      4  C   UNL d   1      33.160  19.134 -24.366  0.00  0.00     0.114 A 
ATOM      5  C   UNL d   1      32.715  19.404 -25.007  0.00  0.00     0.121 A 
ENDROOT
BRANCH   1   6
ATOM      6  S   UNL d   1      33.016  18.016 -23.402  0.00  0.00     0.273 S 
ATOM      7  O   UNL d   1      33.239  17.377 -22.923  0.00  0.00    -0.200 OA
ATOM      8  O   UNL d   1      32.967  17.358 -23.887  0.00  0.00    -0.200 OA
BRANCH   6   9
ATOM      9  C   UNL d   1      33.072  18.668 -22.896  0.00  0.00     0.104 A 
ATOM     10  C   UNL d   1      33.169  19.412 -23.211  0.00  0.00     0.014 A 
ATOM     11  C   UNL d   1      33.227  20.075 -22.714  0.00  0.00     0.020 A 
ATOM     12  C   UNL d   1      33.184  19.964 -21.900  0.00  0.00     0.085 A 
ATOM     13  C   UNL d   1      33.085  19.208 -21.587  0.00  0.00     0.020 A 
ATOM     14  C   UNL d   1      33.029  18.551 -22.083  0.00  0.00     0.014 A 
BRANCH  12  15
ATOM     15  N   UNL d   1      33.239  20.616 -21.394  0.00  0.00    -0.208 NA
ATOM     16  C   UNL d   1      32.632  21.170 -21.376  0.00  0.00     0.279 C 
ATOM     17  O   UNL d   1      31.968  21.089 -21.852  0.00  0.00    -0.265 OA
ATOM     18  C   UNL d   1      32.687  21.833 -20.864  0.00  0.00     0.068 C 
ENDBRANCH  12  15
ENDBRANCH   6   9
ENDBRANCH   1   6
BRANCH   2  19
ATOM     19  S   UNL d   1      31.530  17.727 -24.383  0.00  0.00    -0.049 SA
BRANCH  19  20
ATOM     20  C   UNL d   1      30.874  17.665 -24.881  0.00  0.00     0.040 C 
BRANCH  20  21
ATOM     21  C   UNL d   1      30.272  17.133 -24.700  0.00  0.00     0.026 A 
ATOM     22  C   UNL d   1      30.296  16.351 -25.007  0.00  0.00     0.099 A 
ATOM     23  N   UNL d   1      29.704  15.807 -24.837  0.00  0.00    -0.242 NA
ATOM     24  C   UNL d   1      29.079  16.046 -24.354  0.00  0.00     0.099 A 
ATOM     25  C   UNL d   1      29.048  16.810 -24.049  0.00  0.00     0.021 A 
ATOM     26  C   UNL d   1      29.646  17.352 -24.223  0.00  0.00     0.004 A 
ENDBRANCH  20  21
ENDBRANCH  19  20
ENDBRANCH   2  19
TORSDOF 6
ENDMDL
MODEL 3
REMARK VINA RESULT:      -1.1      1.004      1.399
REMARK  6 active torsions:
REMARK  status: ('A' for Active; 'I' for Inactive)
REMARK    1  A    between atoms: N_2  and  S_1 
REMARK    2  A    between atoms: C_5  and  S_1 
REMARK    3  A    between atoms: S_6  and  C_3 
REMARK    4  A    between atoms: C_18  and  S_6 
REMARK       I    between atoms: C_9  and  N_11 
REMARK    5  A    between atoms: N_11  and  C_19 
REMARK    6  A    between atoms: C_17  and  C_18 
ROOT
ATOM      1  N   UNL d   1      31.954  17.587 -24.429  0.00  0.00    -0.208 N 
ATOM      2  C   UNL d   1      31.181  17.310 -24.568  0.00  0.00     0.189 A 
ATOM      3  N   UNL d   1      30.767  17.896 -24.980  0.00  0.00    -0.219 NA
ATOM      4  C   UNL d   1      32.015  18.349 -24.758  0.00  0.00     0.114 A 
ATOM      5  C   UNL d   1      31.284  18.535 -25.096  0.00  0.00     0.121 A 
ENDROOT
BRANCH   1   6
ATOM      6  S   UNL d   1      32.553  17.173 -24.032  0.00  0.00     0.273 S 
ATOM      7  O   UNL d   1      33.086  16.581 -23.803  0.00  0.00    -0.200 OA
ATOM      8  O   UNL d   1      32.401  16.543 -24.533  0.00  0.00    -0.200 OA
BRANCH   6   9
ATOM      9  C   UNL d   1      32.722  17.799 -23.517  0.00  0.00     0.104 A 
ATOM     10  C   UNL d   1      32.545  17.724 -22.727  0.00  0.00     0.014 A 
ATOM     11  C   UNL d   1      32.710  18.345 -22.200  0.00  0.00     0.020 A 
ATOM     12  C   UNL d   1      33.053  19.033 -22.493  0.00  0.00     0.085 A 
ATOM     13  C   UNL d   1      33.230  19.101 -23.295  0.00  0.00     0.020 A 
ATOM     14  C   UNL d   1      33.065  18.483 -23.816  0.00  0.00     0.014 A 
BRANCH  12  15
ATOM     15  N   UNL d   1      33.222  19.658 -21.978  0.00  0.00    -0.208 NA
ATOM     16  C   UNL d   1      32.795  20.359 -22.035  0.00  0.00     0.279 C 
ATOM     17  O   UNL d   1      32.203  20.451 -22.596  0.00  0.00    -0.265 OA
ATOM     18  C   UNL d   1      32.964  20.994 -21.514  0.00  0.00     0.068 C 
ENDBRANCH  12  15
ENDBRANCH   6   9
ENDBRANCH   1   6
BRANCH   2  19
ATOM     19  S   UNL d   1      30.880  16.570 -24.332  0.00  0.00    -0.049 SA
BRANCH  19  20
ATOM     20  C   UNL d   1      30.162  16.304 -24.641  0.00  0.00     0.040 C 
BRANCH  20  21
ATOM     21  C   UNL d   1      29.577  16.022 -24.134  0.00  0.00     0.026 A 
ATOM     22  C   UNL d   1      28.772  16.028 -24.375  0.00  0.00     0.099 A 
ATOM     23  N   UNL d   1      28.177  15.751 -23.881  0.00  0.00    -0.242 NA
ATOM     24  C   UNL d   1      28.387  15.463 -23.136  0.00  0.00     0.099 A 
ATOM     25  C   UNL d   1      29.174  15.454 -22.893  0.00  0.00     0.021 A 
ATOM     26  C   UNL d   1      29.767  15.734 -23.393  0.00  0.00     0.004 A 
ENDBRANCH  20  21
ENDBRANCH  19  20
ENDBRANCH   2  19
TORSDOF 6
ENDMDL
