MODEL 1
REMARK VINA RESULT:      43.4      0.000      0.000
REMARK  7 active torsions:
REMARK  status: ('A' for Active; 'I' for Inactive)
REMARK    1  A    between atoms: C_6  and  C_1 
REMARK    2  A    between atoms: C_7  and  C_3 
REMARK    3  A    between atoms: O_14  and  C_6 
REMARK    4  A    between atoms: C_8  and  C_7 
REMARK    5  A    between atoms: S_10  and  C_8 
REMARK    6  A    between atoms: C_13  and  S_10 
REMARK    7  A    between atoms: C_22  and  O_14 
ROOT
ATOM      1  C   UNL d   1     -55.124-100.183 -44.263  0.00  0.00     0.083 A 
ATOM      2  C   UNL d   1     -55.068-100.770 -43.688  0.00  0.00     0.028 A 
ATOM      3  C   UNL d   1     -54.907-101.449 -44.059  0.00  0.00     0.121 A 
ATOM      4  N   UNL d   1     -54.859-101.302 -44.873  0.00  0.00    -0.242 NA
ATOM      5  C   UNL d   1     -54.995-100.531 -44.962  0.00  0.00     0.087 A 
ATOM      6  C   UNL d   1     -55.168-100.629 -42.893  0.00  0.00     0.002 C 
ATOM      7  C   UNL d   1     -55.007-100.094 -45.701  0.00  0.00     0.021 C 
ENDROOT
BRANCH   3   8
ATOM      8  C   UNL d   1     -54.819-102.147 -43.609  0.00  0.00     0.220 C 
ATOM      9  O   UNL d   1     -54.838-102.873 -43.964  0.00  0.00    -0.284 OA
BRANCH   8  10
ATOM     10  C   UNL d   1     -54.711-102.090 -42.788  0.00  0.00     0.079 C 
BRANCH  10  11
ATOM     11  S   UNL d   1     -55.344-101.951 -42.300  0.00  0.00    -0.083 SA
BRANCH  11  12
ATOM     12  C   UNL d   1     -55.255-102.080 -41.475  0.00  0.00     0.030 A 
ATOM     13  C   UNL d   1     -54.834-101.536 -41.011  0.00  0.00     0.007 A 
ATOM     14  C   UNL d   1     -54.761-101.678 -40.225  0.00  0.00     0.012 A 
ATOM     15  C   UNL d   1     -55.086-102.341 -39.857  0.00  0.00     0.058 A 
ATOM     16  C   UNL d   1     -55.487-102.852 -40.317  0.00  0.00     0.012 A 
ATOM     17 CL   UNL d   1     -55.021-102.506 -39.041  0.00  0.00    -0.082 Cl
ATOM     18  C   UNL d   1     -55.585-102.746 -41.118  0.00  0.00     0.007 A 
ENDBRANCH  11  12
ENDBRANCH  10  11
ENDBRANCH   8  10
ENDBRANCH   3   8
BRANCH   1  19
ATOM     19  C   UNL d   1     -55.289 -99.368 -44.120  0.00  0.00     0.302 C 
ATOM     20  O   UNL d   1     -54.712 -98.788 -44.310  0.00  0.00    -0.259 OA
BRANCH  19  21
ATOM     21  O   UNL d   1     -56.015 -99.116 -43.792  0.00  0.00    -0.271 OA
BRANCH  21  22
ATOM     22  C   UNL d   1     -56.570 -98.771 -44.301  0.00  0.00     0.126 C 
ATOM     23  C   UNL d   1     -57.393 -98.821 -44.128  0.00  0.00     0.029 C 
ENDBRANCH  21  22
ENDBRANCH  19  21
ENDBRANCH   1  19
TORSDOF 7
ENDMDL
MODEL 2
REMARK VINA RESULT:      46.4      1.294      1.785
REMARK  7 active torsions:
REMARK  status: ('A' for Active; 'I' for Inactive)
REMARK    1  A    between atoms: C_6  and  C_1 
REMARK    2  A    between atoms: C_7  and  C_3 
REMARK    3  A    between atoms: O_14  and  C_6 
REMARK    4  A    between atoms: C_8  and  C_7 
REMARK    5  A    between atoms: S_10  and  C_8 
REMARK    6  A    between atoms: C_13  and  S_10 
REMARK    7  A    between atoms: C_22  and  O_14 
ROOT
ATOM      1  C   UNL d   1     -56.847 -99.780 -44.769  0.00  0.00     0.083 A 
ATOM      2  C   UNL d   1     -56.442-100.423 -44.452  0.00  0.00     0.028 A 
ATOM      3  C   UNL d   1     -55.739-100.462 -44.811  0.00  0.00     0.121 A 
ATOM      4  N   UNL d   1     -55.689 -99.844 -45.362  0.00  0.00    -0.242 NA
ATOM      5  C   UNL d   1     -56.372 -99.453 -45.311  0.00  0.00     0.087 A 
ATOM      6  C   UNL d   1     -56.749-100.905 -43.872  0.00  0.00     0.002 C 
ATOM      7  C   UNL d   1     -56.603 -98.763 -45.766  0.00  0.00     0.021 C 
ENDROOT
BRANCH   3   8
ATOM      8  C   UNL d   1     -55.205-101.067 -44.598  0.00  0.00     0.220 C 
ATOM      9  O   UNL d   1     -54.997-101.641 -45.127  0.00  0.00    -0.284 OA
BRANCH   8  10
ATOM     10  C   UNL d   1     -54.887-101.076 -43.831  0.00  0.00     0.079 C 
BRANCH  10  11
ATOM     11  S   UNL d   1     -54.712-101.779 -43.468  0.00  0.00    -0.083 SA
BRANCH  11  12
ATOM     12  C   UNL d   1     -54.756-101.824 -42.630  0.00  0.00     0.030 A 
ATOM     13  C   UNL d   1     -54.722-101.132 -42.174  0.00  0.00     0.007 A 
ATOM     14  C   UNL d   1     -54.765-101.197 -41.376  0.00  0.00     0.012 A 
ATOM     15  C   UNL d   1     -54.842-101.922 -40.987  0.00  0.00     0.058 A 
ATOM     16  C   UNL d   1     -54.873-102.575 -41.441  0.00  0.00     0.012 A 
ATOM     17 CL   UNL d   1     -54.889-102.010 -40.159  0.00  0.00    -0.082 Cl
ATOM     18  C   UNL d   1     -54.832-102.554 -42.254  0.00  0.00     0.007 A 
ENDBRANCH  11  12
ENDBRANCH  10  11
ENDBRANCH   8  10
ENDBRANCH   3   8
BRANCH   1  19
ATOM     19  C   UNL d   1     -57.622 -99.529 -44.549  0.00  0.00     0.302 C 
ATOM     20  O   UNL d   1     -58.266 -99.669 -45.068  0.00  0.00    -0.259 OA
BRANCH  19  21
ATOM     21  O   UNL d   1     -57.770 -99.141 -43.824  0.00  0.00    -0.271 OA
BRANCH  21  22
ATOM     22  C   UNL d   1     -58.499 -98.759 -43.733  0.00  0.00     0.126 C 
ATOM     23  C   UNL d   1     -59.111 -99.115 -43.277  0.00  0.00     0.029 C 
ENDBRANCH  21  22
ENDBRANCH  19  21
ENDBRANCH   1  19
TORSDOF 7
ENDMDL
