MODEL 1
REMARK VINA RESULT:      43.4      0.000      0.000
REMARK  2 active torsions:
REMARK  status: ('A' for Active; 'I' for Inactive)
REMARK    1  A    between atoms: C_9  and  N_2 
REMARK    2  A    between atoms: C_7  and  C_4 
ROOT
ATOM      1  C   UNL d   1      13.855  13.609  -2.921  0.00  0.00     0.136 A 
ATOM      2  N   UNL d   1      14.107  13.321  -2.188  0.00  0.00    -0.282 N 
ATOM      3  C   UNL d   1      13.505  13.091  -3.463  0.00  0.00     0.152 A 
ATOM      4  C   UNL d   1      14.006  12.515  -2.000  0.00  0.00     0.158 A 
ATOM      5  N   UNL d   1      13.655  12.005  -2.547  0.00  0.00    -0.189 NA
ATOM      6  C   UNL d   1      13.405  12.293  -3.277  0.00  0.00     0.292 A 
ATOM      7  C   UNL d   1      13.254  13.379  -4.193  0.00  0.00     0.108 C 
ATOM      8  N   UNL d   1      13.001  13.665  -4.929  0.00  0.00    -0.191 NA
ATOM      9  S   UNL d   1      13.951  14.405  -3.114  0.00  0.00    -0.058 SA
ATOM     10  O   UNL d   1      13.052  11.781  -3.828  0.00  0.00    -0.264 OA
ENDROOT
BRANCH   2  11
ATOM     11  C   UNL d   1      14.455  13.830  -1.647  0.00  0.00     0.066 A 
ATOM     12  C   UNL d   1      15.264  13.986  -1.696  0.00  0.00     0.018 A 
ATOM     13  C   UNL d   1      15.611  14.498  -1.152  0.00  0.00     0.002 A 
ATOM     14  C   UNL d   1      15.154  14.854  -0.561  0.00  0.00     0.000 A 
ATOM     15  C   UNL d   1      14.342  14.695  -0.515  0.00  0.00     0.002 A 
ATOM     16  C   UNL d   1      15.502  15.366  -0.018  0.00  0.00     0.000 C 
ATOM     17  C   UNL d   1      13.994  14.183  -1.059  0.00  0.00     0.018 A 
ENDBRANCH   2  11
BRANCH   4  18
ATOM     18  C   UNL d   1      14.257  12.227  -1.270  0.00  0.00     0.064 A 
ATOM     19  S   UNL d   1      15.033  12.067  -1.055  0.00  0.00    -0.083 SA
ATOM     20  C   UNL d   1      15.026  11.792  -0.283  0.00  0.00     0.035 A 
ATOM     21  C   UNL d   1      14.246  11.780  -0.020  0.00  0.00     0.008 A 
ATOM     22  C   UNL d   1      13.767  12.046  -0.620  0.00  0.00     0.010 A 
ENDBRANCH   4  18
TORSDOF 2
ENDMDL
