MODEL 1
REMARK VINA RESULT:       2.3      0.000      0.000
REMARK  3 active torsions:
REMARK  status: ('A' for Active; 'I' for Inactive)
REMARK       I    between atoms: C_6  and  N_1 
REMARK    1  A    between atoms: C_11  and  C_5 
REMARK    2  A    between atoms: C_12  and  C_6 
REMARK    3  A    between atoms: C_14  and  C_15 
ROOT
ATOM      1  N   UNL d   1      32.810  20.845 -23.454  0.00  0.00    -0.264 N 
ATOM      2  C   UNL d   1      32.913  21.665 -23.391  0.00  0.00     0.198 A 
ATOM      3  C   UNL d   1      32.846  20.527 -22.705  0.00  0.00     0.138 A 
ATOM      4  N   UNL d   1      33.012  21.851 -22.604  0.00  0.00    -0.243 NA
ATOM      5  C   UNL d   1      32.971  21.145 -22.174  0.00  0.00     0.105 A 
ATOM      6  C   UNL d   1      32.688  20.401 -24.151  0.00  0.00     0.263 C 
ATOM      7  C   UNL d   1      33.028  22.446 -23.161  0.00  0.00     0.041 A 
ATOM      8  C   UNL d   1      32.813  21.482 -24.187  0.00  0.00     0.041 A 
ATOM      9  S   UNL d   1      32.770  19.723 -22.513  0.00  0.00    -0.058 SA
ATOM     10  N   UNL d   1      32.943  22.868 -24.529  0.00  0.00    -0.302 N 
ATOM     11  O   UNL d   1      32.661  20.778 -24.881  0.00  0.00    -0.267 OA
ATOM     12  C   UNL d   1      32.828  22.087 -24.759  0.00  0.00     0.080 A 
ATOM     13  C   UNL d   1      33.043  23.051 -23.734  0.00  0.00     0.080 A 
ATOM     14  C   UNL d   1      32.958  23.468 -25.096  0.00  0.00     0.100 C 
ENDROOT
BRANCH   6  15
ATOM     15  C   UNL d   1      32.597  19.589 -24.102  0.00  0.00     0.056 A 
ATOM     16  C   UNL d   1      33.241  19.110 -23.927  0.00  0.00     0.004 A 
ATOM     17  C   UNL d   1      33.146  18.295 -23.878  0.00  0.00    -0.004 A 
ATOM     18  C   UNL d   1      32.402  17.958 -24.005  0.00  0.00    -0.023 A 
ATOM     19  C   UNL d   1      31.759  18.439 -24.180  0.00  0.00    -0.004 A 
ATOM     20  C   UNL d   1      31.857  19.255 -24.228  0.00  0.00     0.004 A 
BRANCH  18  21
ATOM     21  C   UNL d   1      32.306  17.138 -23.956  0.00  0.00     0.019 C 
ATOM     22  C   UNL d   1      31.557  17.249 -23.617  0.00  0.00     0.004 C 
ATOM     23  C   UNL d   1      33.045  17.028 -24.291  0.00  0.00     0.004 C 
ATOM     24  C   UNL d   1      32.207  16.316 -23.906  0.00  0.00     0.004 C 
ENDBRANCH  18  21
ENDBRANCH   6  15
BRANCH   5  25
ATOM     25  C   UNL d   1      33.038  21.033 -21.365  0.00  0.00     0.020 A 
ATOM     26  C   UNL d   1      33.017  21.681 -20.850  0.00  0.00     0.004 A 
ATOM     27  C   UNL d   1      33.084  21.562 -20.036  0.00  0.00     0.030 A 
ATOM     28  C   UNL d   1      33.173  20.797 -19.734  0.00  0.00     0.140 A 
ATOM     29  C   UNL d   1      33.193  20.153 -20.250  0.00  0.00     0.030 A 
ATOM     30  F   UNL d   1      33.240  20.682 -18.912  0.00  0.00    -0.204 F 
ATOM     31  C   UNL d   1      33.127  20.265 -21.060  0.00  0.00     0.004 A 
ENDBRANCH   5  25
TORSDOF 3
ENDMDL
