MODEL 1
REMARK VINA RESULT:      87.8      0.000      0.000
REMARK  5 active torsions:
REMARK  status: ('A' for Active; 'I' for Inactive)
REMARK    1  A    between atoms: N_8  and  S_1 
REMARK    2  A    between atoms: C_11  and  S_1 
REMARK    3  A    between atoms: S_2  and  C_10 
REMARK    4  A    between atoms: N_9  and  S_2 
REMARK    5  A    between atoms: N_20  and  C_5 
ROOT
ATOM      1  C   UNL d   1      56.047  -0.745  32.674  0.00  0.00     0.021 A 
ATOM      2  C   UNL d   1      56.948  -1.197  31.808  0.00  0.00     0.021 A 
ATOM      3  C   UNL d   1      56.475  -1.425  32.442  0.00  0.00     0.111 A 
ATOM      4  C   UNL d   1      56.809  -0.397  31.662  0.00  0.00     0.002 A 
ATOM      5  C   UNL d   1      56.249  -0.135  32.209  0.00  0.00     0.002 A 
ATOM      6  C   UNL d   1      57.895  -1.244  30.734  0.00  0.00     0.104 A 
ATOM      7  C   UNL d   1      55.138   0.084  33.406  0.00  0.00     0.104 A 
ATOM      8  C   UNL d   1      57.485  -1.611  31.347  0.00  0.00     0.015 A 
ATOM      9  C   UNL d   1      55.489  -0.652  33.283  0.00  0.00     0.015 A 
ATOM     10  C   UNL d   1      55.898   0.601  32.331  0.00  0.00     0.001 A 
ATOM     11  C   UNL d   1      57.212  -0.012  31.050  0.00  0.00     0.001 A 
ATOM     12  C   UNL d   1      55.346   0.682  32.937  0.00  0.00     0.013 A 
ATOM     13  C   UNL d   1      57.736  -0.434  30.607  0.00  0.00     0.013 A 
ENDROOT
BRANCH   6  14
ATOM     14  S   UNL d   1      58.448  -1.665  30.257  0.00  0.00     0.271 S 
ATOM     15  O   UNL d   1      57.814  -1.944  29.768  0.00  0.00    -0.200 OA
ATOM     16  O   UNL d   1      59.054  -1.368  30.766  0.00  0.00    -0.200 OA
BRANCH  14  17
ATOM     17  N   UNL d   1      59.003  -2.066  29.807  0.00  0.00    -0.229 N 
ATOM     18  C   UNL d   1      58.795  -2.356  29.073  0.00  0.00     0.092 A 
ATOM     19  C   UNL d   1      59.358  -2.754  28.635  0.00  0.00     0.020 A 
ATOM     20  C   UNL d   1      60.120  -2.868  28.914  0.00  0.00     0.003 A 
ATOM     21  C   UNL d   1      60.334  -2.572  29.665  0.00  0.00     0.020 A 
ATOM     22  C   UNL d   1      60.685  -3.276  28.458  0.00  0.00     0.000 C 
ATOM     23  C   UNL d   1      59.766  -2.167  30.114  0.00  0.00     0.092 A 
ENDBRANCH  14  17
ENDBRANCH   6  14
BRANCH   3  24
ATOM     24  N   UNL d   1      56.422  -2.172  32.789  0.00  0.00    -0.096 NA
ATOM     25  O   UNL d   1      55.750  -2.637  32.607  0.00  0.00    -0.061 OA
ENDBRANCH   3  24
BRANCH   7  26
ATOM     26  S   UNL d   1      54.575   0.210  34.007  0.00  0.00     0.271 S 
ATOM     27  O   UNL d   1      54.009  -0.231  33.565  0.00  0.00    -0.200 OA
ATOM     28  O   UNL d   1      55.149   0.641  34.426  0.00  0.00    -0.200 OA
BRANCH  26  29
ATOM     29  N   UNL d   1      53.999   0.330  34.606  0.00  0.00    -0.229 N 
ATOM     30  C   UNL d   1      53.209   0.358  34.379  0.00  0.00     0.092 A 
ATOM     31  C   UNL d   1      52.633   0.473  34.936  0.00  0.00     0.020 A 
ATOM     32  C   UNL d   1      52.819   0.564  35.735  0.00  0.00     0.003 A 
ATOM     33  C   UNL d   1      53.624   0.536  35.968  0.00  0.00     0.020 A 
ATOM     34  C   UNL d   1      52.210   0.682  36.298  0.00  0.00     0.000 C 
ATOM     35  C   UNL d   1      54.210   0.419  35.398  0.00  0.00     0.092 A 
ENDBRANCH  26  29
ENDBRANCH   7  26
TORSDOF 5
ENDMDL
