MODEL 1
REMARK VINA RESULT:      -8.9      0.000      0.000
REMARK  3 active torsions:
REMARK  status: ('A' for Active; 'I' for Inactive)
REMARK    1  A    between atoms: C_8  and  C_1 
REMARK    2  A    between atoms: N_4  and  C_2 
REMARK       I    between atoms: C_6  and  N_4 
REMARK    3  A    between atoms: C_10  and  C_6 
ROOT
ATOM      1  C   UNL d   1     -48.926  14.639  22.807  0.00  0.00     0.177 A 
ATOM      2  C   UNL d   1     -48.806  14.097  22.185  0.00  0.00     0.114 A 
ATOM      3  O   UNL d   1     -48.250  14.629  23.271  0.00  0.00    -0.301 OA
ATOM      4  C   UNL d   1     -48.060  13.764  22.278  0.00  0.00     0.043 A 
ATOM      5  C   UNL d   1     -47.714  14.090  22.946  0.00  0.00     0.102 A 
ATOM      6  C   UNL d   1     -47.651  13.202  21.834  0.00  0.00     0.004 A 
ATOM      7  C   UNL d   1     -46.957  13.858  23.179  0.00  0.00     0.025 A 
ATOM      8  C   UNL d   1     -46.889  12.966  22.063  0.00  0.00     0.000 A 
ATOM      9  C   UNL d   1     -46.551  13.300  22.737  0.00  0.00     0.002 A 
ENDROOT
BRANCH   2  10
ATOM     10  N   UNL d   1     -49.344  13.924  21.581  0.00  0.00    -0.206 NA
ATOM     11  C   UNL d   1     -49.859  13.285  21.657  0.00  0.00     0.279 C 
ATOM     12  O   UNL d   1     -50.400  13.112  21.050  0.00  0.00    -0.265 OA
BRANCH  11  13
ATOM     13  C   UNL d   1     -49.836  12.817  22.336  0.00  0.00     0.058 A 
ATOM     14  C   UNL d   1     -49.386  12.126  22.344  0.00  0.00     0.005 A 
ATOM     15  C   UNL d   1     -49.364  11.658  23.023  0.00  0.00     0.000 A 
ATOM     16  C   UNL d   1     -49.792  11.881  23.694  0.00  0.00     0.000 A 
ATOM     17  C   UNL d   1     -50.242  12.573  23.686  0.00  0.00     0.000 A 
ATOM     18  C   UNL d   1     -50.264  13.040  23.007  0.00  0.00     0.005 A 
ENDBRANCH  11  13
ENDBRANCH   2  10
BRANCH   1  19
ATOM     19  C   UNL d   1     -49.601  15.113  22.948  0.00  0.00     0.321 C 
ATOM     20  O   UNL d   1     -49.958  15.520  22.316  0.00  0.00    -0.261 OA
ATOM     21  N   UNL d   1     -49.904  15.172  23.698  0.00  0.00    -0.101 N 
ENDBRANCH   1  19
TORSDOF 3
ENDMDL
MODEL 2
REMARK VINA RESULT:      -8.7      1.182      2.283
REMARK  3 active torsions:
REMARK  status: ('A' for Active; 'I' for Inactive)
REMARK    1  A    between atoms: C_8  and  C_1 
REMARK    2  A    between atoms: N_4  and  C_2 
REMARK       I    between atoms: C_6  and  N_4 
REMARK    3  A    between atoms: C_10  and  C_6 
ROOT
ATOM      1  C   UNL d   1     -47.833  13.792  22.770  0.00  0.00     0.177 A 
ATOM      2  C   UNL d   1     -48.423  13.702  22.187  0.00  0.00     0.114 A 
ATOM      3  O   UNL d   1     -48.097  14.364  23.294  0.00  0.00    -0.301 OA
ATOM      4  C   UNL d   1     -49.036  14.219  22.363  0.00  0.00     0.043 A 
ATOM      5  C   UNL d   1     -48.839  14.629  23.046  0.00  0.00     0.102 A 
ATOM      6  C   UNL d   1     -49.754  14.369  21.985  0.00  0.00     0.004 A 
ATOM      7  C   UNL d   1     -49.356  15.192  23.357  0.00  0.00     0.025 A 
ATOM      8  C   UNL d   1     -50.277  14.934  22.295  0.00  0.00     0.000 A 
ATOM      9  C   UNL d   1     -50.069  15.340  22.981  0.00  0.00     0.002 A 
ENDROOT
BRANCH   2  10
ATOM     10  N   UNL d   1     -48.394  13.183  21.544  0.00  0.00    -0.206 NA
ATOM     11  C   UNL d   1     -48.738  12.435  21.600  0.00  0.00     0.279 C 
ATOM     12  O   UNL d   1     -48.709  11.914  20.954  0.00  0.00    -0.265 OA
BRANCH  11  13
ATOM     13  C   UNL d   1     -49.112  12.207  22.299  0.00  0.00     0.058 A 
ATOM     14  C   UNL d   1     -49.929  12.297  22.377  0.00  0.00     0.005 A 
ATOM     15  C   UNL d   1     -50.303  12.068  23.076  0.00  0.00     0.000 A 
ATOM     16  C   UNL d   1     -49.860  11.750  23.698  0.00  0.00     0.000 A 
ATOM     17  C   UNL d   1     -49.043  11.660  23.620  0.00  0.00     0.000 A 
ATOM     18  C   UNL d   1     -48.670  11.889  22.921  0.00  0.00     0.005 A 
ENDBRANCH  11  13
ENDBRANCH   2  10
BRANCH   1  19
ATOM     19  C   UNL d   1     -47.104  13.385  22.826  0.00  0.00     0.321 C 
ATOM     20  O   UNL d   1     -46.897  13.006  23.538  0.00  0.00    -0.261 OA
ATOM     21  N   UNL d   1     -46.604  13.360  22.188  0.00  0.00    -0.101 N 
ENDBRANCH   1  19
TORSDOF 3
ENDMDL
MODEL 3
REMARK VINA RESULT:      -8.6      1.328      2.180
REMARK  3 active torsions:
REMARK  status: ('A' for Active; 'I' for Inactive)
REMARK    1  A    between atoms: C_8  and  C_1 
REMARK    2  A    between atoms: N_4  and  C_2 
REMARK       I    between atoms: C_6  and  N_4 
REMARK    3  A    between atoms: C_10  and  C_6 
ROOT
ATOM      1  C   UNL d   1     -48.644  12.169  22.955  0.00  0.00     0.177 A 
ATOM      2  C   UNL d   1     -48.360  12.628  22.318  0.00  0.00     0.114 A 
ATOM      3  O   UNL d   1     -48.069  12.186  23.539  0.00  0.00    -0.301 OA
ATOM      4  C   UNL d   1     -47.619  12.917  22.523  0.00  0.00     0.043 A 
ATOM      5  C   UNL d   1     -47.435  12.647  23.275  0.00  0.00     0.102 A 
ATOM      6  C   UNL d   1     -47.085  13.395  22.115  0.00  0.00     0.004 A 
ATOM      7  C   UNL d   1     -46.718  12.851  23.628  0.00  0.00     0.025 A 
ATOM      8  C   UNL d   1     -46.362  13.604  22.465  0.00  0.00     0.000 A 
ATOM      9  C   UNL d   1     -46.188  13.326  23.222  0.00  0.00     0.002 A 
ENDROOT
BRANCH   2  10
ATOM     10  N   UNL d   1     -48.757  12.766  21.606  0.00  0.00    -0.206 NA
ATOM     11  C   UNL d   1     -49.225  13.440  21.518  0.00  0.00     0.279 C 
ATOM     12  O   UNL d   1     -49.624  13.579  20.803  0.00  0.00    -0.265 OA
BRANCH  11  13
ATOM     13  C   UNL d   1     -49.297  13.975  22.142  0.00  0.00     0.058 A 
ATOM     14  C   UNL d   1     -48.809  14.640  22.171  0.00  0.00     0.005 A 
ATOM     15  C   UNL d   1     -48.881  15.175  22.794  0.00  0.00     0.000 A 
ATOM     16  C   UNL d   1     -49.440  15.045  23.389  0.00  0.00     0.000 A 
ATOM     17  C   UNL d   1     -49.928  14.381  23.360  0.00  0.00     0.000 A 
ATOM     18  C   UNL d   1     -49.856  13.845  22.737  0.00  0.00     0.005 A 
ENDBRANCH  11  13
ENDBRANCH   2  10
BRANCH   1  19
ATOM     19  C   UNL d   1     -49.373  11.762  23.006  0.00  0.00     0.321 C 
ATOM     20  O   UNL d   1     -49.659  11.346  22.344  0.00  0.00    -0.261 OA
ATOM     21  N   UNL d   1     -49.796  11.775  23.697  0.00  0.00    -0.101 N 
ENDBRANCH   1  19
TORSDOF 3
ENDMDL
MODEL 4
REMARK VINA RESULT:      -8.2      1.441      2.619
REMARK  3 active torsions:
REMARK  status: ('A' for Active; 'I' for Inactive)
REMARK    1  A    between atoms: C_8  and  C_1 
REMARK    2  A    between atoms: N_4  and  C_2 
REMARK       I    between atoms: C_6  and  N_4 
REMARK    3  A    between atoms: C_10  and  C_6 
ROOT
ATOM      1  C   UNL d   1     -47.805  13.813  22.859  0.00  0.00     0.177 A 
ATOM      2  C   UNL d   1     -48.459  13.555  23.309  0.00  0.00     0.114 A 
ATOM      3  O   UNL d   1     -47.979  14.567  22.589  0.00  0.00    -0.301 OA
ATOM      4  C   UNL d   1     -49.021  14.155  23.307  0.00  0.00     0.043 A 
ATOM      5  C   UNL d   1     -48.729  14.781  22.864  0.00  0.00     0.102 A 
ATOM      6  C   UNL d   1     -49.766  14.208  23.655  0.00  0.00     0.004 A 
ATOM      7  C   UNL d   1     -49.178  15.466  22.765  0.00  0.00     0.025 A 
ATOM      8  C   UNL d   1     -50.222  14.896  23.559  0.00  0.00     0.000 A 
ATOM      9  C   UNL d   1     -49.919  15.518  23.112  0.00  0.00     0.002 A 
ENDROOT
BRANCH   2  10
ATOM     10  N   UNL d   1     -48.527  12.825  23.690  0.00  0.00    -0.206 NA
ATOM     11  C   UNL d   1     -48.913  12.199  23.315  0.00  0.00     0.279 C 
ATOM     12  O   UNL d   1     -48.982  11.464  23.698  0.00  0.00    -0.265 OA
BRANCH  11  13
ATOM     13  C   UNL d   1     -49.230  12.303  22.561  0.00  0.00     0.058 A 
ATOM     14  C   UNL d   1     -50.031  12.477  22.472  0.00  0.00     0.005 A 
ATOM     15  C   UNL d   1     -50.348  12.581  21.718  0.00  0.00     0.000 A 
ATOM     16  C   UNL d   1     -49.863  12.511  21.052  0.00  0.00     0.000 A 
ATOM     17  C   UNL d   1     -49.062  12.337  21.140  0.00  0.00     0.000 A 
ATOM     18  C   UNL d   1     -48.745  12.233  21.895  0.00  0.00     0.005 A 
ENDBRANCH  11  13
ENDBRANCH   2  10
BRANCH   1  19
ATOM     19  C   UNL d   1     -47.097  13.395  22.702  0.00  0.00     0.321 C 
ATOM     20  O   UNL d   1     -46.856  13.275  21.914  0.00  0.00    -0.261 OA
ATOM     21  N   UNL d   1     -46.651  13.111  23.316  0.00  0.00    -0.101 N 
ENDBRANCH   1  19
TORSDOF 3
ENDMDL
MODEL 5
REMARK VINA RESULT:      -7.9      1.592      3.168
REMARK  3 active torsions:
REMARK  status: ('A' for Active; 'I' for Inactive)
REMARK    1  A    between atoms: C_8  and  C_1 
REMARK    2  A    between atoms: N_4  and  C_2 
REMARK       I    between atoms: C_6  and  N_4 
REMARK    3  A    between atoms: C_10  and  C_6 
ROOT
ATOM      1  C   UNL d   1     -48.936  11.874  23.009  0.00  0.00     0.177 A 
ATOM      2  C   UNL d   1     -49.185  12.286  22.328  0.00  0.00     0.114 A 
ATOM      3  O   UNL d   1     -49.431  12.098  23.622  0.00  0.00    -0.301 OA
ATOM      4  C   UNL d   1     -49.827  12.755  22.535  0.00  0.00     0.043 A 
ATOM      5  C   UNL d   1     -49.982  12.642  23.333  0.00  0.00     0.102 A 
ATOM      6  C   UNL d   1     -50.292  13.274  22.094  0.00  0.00     0.004 A 
ATOM      7  C   UNL d   1     -50.603  13.045  23.698  0.00  0.00     0.025 A 
ATOM      8  C   UNL d   1     -50.918  13.682  22.457  0.00  0.00     0.000 A 
ATOM      9  C   UNL d   1     -51.064  13.561  23.259  0.00  0.00     0.002 A 
ENDROOT
BRANCH   2  10
ATOM     10  N   UNL d   1     -48.844  12.232  21.576  0.00  0.00    -0.206 NA
ATOM     11  C   UNL d   1     -48.257  12.765  21.349  0.00  0.00     0.279 C 
ATOM     12  O   UNL d   1     -47.915  12.710  20.594  0.00  0.00    -0.265 OA
BRANCH  11  13
ATOM     13  C   UNL d   1     -48.011  13.353  21.873  0.00  0.00     0.058 A 
ATOM     14  C   UNL d   1     -47.400  13.199  22.406  0.00  0.00     0.005 A 
ATOM     15  C   UNL d   1     -47.153  13.786  22.930  0.00  0.00     0.000 A 
ATOM     16  C   UNL d   1     -47.518  14.528  22.921  0.00  0.00     0.000 A 
ATOM     17  C   UNL d   1     -48.128  14.682  22.388  0.00  0.00     0.000 A 
ATOM     18  C   UNL d   1     -48.375  14.095  21.864  0.00  0.00     0.005 A 
ENDBRANCH  11  13
ENDBRANCH   2  10
BRANCH   1  19
ATOM     19  C   UNL d   1     -48.303  11.330  23.073  0.00  0.00     0.321 C 
ATOM     20  O   UNL d   1     -48.214  10.731  22.502  0.00  0.00    -0.261 OA
ATOM     21  N   UNL d   1     -47.780  11.389  23.690  0.00  0.00    -0.101 N 
ENDBRANCH   1  19
TORSDOF 3
ENDMDL
MODEL 6
REMARK VINA RESULT:      -6.4      1.674      2.474
REMARK  3 active torsions:
REMARK  status: ('A' for Active; 'I' for Inactive)
REMARK    1  A    between atoms: C_8  and  C_1 
REMARK    2  A    between atoms: N_4  and  C_2 
REMARK       I    between atoms: C_6  and  N_4 
REMARK    3  A    between atoms: C_10  and  C_6 
ROOT
ATOM      1  C   UNL d   1     -49.368  12.153  23.617  0.00  0.00     0.177 A 
ATOM      2  C   UNL d   1     -48.775  12.738  23.562  0.00  0.00     0.114 A 
ATOM      3  O   UNL d   1     -48.989  11.429  23.676  0.00  0.00    -0.301 OA
ATOM      4  C   UNL d   1     -48.045  12.363  23.589  0.00  0.00     0.043 A 
ATOM      5  C   UNL d   1     -48.171  11.555  23.659  0.00  0.00     0.102 A 
ATOM      6  C   UNL d   1     -47.275  12.658  23.557  0.00  0.00     0.004 A 
ATOM      7  C   UNL d   1     -47.533  11.035  23.698  0.00  0.00     0.025 A 
ATOM      8  C   UNL d   1     -46.628  12.139  23.597  0.00  0.00     0.000 A 
ATOM      9  C   UNL d   1     -46.768  11.330  23.667  0.00  0.00     0.002 A 
ENDROOT
BRANCH   2  10
ATOM     10  N   UNL d   1     -48.902  13.552  23.494  0.00  0.00    -0.206 NA
ATOM     11  C   UNL d   1     -48.948  13.902  22.748  0.00  0.00     0.279 C 
ATOM     12  O   UNL d   1     -49.076  14.720  22.679  0.00  0.00    -0.265 OA
BRANCH  11  13
ATOM     13  C   UNL d   1     -48.867  13.438  22.071  0.00  0.00     0.058 A 
ATOM     14  C   UNL d   1     -48.131  13.372  21.703  0.00  0.00     0.005 A 
ATOM     15  C   UNL d   1     -48.050  12.908  21.026  0.00  0.00     0.000 A 
ATOM     16  C   UNL d   1     -48.705  12.510  20.716  0.00  0.00     0.000 A 
ATOM     17  C   UNL d   1     -49.441  12.576  21.083  0.00  0.00     0.000 A 
ATOM     18  C   UNL d   1     -49.522  13.040  21.760  0.00  0.00     0.005 A 
ENDBRANCH  11  13
ENDBRANCH   2  10
BRANCH   1  19
ATOM     19  C   UNL d   1     -50.197  12.265  23.614  0.00  0.00     0.321 C 
ATOM     20  O   UNL d   1     -50.510  13.032  23.698  0.00  0.00    -0.261 OA
ATOM     21  N   UNL d   1     -50.691  11.628  23.529  0.00  0.00    -0.101 N 
ENDBRANCH   1  19
TORSDOF 3
ENDMDL
MODEL 7
REMARK VINA RESULT:      -6.2      8.959     10.582
REMARK  3 active torsions:
REMARK  status: ('A' for Active; 'I' for Inactive)
REMARK    1  A    between atoms: C_8  and  C_1 
REMARK    2  A    between atoms: N_4  and  C_2 
REMARK       I    between atoms: C_6  and  N_4 
REMARK    3  A    between atoms: C_10  and  C_6 
ROOT
ATOM      1  C   UNL d   1     -40.521  15.045  18.245  0.00  0.00     0.177 A 
ATOM      2  C   UNL d   1     -39.799  15.279  18.591  0.00  0.00     0.114 A 
ATOM      3  O   UNL d   1     -40.952  14.656  18.823  0.00  0.00    -0.301 OA
ATOM      4  C   UNL d   1     -39.800  15.030  19.374  0.00  0.00     0.043 A 
ATOM      5  C   UNL d   1     -40.509  14.646  19.522  0.00  0.00     0.102 A 
ATOM      6  C   UNL d   1     -39.240  15.107  19.974  0.00  0.00     0.004 A 
ATOM      7  C   UNL d   1     -40.666  14.334  20.269  0.00  0.00     0.025 A 
ATOM      8  C   UNL d   1     -39.393  14.796  20.729  0.00  0.00     0.000 A 
ATOM      9  C   UNL d   1     -40.109  14.411  20.865  0.00  0.00     0.002 A 
ENDROOT
BRANCH   2  10
ATOM     10  N   UNL d   1     -39.190  15.690  18.211  0.00  0.00    -0.206 NA
ATOM     11  C   UNL d   1     -38.567  15.276  17.864  0.00  0.00     0.279 C 
ATOM     12  O   UNL d   1     -37.955  15.689  17.482  0.00  0.00    -0.265 OA
BRANCH  11  13
ATOM     13  C   UNL d   1     -38.551  14.452  17.897  0.00  0.00     0.058 A 
ATOM     14  C   UNL d   1     -38.127  14.072  18.493  0.00  0.00     0.005 A 
ATOM     15  C   UNL d   1     -38.111  13.248  18.526  0.00  0.00     0.000 A 
ATOM     16  C   UNL d   1     -38.521  12.803  17.962  0.00  0.00     0.000 A 
ATOM     17  C   UNL d   1     -38.946  13.183  17.366  0.00  0.00     0.000 A 
ATOM     18  C   UNL d   1     -38.961  14.007  17.333  0.00  0.00     0.005 A 
ENDBRANCH  11  13
ENDBRANCH   2  10
BRANCH   1  19
ATOM     19  C   UNL d   1     -40.775  15.173  17.458  0.00  0.00     0.321 C 
ATOM     20  O   UNL d   1     -41.043  14.530  17.001  0.00  0.00    -0.261 OA
ATOM     21  N   UNL d   1     -40.759  15.920  17.144  0.00  0.00    -0.101 N 
ENDBRANCH   1  19
TORSDOF 3
ENDMDL
