MODEL 1
REMARK VINA RESULT:       0.6      0.000      0.000
REMARK  3 active torsions:
REMARK  status: ('A' for Active; 'I' for Inactive)
REMARK    1  A    between atoms: N_2  and  S_1 
REMARK    2  A    between atoms: C_3  and  S_1 
REMARK    3  A    between atoms: C_10  and  C_9 
ROOT
ATOM      1  C   UNL d   1     -41.677-121.480 -52.099  0.00  0.00     0.104 A 
ATOM      2  C   UNL d   1     -42.160-122.258 -50.716  0.00  0.00     0.000 A 
ATOM      3  C   UNL d   1     -41.123-121.866 -51.627  0.00  0.00     0.013 A 
ATOM      4  C   UNL d   1     -42.471-121.482 -51.882  0.00  0.00     0.013 A 
ATOM      5  C   UNL d   1     -42.714-121.873 -51.187  0.00  0.00     0.001 A 
ATOM      6  C   UNL d   1     -41.365-122.257 -50.932  0.00  0.00     0.001 A 
ENDROOT
BRANCH   1   7
ATOM      7  S   UNL d   1     -41.432-121.094 -52.785  0.00  0.00     0.271 S 
ATOM      8  O   UNL d   1     -41.239-120.428 -52.348  0.00  0.00    -0.200 OA
ATOM      9  O   UNL d   1     -41.189-120.710 -53.464  0.00  0.00    -0.200 OA
BRANCH   7  10
ATOM     10  N   UNL d   1     -41.624-121.758 -53.221  0.00  0.00    -0.226 N 
ATOM     11  C   UNL d   1     -41.123-122.412 -53.220  0.00  0.00     0.111 A 
ATOM     12  C   UNL d   1     -41.328-123.077 -53.664  0.00  0.00     0.100 A 
ATOM     13  N   UNL d   1     -42.021-123.091 -54.102  0.00  0.00    -0.299 N 
ATOM     14  C   UNL d   1     -42.524-122.441 -54.106  0.00  0.00     0.100 A 
ATOM     15  C   UNL d   1     -42.215-123.761 -54.542  0.00  0.00     0.100 C 
ATOM     16  C   UNL d   1     -42.328-121.766 -53.664  0.00  0.00     0.111 A 
ENDBRANCH   7  10
ENDBRANCH   1   7
BRANCH   2  17
ATOM     17  C   UNL d   1     -42.393-122.643 -50.035  0.00  0.00     0.000 A 
ATOM     18  C   UNL d   1     -42.868-122.253 -49.477  0.00  0.00     0.000 A 
ATOM     19  C   UNL d   1     -43.101-122.646 -48.790  0.00  0.00     0.000 A 
ATOM     20  C   UNL d   1     -42.863-123.422 -48.658  0.00  0.00     0.000 A 
ATOM     21  C   UNL d   1     -42.385-123.817 -49.216  0.00  0.00     0.000 A 
ATOM     22  C   UNL d   1     -43.096-123.815 -47.971  0.00  0.00     0.000 C 
ATOM     23  C   UNL d   1     -42.155-123.421 -49.902  0.00  0.00     0.000 A 
ENDBRANCH   2  17
TORSDOF 3
ENDMDL
MODEL 2
REMARK VINA RESULT:       2.1      2.131      4.298
REMARK  3 active torsions:
REMARK  status: ('A' for Active; 'I' for Inactive)
REMARK    1  A    between atoms: N_2  and  S_1 
REMARK    2  A    between atoms: C_3  and  S_1 
REMARK    3  A    between atoms: C_10  and  C_9 
ROOT
ATOM      1  C   UNL d   1     -41.773-123.281 -50.820  0.00  0.00     0.104 A 
ATOM      2  C   UNL d   1     -41.621-122.975 -52.443  0.00  0.00     0.000 A 
ATOM      3  C   UNL d   1     -41.390-122.598 -51.078  0.00  0.00     0.013 A 
ATOM      4  C   UNL d   1     -42.079-123.810 -51.371  0.00  0.00     0.013 A 
ATOM      5  C   UNL d   1     -42.003-123.656 -52.186  0.00  0.00     0.001 A 
ATOM      6  C   UNL d   1     -41.314-122.444 -51.893  0.00  0.00     0.001 A 
ENDROOT
BRANCH   1   7
ATOM      7  S   UNL d   1     -41.846-123.429 -50.012  0.00  0.00     0.271 S 
ATOM      8  O   UNL d   1     -41.123-123.816 -50.012  0.00  0.00    -0.200 OA
ATOM      9  O   UNL d   1     -41.916-123.578 -49.212  0.00  0.00    -0.200 OA
BRANCH   7  10
ATOM     10  N   UNL d   1     -42.567-123.044 -50.012  0.00  0.00    -0.226 N 
ATOM     11  C   UNL d   1     -42.595-122.221 -50.012  0.00  0.00     0.111 A 
ATOM     12  C   UNL d   1     -43.329-121.844 -50.012  0.00  0.00     0.100 A 
ATOM     13  N   UNL d   1     -44.024-122.280 -50.011  0.00  0.00    -0.299 N 
ATOM     14  C   UNL d   1     -44.000-123.101 -50.011  0.00  0.00     0.100 A 
ATOM     15  C   UNL d   1     -44.752-121.891 -50.011  0.00  0.00     0.100 C 
ATOM     16  C   UNL d   1     -43.268-123.492 -50.011  0.00  0.00     0.111 A 
ENDBRANCH   7  10
ENDBRANCH   1   7
BRANCH   2  17
ATOM     17  C   UNL d   1     -41.543-122.819 -53.241  0.00  0.00     0.000 A 
ATOM     18  C   UNL d   1     -41.733-122.069 -53.541  0.00  0.00     0.000 A 
ATOM     19  C   UNL d   1     -41.654-121.917 -54.348  0.00  0.00     0.000 A 
ATOM     20  C   UNL d   1     -41.387-122.508 -54.854  0.00  0.00     0.000 A 
ATOM     21  C   UNL d   1     -41.195-123.263 -54.556  0.00  0.00     0.000 A 
ATOM     22  C   UNL d   1     -41.307-122.356 -55.661  0.00  0.00     0.000 C 
ATOM     23  C   UNL d   1     -41.276-123.411 -53.748  0.00  0.00     0.000 A 
ENDBRANCH   2  17
TORSDOF 3
ENDMDL
