MODEL 1
REMARK VINA RESULT:      -5.6      0.000      0.000
REMARK  7 active torsions:
REMARK  status: ('A' for Active; 'I' for Inactive)
REMARK    1  A    between atoms: C_8  and  C_2 
REMARK    2  A    between atoms: C_12  and  N_3 
REMARK    3  A    between atoms: C_6  and  C_4 
REMARK       I    between atoms: C_7  and  N_13 
REMARK    4  A    between atoms: C_9  and  C_7 
REMARK    5  A    between atoms: N_13  and  C_8 
REMARK    6  A    between atoms: C_11  and  C_9 
REMARK    7  A    between atoms: C_10  and  C_11 
ROOT
ATOM      1  N   UNL d   1     -39.209  15.042  19.966  0.00  0.00    -0.165 NA
ATOM      2  C   UNL d   1     -40.450  14.590  20.485  0.00  0.00     0.071 A 
ATOM      3  N   UNL d   1     -40.335  14.947  19.107  0.00  0.00    -0.228 N 
ATOM      4  C   UNL d   1     -39.666  14.772  20.594  0.00  0.00     0.105 A 
ATOM      5  C   UNL d   1     -40.792  14.677  19.735  0.00  0.00     0.105 A 
ENDROOT
BRANCH   2   6
ATOM      6  C   UNL d   1     -40.907  14.320  21.113  0.00  0.00     0.168 C 
BRANCH   6   7
ATOM      7  N   UNL d   1     -41.557  13.818  20.974  0.00  0.00    -0.362 NA
ATOM      8  C   UNL d   1     -42.212  13.313  20.839  0.00  0.00     0.329 C 
ATOM      9  O   UNL d   1     -42.291  12.914  20.109  0.00  0.00    -0.251 OA
BRANCH   8  10
ATOM     10  C   UNL d   1     -42.793  13.206  21.437  0.00  0.00     0.082 C 
BRANCH  10  11
ATOM     11  C   UNL d   1     -43.493  12.769  21.269  0.00  0.00     0.076 C 
BRANCH  11  12
ATOM     12  C   UNL d   1     -44.048  12.622  21.873  0.00  0.00     0.211 C 
ATOM     13  O   UNL d   1     -43.969  11.932  22.337  0.00  0.00    -0.644 OA
ATOM     14  O   UNL d   1     -44.666  13.160  22.000  0.00  0.00    -0.644 OA
ENDBRANCH  11  12
ENDBRANCH  10  11
ENDBRANCH   8  10
ENDBRANCH   6   7
ENDBRANCH   2   6
BRANCH   4  15
ATOM     15  C   UNL d   1     -39.316  14.688  21.343  0.00  0.00     0.020 A 
ATOM     16  C   UNL d   1     -38.898  14.017  21.519  0.00  0.00     0.008 A 
ATOM     17  C   UNL d   1     -38.554  13.936  22.259  0.00  0.00     0.035 A 
ATOM     18 BR   UNL d   1     -38.131  13.262  22.445  0.00  0.00    -0.049 Br
ATOM     19  C   UNL d   1     -38.639  14.547  22.819  0.00  0.00     0.007 A 
ATOM     20  C   UNL d   1     -39.062  15.225  22.638  0.00  0.00     0.001 A 
ATOM     21  C   UNL d   1     -39.400  15.296  21.900  0.00  0.00     0.002 A 
ENDBRANCH   4  15
BRANCH   3  22
ATOM     22  C   UNL d   1     -40.470  15.099  18.315  0.00  0.00     0.083 A 
ATOM     23  C   UNL d   1     -40.897  15.768  18.105  0.00  0.00     0.019 A 
ATOM     24  C   UNL d   1     -41.033  15.922  17.304  0.00  0.00     0.002 A 
ATOM     25  C   UNL d   1     -40.743  15.408  16.727  0.00  0.00     0.000 A 
ATOM     26  C   UNL d   1     -40.314  14.739  16.950  0.00  0.00     0.002 A 
ATOM     27  C   UNL d   1     -40.181  14.589  17.744  0.00  0.00     0.019 A 
ENDBRANCH   3  22
TORSDOF 7
ENDMDL
MODEL 2
REMARK VINA RESULT:      -5.1      6.438      8.563
REMARK  7 active torsions:
REMARK  status: ('A' for Active; 'I' for Inactive)
REMARK    1  A    between atoms: C_8  and  C_2 
REMARK    2  A    between atoms: C_12  and  N_3 
REMARK    3  A    between atoms: C_6  and  C_4 
REMARK       I    between atoms: C_7  and  N_13 
REMARK    4  A    between atoms: C_9  and  C_7 
REMARK    5  A    between atoms: N_13  and  C_8 
REMARK    6  A    between atoms: C_11  and  C_9 
REMARK    7  A    between atoms: C_10  and  C_11 
ROOT
ATOM      1  N   UNL d   1     -47.527  10.848  22.936  0.00  0.00    -0.165 NA
ATOM      2  C   UNL d   1     -47.407  12.175  23.426  0.00  0.00     0.071 A 
ATOM      3  N   UNL d   1     -46.252  11.342  23.317  0.00  0.00    -0.228 N 
ATOM      4  C   UNL d   1     -47.867  11.569  23.137  0.00  0.00     0.105 A 
ATOM      5  C   UNL d   1     -46.591  12.063  23.518  0.00  0.00     0.105 A 
ENDROOT
BRANCH   2   6
ATOM      6  C   UNL d   1     -47.747  12.896  23.626  0.00  0.00     0.168 C 
BRANCH   6   7
ATOM      7  N   UNL d   1     -47.459  13.603  23.293  0.00  0.00    -0.362 NA
ATOM      8  C   UNL d   1     -47.173  14.317  22.958  0.00  0.00     0.329 C 
ATOM      9  O   UNL d   1     -46.431  14.332  22.574  0.00  0.00    -0.251 OA
BRANCH   8  10
ATOM     10  C   UNL d   1     -47.632  15.019  23.008  0.00  0.00     0.082 C 
BRANCH  10  11
ATOM     11  C   UNL d   1     -48.024  15.313  22.323  0.00  0.00     0.076 C 
BRANCH  11  12
ATOM     12  C   UNL d   1     -48.812  15.579  22.374  0.00  0.00     0.211 C 
ATOM     13  O   UNL d   1     -49.309  15.504  21.707  0.00  0.00    -0.644 OA
ATOM     14  O   UNL d   1     -49.087  15.911  23.083  0.00  0.00    -0.644 OA
ENDBRANCH  11  12
ENDBRANCH  10  11
ENDBRANCH   8  10
ENDBRANCH   6   7
ENDBRANCH   2   6
BRANCH   4  15
ATOM     15  C   UNL d   1     -48.685  11.672  23.042  0.00  0.00     0.020 A 
ATOM     16  C   UNL d   1     -48.986  11.861  22.315  0.00  0.00     0.008 A 
ATOM     17  C   UNL d   1     -49.794  11.962  22.223  0.00  0.00     0.035 A 
ATOM     18 BR   UNL d   1     -50.105  12.153  21.491  0.00  0.00    -0.049 Br
ATOM     19  C   UNL d   1     -50.295  11.869  22.882  0.00  0.00     0.007 A 
ATOM     20  C   UNL d   1     -49.989  11.677  23.617  0.00  0.00     0.001 A 
ATOM     21  C   UNL d   1     -49.184  11.579  23.698  0.00  0.00     0.002 A 
ENDBRANCH   4  15
BRANCH   3  22
ATOM     22  C   UNL d   1     -45.495  11.034  23.330  0.00  0.00     0.083 A 
ATOM     23  C   UNL d   1     -44.885  11.461  22.983  0.00  0.00     0.019 A 
ATOM     24  C   UNL d   1     -44.119  11.149  22.996  0.00  0.00     0.002 A 
ATOM     25  C   UNL d   1     -43.974  10.419  23.352  0.00  0.00     0.000 A 
ATOM     26  C   UNL d   1     -44.594   9.999  23.698  0.00  0.00     0.002 A 
ATOM     27  C   UNL d   1     -45.353  10.310  23.684  0.00  0.00     0.019 A 
ENDBRANCH   3  22
TORSDOF 7
ENDMDL
MODEL 3
REMARK VINA RESULT:      -4.8      1.616      3.776
REMARK  7 active torsions:
REMARK  status: ('A' for Active; 'I' for Inactive)
REMARK    1  A    between atoms: C_8  and  C_2 
REMARK    2  A    between atoms: C_12  and  N_3 
REMARK    3  A    between atoms: C_6  and  C_4 
REMARK       I    between atoms: C_7  and  N_13 
REMARK    4  A    between atoms: C_9  and  C_7 
REMARK    5  A    between atoms: N_13  and  C_8 
REMARK    6  A    between atoms: C_11  and  C_9 
REMARK    7  A    between atoms: C_10  and  C_11 
ROOT
ATOM      1  N   UNL d   1     -38.201  14.603  19.937  0.00  0.00    -0.165 NA
ATOM      2  C   UNL d   1     -39.590  14.358  20.100  0.00  0.00     0.071 A 
ATOM      3  N   UNL d   1     -38.785  14.705  21.227  0.00  0.00    -0.228 N 
ATOM      4  C   UNL d   1     -38.934  14.407  19.621  0.00  0.00     0.105 A 
ATOM      5  C   UNL d   1     -39.518  14.508  20.911  0.00  0.00     0.105 A 
ENDROOT
BRANCH   2   6
ATOM      6  C   UNL d   1     -40.323  14.162  19.784  0.00  0.00     0.168 C 
BRANCH   6   7
ATOM      7  N   UNL d   1     -40.999  14.149  20.269  0.00  0.00    -0.362 NA
ATOM      8  C   UNL d   1     -41.682  14.131  20.757  0.00  0.00     0.329 C 
ATOM      9  O   UNL d   1     -41.946  14.829  21.133  0.00  0.00    -0.251 OA
BRANCH   8  10
ATOM     10  C   UNL d   1     -42.102  13.412  20.869  0.00  0.00     0.082 C 
BRANCH  10  11
ATOM     11  C   UNL d   1     -42.782  13.396  21.364  0.00  0.00     0.076 C 
BRANCH  11  12
ATOM     12  C   UNL d   1     -43.241  12.704  21.421  0.00  0.00     0.211 C 
ATOM     13  O   UNL d   1     -43.033  12.125  21.987  0.00  0.00    -0.644 OA
ATOM     14  O   UNL d   1     -43.893  12.602  20.919  0.00  0.00    -0.644 OA
ENDBRANCH  11  12
ENDBRANCH  10  11
ENDBRANCH   8  10
ENDBRANCH   6   7
ENDBRANCH   2   6
BRANCH   4  15
ATOM     15  C   UNL d   1     -38.998  14.258  18.806  0.00  0.00     0.020 A 
ATOM     16  C   UNL d   1     -39.108  14.873  18.292  0.00  0.00     0.008 A 
ATOM     17  C   UNL d   1     -39.170  14.724  17.488  0.00  0.00     0.035 A 
ATOM     18 BR   UNL d   1     -39.281  15.339  16.962  0.00  0.00    -0.049 Br
ATOM     19  C   UNL d   1     -39.119  13.939  17.213  0.00  0.00     0.007 A 
ATOM     20  C   UNL d   1     -39.007  13.319  17.735  0.00  0.00     0.001 A 
ATOM     21  C   UNL d   1     -38.947  13.477  18.532  0.00  0.00     0.002 A 
ENDBRANCH   4  15
BRANCH   3  22
ATOM     22  C   UNL d   1     -38.504  14.884  21.974  0.00  0.00     0.083 A 
ATOM     23  C   UNL d   1     -38.434  15.673  22.193  0.00  0.00     0.019 A 
ATOM     24  C   UNL d   1     -38.150  15.854  22.949  0.00  0.00     0.002 A 
ATOM     25  C   UNL d   1     -37.942  15.251  23.471  0.00  0.00     0.000 A 
ATOM     26  C   UNL d   1     -38.017  14.462  23.239  0.00  0.00     0.002 A 
ATOM     27  C   UNL d   1     -38.298  14.284  22.490  0.00  0.00     0.019 A 
ENDBRANCH   3  22
TORSDOF 7
ENDMDL
MODEL 4
REMARK VINA RESULT:      -3.0      1.788      4.016
REMARK  7 active torsions:
REMARK  status: ('A' for Active; 'I' for Inactive)
REMARK    1  A    between atoms: C_8  and  C_2 
REMARK    2  A    between atoms: C_12  and  N_3 
REMARK    3  A    between atoms: C_6  and  C_4 
REMARK       I    between atoms: C_7  and  N_13 
REMARK    4  A    between atoms: C_9  and  C_7 
REMARK    5  A    between atoms: N_13  and  C_8 
REMARK    6  A    between atoms: C_11  and  C_9 
REMARK    7  A    between atoms: C_10  and  C_11 
ROOT
ATOM      1  N   UNL d   1     -40.684  13.749  22.128  0.00  0.00    -0.165 NA
ATOM      2  C   UNL d   1     -40.624  14.301  20.821  0.00  0.00     0.071 A 
ATOM      3  N   UNL d   1     -41.818  13.663  21.277  0.00  0.00    -0.228 N 
ATOM      4  C   UNL d   1     -40.272  14.145  21.537  0.00  0.00     0.105 A 
ATOM      5  C   UNL d   1     -41.405  14.058  20.687  0.00  0.00     0.105 A 
ENDROOT
BRANCH   2   6
ATOM      6  C   UNL d   1     -40.212  14.696  20.231  0.00  0.00     0.168 C 
BRANCH   6   7
ATOM      7  N   UNL d   1     -40.367  14.534  19.429  0.00  0.00    -0.362 NA
ATOM      8  C   UNL d   1     -40.525  14.376  18.620  0.00  0.00     0.329 C 
ATOM      9  O   UNL d   1     -40.462  13.596  18.326  0.00  0.00    -0.251 OA
BRANCH   8  10
ATOM     10  C   UNL d   1     -40.745  15.000  18.104  0.00  0.00     0.082 C 
BRANCH  10  11
ATOM     11  C   UNL d   1     -40.911  14.837  17.295  0.00  0.00     0.076 C 
BRANCH  11  12
ATOM     12  C   UNL d   1     -41.008  15.462  16.753  0.00  0.00     0.211 C 
ATOM     13  O   UNL d   1     -41.769  15.794  16.649  0.00  0.00    -0.644 OA
ATOM     14  O   UNL d   1     -40.353  15.743  16.330  0.00  0.00    -0.644 OA
ENDBRANCH  11  12
ENDBRANCH  10  11
ENDBRANCH   8  10
ENDBRANCH   6   7
ENDBRANCH   2   6
BRANCH   4  15
ATOM     15  C   UNL d   1     -39.489  14.384  21.681  0.00  0.00     0.020 A 
ATOM     16  C   UNL d   1     -39.344  15.033  22.141  0.00  0.00     0.008 A 
ATOM     17  C   UNL d   1     -38.571  15.268  22.282  0.00  0.00     0.035 A 
ATOM     18 BR   UNL d   1     -38.417  15.922  22.746  0.00  0.00    -0.049 Br
ATOM     19  C   UNL d   1     -37.945  14.832  21.946  0.00  0.00     0.007 A 
ATOM     20  C   UNL d   1     -38.094  14.175  21.480  0.00  0.00     0.001 A 
ATOM     21  C   UNL d   1     -38.866  13.951  21.347  0.00  0.00     0.002 A 
ENDBRANCH   4  15
BRANCH   3  22
ATOM     22  C   UNL d   1     -42.569  13.348  21.349  0.00  0.00     0.083 A 
ATOM     23  C   UNL d   1     -42.654  12.537  21.440  0.00  0.00     0.019 A 
ATOM     24  C   UNL d   1     -43.414  12.218  21.512  0.00  0.00     0.002 A 
ATOM     25  C   UNL d   1     -44.075  12.712  21.493  0.00  0.00     0.000 A 
ATOM     26  C   UNL d   1     -43.977  13.526  21.401  0.00  0.00     0.002 A 
ATOM     27  C   UNL d   1     -43.223  13.840  21.329  0.00  0.00     0.019 A 
ENDBRANCH   3  22
TORSDOF 7
ENDMDL
MODEL 5
REMARK VINA RESULT:      -2.7      6.352      7.885
REMARK  7 active torsions:
REMARK  status: ('A' for Active; 'I' for Inactive)
REMARK    1  A    between atoms: C_8  and  C_2 
REMARK    2  A    between atoms: C_12  and  N_3 
REMARK    3  A    between atoms: C_6  and  C_4 
REMARK       I    between atoms: C_7  and  N_13 
REMARK    4  A    between atoms: C_9  and  C_7 
REMARK    5  A    between atoms: N_13  and  C_8 
REMARK    6  A    between atoms: C_11  and  C_9 
REMARK    7  A    between atoms: C_10  and  C_11 
ROOT
ATOM      1  N   UNL d   1     -45.641  12.966  22.781  0.00  0.00    -0.165 NA
ATOM      2  C   UNL d   1     -46.785  12.444  23.439  0.00  0.00     0.071 A 
ATOM      3  N   UNL d   1     -45.600  11.655  23.328  0.00  0.00    -0.228 N 
ATOM      4  C   UNL d   1     -46.417  13.049  23.040  0.00  0.00     0.105 A 
ATOM      5  C   UNL d   1     -46.375  11.739  23.586  0.00  0.00     0.105 A 
ENDROOT
BRANCH   2   6
ATOM      6  C   UNL d   1     -47.561  12.527  23.697  0.00  0.00     0.168 C 
BRANCH   6   7
ATOM      7  N   UNL d   1     -48.138  11.966  23.482  0.00  0.00    -0.362 NA
ATOM      8  C   UNL d   1     -48.722  11.404  23.268  0.00  0.00     0.329 C 
ATOM      9  O   UNL d   1     -48.500  10.692  22.889  0.00  0.00    -0.251 OA
BRANCH   8  10
ATOM     10  C   UNL d   1     -49.532  11.553  23.432  0.00  0.00     0.082 C 
BRANCH  10  11
ATOM     11  C   UNL d   1     -50.072  11.685  22.800  0.00  0.00     0.076 C 
BRANCH  11  12
ATOM     12  C   UNL d   1     -50.671  12.259  22.875  0.00  0.00     0.211 C 
ATOM     13  O   UNL d   1     -50.873  12.723  22.210  0.00  0.00    -0.644 OA
ATOM     14  O   UNL d   1     -51.054  12.358  23.603  0.00  0.00    -0.644 OA
ENDBRANCH  11  12
ENDBRANCH  10  11
ENDBRANCH   8  10
ENDBRANCH   6   7
ENDBRANCH   2   6
BRANCH   4  15
ATOM     15  C   UNL d   1     -46.820  13.759  22.888  0.00  0.00     0.020 A 
ATOM     16  C   UNL d   1     -47.165  13.880  22.166  0.00  0.00     0.008 A 
ATOM     17  C   UNL d   1     -47.563  14.582  22.019  0.00  0.00     0.035 A 
ATOM     18 BR   UNL d   1     -47.914  14.712  21.292  0.00  0.00    -0.049 Br
ATOM     19  C   UNL d   1     -47.606  15.161  22.616  0.00  0.00     0.007 A 
ATOM     20  C   UNL d   1     -47.256  15.035  23.346  0.00  0.00     0.001 A 
ATOM     21  C   UNL d   1     -46.863  14.335  23.483  0.00  0.00     0.002 A 
ENDBRANCH   4  15
BRANCH   3  22
ATOM     22  C   UNL d   1     -45.035  11.065  23.367  0.00  0.00     0.083 A 
ATOM     23  C   UNL d   1     -44.264  11.237  23.144  0.00  0.00     0.019 A 
ATOM     24  C   UNL d   1     -43.693  10.640  23.183  0.00  0.00     0.002 A 
ATOM     25  C   UNL d   1     -43.899   9.885  23.444  0.00  0.00     0.000 A 
ATOM     26  C   UNL d   1     -44.677   9.724  23.666  0.00  0.00     0.002 A 
ATOM     27  C   UNL d   1     -45.242  10.317  23.625  0.00  0.00     0.019 A 
ENDBRANCH   3  22
TORSDOF 7
ENDMDL
