MODEL 1
REMARK VINA RESULT:      -4.9      0.000      0.000
REMARK  5 active torsions:
REMARK  status: ('A' for Active; 'I' for Inactive)
REMARK    1  A    between atoms: C_7  and  N_2 
REMARK    2  A    between atoms: C_8  and  C_7 
REMARK    3  A    between atoms: C_13  and  C_8 
REMARK    4  A    between atoms: C_9  and  O_11 
REMARK    5  A    between atoms: O_11  and  C_13 
ROOT
ATOM      1  C   UNL d   1      58.836  -1.390  29.375  0.00  0.00     0.296 A 
ATOM      2  N   UNL d   1      58.843  -0.570  29.515  0.00  0.00    -0.268 N 
ATOM      3  S   UNL d   1      59.575  -1.599  29.073  0.00  0.00    -0.025 SA
ATOM      4  C   UNL d   1      59.587  -0.280  29.298  0.00  0.00     0.073 A 
ATOM      5  C   UNL d   1      60.039  -0.919  29.024  0.00  0.00     0.050 A 
ATOM      6  O   UNL d   1      58.204  -1.900  29.514  0.00  0.00    -0.259 OA
ATOM      7  C   UNL d   1      59.907   0.476  29.315  0.00  0.00     0.018 A 
ATOM      8  C   UNL d   1      60.820  -0.787  28.766  0.00  0.00     0.008 A 
ATOM      9  C   UNL d   1      60.680   0.602  29.058  0.00  0.00     0.002 A 
ATOM     10  C   UNL d   1      61.133  -0.024  28.786  0.00  0.00     0.001 A 
ENDROOT
BRANCH   2  11
ATOM     11  C   UNL d   1      58.221  -0.124  29.817  0.00  0.00     0.086 C 
BRANCH  11  12
ATOM     12  C   UNL d   1      57.962  -0.253  30.592  0.00  0.00     0.046 C 
BRANCH  12  13
ATOM     13  C   UNL d   1      57.473   0.298  30.961  0.00  0.00     0.124 C 
BRANCH  13  14
ATOM     14  O   UNL d   1      56.976   0.065  31.568  0.00  0.00    -0.305 OA
BRANCH  14  15
ATOM     15  C   UNL d   1      56.473  -0.172  32.182  0.00  0.00     0.100 A 
ATOM     16  C   UNL d   1      56.107   0.401  32.641  0.00  0.00     0.025 A 
ATOM     17  C   UNL d   1      55.605   0.163  33.254  0.00  0.00     0.002 A 
ATOM     18  C   UNL d   1      55.474  -0.636  33.401  0.00  0.00     0.000 A 
ATOM     19  C   UNL d   1      55.849  -1.206  32.931  0.00  0.00     0.002 A 
ATOM     20  C   UNL d   1      56.346  -0.974  32.324  0.00  0.00     0.025 A 
ENDBRANCH  14  15
ENDBRANCH  13  14
ENDBRANCH  12  13
ENDBRANCH  11  12
ENDBRANCH   2  11
TORSDOF 5
ENDMDL
MODEL 2
REMARK VINA RESULT:      -3.2      1.579      4.964
REMARK  5 active torsions:
REMARK  status: ('A' for Active; 'I' for Inactive)
REMARK    1  A    between atoms: C_7  and  N_2 
REMARK    2  A    between atoms: C_8  and  C_7 
REMARK    3  A    between atoms: C_13  and  C_8 
REMARK    4  A    between atoms: C_9  and  O_11 
REMARK    5  A    between atoms: O_11  and  C_13 
ROOT
ATOM      1  C   UNL d   1      56.649  -1.055  31.872  0.00  0.00     0.296 A 
ATOM      2  N   UNL d   1      56.619  -0.227  31.945  0.00  0.00    -0.268 N 
ATOM      3  S   UNL d   1      56.223  -1.378  32.502  0.00  0.00    -0.025 SA
ATOM      4  C   UNL d   1      56.175  -0.046  32.620  0.00  0.00     0.073 A 
ATOM      5  C   UNL d   1      55.931  -0.760  32.963  0.00  0.00     0.050 A 
ATOM      6  O   UNL d   1      57.034  -1.476  31.278  0.00  0.00    -0.259 OA
ATOM      7  C   UNL d   1      55.965   0.671  32.961  0.00  0.00     0.018 A 
ATOM      8  C   UNL d   1      55.471  -0.744  33.657  0.00  0.00     0.008 A 
ATOM      9  C   UNL d   1      55.509   0.682  33.648  0.00  0.00     0.002 A 
ATOM     10  C   UNL d   1      55.264  -0.020  33.993  0.00  0.00     0.001 A 
ENDROOT
BRANCH   2  11
ATOM     11  C   UNL d   1      56.968   0.318  31.437  0.00  0.00     0.086 C 
BRANCH  11  12
ATOM     12  C   UNL d   1      57.697   0.141  31.086  0.00  0.00     0.046 C 
BRANCH  12  13
ATOM     13  C   UNL d   1      58.049   0.682  30.572  0.00  0.00     0.124 C 
BRANCH  13  14
ATOM     14  O   UNL d   1      58.804   0.546  30.288  0.00  0.00    -0.305 OA
BRANCH  14  15
ATOM     15  C   UNL d   1      59.568   0.407  30.000  0.00  0.00     0.100 A 
ATOM     16  C   UNL d   1      59.659   0.015  29.285  0.00  0.00     0.025 A 
ATOM     17  C   UNL d   1      60.422  -0.123  28.997  0.00  0.00     0.002 A 
ATOM     18  C   UNL d   1      61.081   0.129  29.422  0.00  0.00     0.000 A 
ATOM     19  C   UNL d   1      60.977   0.523  30.144  0.00  0.00     0.002 A 
ATOM     20  C   UNL d   1      60.222   0.661  30.431  0.00  0.00     0.025 A 
ENDBRANCH  14  15
ENDBRANCH  13  14
ENDBRANCH  12  13
ENDBRANCH  11  12
ENDBRANCH   2  11
TORSDOF 5
ENDMDL
MODEL 3
REMARK VINA RESULT:      -2.6      9.475      9.984
REMARK  5 active torsions:
REMARK  status: ('A' for Active; 'I' for Inactive)
REMARK    1  A    between atoms: C_7  and  N_2 
REMARK    2  A    between atoms: C_8  and  C_7 
REMARK    3  A    between atoms: C_13  and  C_8 
REMARK    4  A    between atoms: C_9  and  O_11 
REMARK    5  A    between atoms: O_11  and  C_13 
ROOT
ATOM      1  C   UNL d   1      60.523  -9.130  33.516  0.00  0.00     0.296 A 
ATOM      2  N   UNL d   1      59.789  -9.184  33.903  0.00  0.00    -0.268 N 
ATOM      3  S   UNL d   1      61.052  -8.762  34.033  0.00  0.00    -0.025 SA
ATOM      4  C   UNL d   1      59.871  -8.849  34.656  0.00  0.00     0.073 A 
ATOM      5  C   UNL d   1      60.655  -8.589  34.734  0.00  0.00     0.050 A 
ATOM      6  O   UNL d   1      60.691  -9.395  32.755  0.00  0.00    -0.259 OA
ATOM      7  C   UNL d   1      59.338  -8.750  35.272  0.00  0.00     0.018 A 
ATOM      8  C   UNL d   1      60.896  -8.226  35.444  0.00  0.00     0.008 A 
ATOM      9  C   UNL d   1      59.581  -8.390  35.973  0.00  0.00     0.002 A 
ATOM     10  C   UNL d   1      60.354  -8.130  36.058  0.00  0.00     0.001 A 
ENDROOT
BRANCH   2  11
ATOM     11  C   UNL d   1      59.101  -9.512  33.594  0.00  0.00     0.086 C 
BRANCH  11  12
ATOM     12  C   UNL d   1      58.973  -9.500  32.776  0.00  0.00     0.046 C 
BRANCH  12  13
ATOM     13  C   UNL d   1      58.262  -9.779  32.466  0.00  0.00     0.124 C 
BRANCH  13  14
ATOM     14  O   UNL d   1      58.140  -9.781  31.656  0.00  0.00    -0.305 OA
BRANCH  14  15
ATOM     15  C   UNL d   1      58.018  -9.783  30.838  0.00  0.00     0.100 A 
ATOM     16  C   UNL d   1      58.667  -9.753  30.338  0.00  0.00     0.025 A 
ATOM     17  C   UNL d   1      58.544  -9.755  29.519  0.00  0.00     0.002 A 
ATOM     18  C   UNL d   1      57.782  -9.787  29.211  0.00  0.00     0.000 A 
ATOM     19  C   UNL d   1      57.133  -9.817  29.726  0.00  0.00     0.002 A 
ATOM     20  C   UNL d   1      57.252  -9.815  30.536  0.00  0.00     0.025 A 
ENDBRANCH  14  15
ENDBRANCH  13  14
ENDBRANCH  12  13
ENDBRANCH  11  12
ENDBRANCH   2  11
TORSDOF 5
ENDMDL
MODEL 4
REMARK VINA RESULT:      -2.6      9.175      9.452
REMARK  5 active torsions:
REMARK  status: ('A' for Active; 'I' for Inactive)
REMARK    1  A    between atoms: C_7  and  N_2 
REMARK    2  A    between atoms: C_8  and  C_7 
REMARK    3  A    between atoms: C_13  and  C_8 
REMARK    4  A    between atoms: C_9  and  O_11 
REMARK    5  A    between atoms: O_11  and  C_13 
ROOT
ATOM      1  C   UNL d   1      57.903  -9.762  31.875  0.00  0.00     0.296 A 
ATOM      2  N   UNL d   1      58.716  -9.790  31.702  0.00  0.00    -0.268 N 
ATOM      3  S   UNL d   1      57.494  -9.741  31.158  0.00  0.00    -0.025 SA
ATOM      4  C   UNL d   1      58.802  -9.785  30.879  0.00  0.00     0.073 A 
ATOM      5  C   UNL d   1      58.044  -9.755  30.545  0.00  0.00     0.050 A 
ATOM      6  O   UNL d   1      57.567  -9.757  32.628  0.00  0.00    -0.259 OA
ATOM      7  C   UNL d   1      59.467  -9.805  30.398  0.00  0.00     0.018 A 
ATOM      8  C   UNL d   1      57.964  -9.744  29.715  0.00  0.00     0.008 A 
ATOM      9  C   UNL d   1      59.383  -9.794  29.578  0.00  0.00     0.002 A 
ATOM     10  C   UNL d   1      58.637  -9.764  29.239  0.00  0.00     0.001 A 
ENDROOT
BRANCH   2  11
ATOM     11  C   UNL d   1      59.328  -9.817  32.251  0.00  0.00     0.086 C 
BRANCH  11  12
ATOM     12  C   UNL d   1      59.271  -9.378  32.951  0.00  0.00     0.046 C 
BRANCH  12  13
ATOM     13  C   UNL d   1      59.912  -9.340  33.467  0.00  0.00     0.124 C 
BRANCH  13  14
ATOM     14  O   UNL d   1      59.842  -8.943  34.180  0.00  0.00    -0.305 OA
BRANCH  14  15
ATOM     15  C   UNL d   1      59.772  -8.543  34.901  0.00  0.00     0.100 A 
ATOM     16  C   UNL d   1      60.190  -7.845  35.012  0.00  0.00     0.025 A 
ATOM     17  C   UNL d   1      60.119  -7.446  35.733  0.00  0.00     0.002 A 
ATOM     18  C   UNL d   1      59.637  -7.742  36.330  0.00  0.00     0.000 A 
ATOM     19  C   UNL d   1      59.219  -8.448  36.207  0.00  0.00     0.002 A 
ATOM     20  C   UNL d   1      59.288  -8.846  35.494  0.00  0.00     0.025 A 
ENDBRANCH  14  15
ENDBRANCH  13  14
ENDBRANCH  12  13
ENDBRANCH  11  12
ENDBRANCH   2  11
TORSDOF 5
ENDMDL
MODEL 5
REMARK VINA RESULT:      -2.1      9.250     10.263
REMARK  5 active torsions:
REMARK  status: ('A' for Active; 'I' for Inactive)
REMARK    1  A    between atoms: C_7  and  N_2 
REMARK    2  A    between atoms: C_8  and  C_7 
REMARK    3  A    between atoms: C_13  and  C_8 
REMARK    4  A    between atoms: C_9  and  O_11 
REMARK    5  A    between atoms: O_11  and  C_13 
ROOT
ATOM      1  C   UNL d   1      59.298  -9.202  34.162  0.00  0.00     0.296 A 
ATOM      2  N   UNL d   1      60.128  -9.166  34.185  0.00  0.00    -0.268 N 
ATOM      3  S   UNL d   1      59.009  -8.711  34.759  0.00  0.00    -0.025 SA
ATOM      4  C   UNL d   1      60.345  -8.653  34.796  0.00  0.00     0.073 A 
ATOM      5  C   UNL d   1      59.650  -8.372  35.151  0.00  0.00     0.050 A 
ATOM      6  O   UNL d   1      58.845  -9.649  33.637  0.00  0.00    -0.259 OA
ATOM      7  C   UNL d   1      61.079  -8.408  35.072  0.00  0.00     0.018 A 
ATOM      8  C   UNL d   1      59.703  -7.839  35.789  0.00  0.00     0.008 A 
ATOM      9  C   UNL d   1      61.127  -7.881  35.704  0.00  0.00     0.002 A 
ATOM     10  C   UNL d   1      60.444  -7.598  36.060  0.00  0.00     0.001 A 
ENDROOT
BRANCH   2  11
ATOM     11  C   UNL d   1      60.645  -9.570  33.687  0.00  0.00     0.086 C 
BRANCH  11  12
ATOM     12  C   UNL d   1      60.417  -9.739  32.910  0.00  0.00     0.046 C 
BRANCH  12  13
ATOM     13  C   UNL d   1      60.988  -9.816  32.320  0.00  0.00     0.124 C 
BRANCH  13  14
ATOM     14  O   UNL d   1      60.773  -9.772  31.532  0.00  0.00    -0.305 OA
BRANCH  14  15
ATOM     15  C   UNL d   1      60.554  -9.728  30.735  0.00  0.00     0.100 A 
ATOM     16  C   UNL d   1      61.133  -9.595  30.169  0.00  0.00     0.025 A 
ATOM     17  C   UNL d   1      60.913  -9.552  29.373  0.00  0.00     0.002 A 
ATOM     18  C   UNL d   1      60.126  -9.640  29.150  0.00  0.00     0.000 A 
ATOM     19  C   UNL d   1      59.549  -9.774  29.731  0.00  0.00     0.002 A 
ATOM     20  C   UNL d   1      59.763  -9.817  30.520  0.00  0.00     0.025 A 
ENDBRANCH  14  15
ENDBRANCH  13  14
ENDBRANCH  12  13
ENDBRANCH  11  12
ENDBRANCH   2  11
TORSDOF 5
ENDMDL
MODEL 6
REMARK VINA RESULT:      -1.9      8.900     10.023
REMARK  5 active torsions:
REMARK  status: ('A' for Active; 'I' for Inactive)
REMARK    1  A    between atoms: C_7  and  N_2 
REMARK    2  A    between atoms: C_8  and  C_7 
REMARK    3  A    between atoms: C_13  and  C_8 
REMARK    4  A    between atoms: C_9  and  O_11 
REMARK    5  A    between atoms: O_11  and  C_13 
ROOT
ATOM      1  C   UNL d   1      59.241  -8.613  35.446  0.00  0.00     0.296 A 
ATOM      2  N   UNL d   1      60.045  -8.441  35.318  0.00  0.00    -0.268 N 
ATOM      3  S   UNL d   1      58.902  -7.962  35.823  0.00  0.00    -0.025 SA
ATOM      4  C   UNL d   1      60.194  -7.684  35.618  0.00  0.00     0.073 A 
ATOM      5  C   UNL d   1      59.485  -7.390  35.931  0.00  0.00     0.050 A 
ATOM      6  O   UNL d   1      58.854  -9.309  35.233  0.00  0.00    -0.259 OA
ATOM      7  C   UNL d   1      60.879  -7.232  35.646  0.00  0.00     0.018 A 
ATOM      8  C   UNL d   1      59.474  -6.630  36.273  0.00  0.00     0.008 A 
ATOM      9  C   UNL d   1      60.863  -6.481  35.986  0.00  0.00     0.002 A 
ATOM     10  C   UNL d   1      60.166  -6.182  36.297  0.00  0.00     0.001 A 
ENDROOT
BRANCH   2  11
ATOM     11  C   UNL d   1      60.595  -8.935  34.957  0.00  0.00     0.086 C 
BRANCH  11  12
ATOM     12  C   UNL d   1      60.816  -8.797  34.171  0.00  0.00     0.046 C 
BRANCH  12  13
ATOM     13  C   UNL d   1      61.094  -9.418  33.706  0.00  0.00     0.124 C 
BRANCH  13  14
ATOM     14  O   UNL d   1      60.819  -9.512  32.940  0.00  0.00    -0.305 OA
BRANCH  14  15
ATOM     15  C   UNL d   1      60.541  -9.609  32.167  0.00  0.00     0.100 A 
ATOM     16  C   UNL d   1      59.738  -9.721  32.043  0.00  0.00     0.025 A 
ATOM     17  C   UNL d   1      59.461  -9.818  31.269  0.00  0.00     0.002 A 
ATOM     18  C   UNL d   1      59.983  -9.801  30.633  0.00  0.00     0.000 A 
ATOM     19  C   UNL d   1      60.793  -9.687  30.770  0.00  0.00     0.002 A 
ATOM     20  C   UNL d   1      61.070  -9.591  31.535  0.00  0.00     0.025 A 
ENDBRANCH  14  15
ENDBRANCH  13  14
ENDBRANCH  12  13
ENDBRANCH  11  12
ENDBRANCH   2  11
TORSDOF 5
ENDMDL
