MODEL 1
REMARK VINA RESULT:      66.3      0.000      0.000
REMARK  6 active torsions:
REMARK  status: ('A' for Active; 'I' for Inactive)
REMARK    1  A    between atoms: C_2  and  C_1 
REMARK       I    between atoms: N_6  and  C_1 
REMARK    2  A    between atoms: O_15  and  C_3 
REMARK    3  A    between atoms: O_17  and  C_4 
REMARK    4  A    between atoms: O_16  and  C_5 
REMARK    5  A    between atoms: C_12  and  N_6 
REMARK    6  A    between atoms: N_11  and  C_9 
ROOT
ATOM      1  C   UNL d   1      59.807  49.284  50.958  0.00  0.00     0.074 A 
ATOM      2  C   UNL d   1      58.187  49.566  51.039  0.00  0.00     0.138 A 
ATOM      3  C   UNL d   1      58.625  49.492  51.725  0.00  0.00     0.118 A 
ATOM      4  C   UNL d   1      58.563  49.498  50.313  0.00  0.00     0.118 A 
ATOM      5  C   UNL d   1      59.432  49.352  51.698  0.00  0.00     0.032 A 
ATOM      6  C   UNL d   1      59.375  49.357  50.258  0.00  0.00     0.032 A 
ENDROOT
BRANCH   1   7
ATOM      7  C   UNL d   1      60.619  49.143  50.918  0.00  0.00     0.328 C 
ATOM      8  N   UNL d   1      60.891  48.443  50.593  0.00  0.00    -0.365 NA
ATOM      9  O   UNL d   1      61.152  49.706  51.204  0.00  0.00    -0.251 OA
BRANCH   8  10
ATOM     10  C   UNL d   1      61.172  47.741  50.267  0.00  0.00     0.135 A 
ATOM     11  C   UNL d   1      61.024  47.014  50.638  0.00  0.00     0.034 A 
ATOM     12  C   UNL d   1      61.306  46.312  50.313  0.00  0.00     0.020 A 
ATOM     13  C   UNL d   1      61.735  46.330  49.616  0.00  0.00     0.064 A 
ATOM     14  C   UNL d   1      61.885  47.050  49.241  0.00  0.00     0.020 A 
ATOM     15  C   UNL d   1      61.601  47.759  49.571  0.00  0.00     0.034 A 
BRANCH  13  16
ATOM     16  N   UNL d   1      62.019  45.625  49.287  0.00  0.00    -0.301 N 
ATOM     17  C   UNL d   1      62.832  45.476  49.278  0.00  0.00     0.100 C 
ATOM     18  C   UNL d   1      61.484  45.070  48.966  0.00  0.00     0.100 C 
ENDBRANCH  13  16
ENDBRANCH   8  10
ENDBRANCH   1   7
BRANCH   3  19
ATOM     19  O   UNL d   1      58.250  49.559  52.459  0.00  0.00    -0.326 OA
ATOM     20  C   UNL d   1      58.701  49.490  53.163  0.00  0.00     0.181 C 
ENDBRANCH   3  19
BRANCH   4  21
ATOM     21  O   UNL d   1      58.116  49.574  49.613  0.00  0.00    -0.326 OA
ATOM     22  C   UNL d   1      58.440  49.331  48.886  0.00  0.00     0.181 C 
ENDBRANCH   4  21
BRANCH   2  23
ATOM     23  O   UNL d   1      57.375  49.707  51.079  0.00  0.00    -0.324 OA
ATOM     24  C   UNL d   1      56.856  49.320  50.571  0.00  0.00     0.182 C 
ENDBRANCH   2  23
TORSDOF 6
ENDMDL
