MODEL 1
REMARK VINA RESULT:      88.5      0.000      0.000
REMARK  8 active torsions:
REMARK  status: ('A' for Active; 'I' for Inactive)
REMARK    1  A    between atoms: C_11  and  C_1 
REMARK    2  A    between atoms: C_10  and  C_2 
REMARK    3  A    between atoms: C_4  and  C_3 
REMARK    4  A    between atoms: C_14  and  C_9 
REMARK    5  A    between atoms: O_17  and  C_10 
REMARK    6  A    between atoms: O_18  and  C_11 
REMARK    7  A    between atoms: C_24  and  O_17 
REMARK    8  A    between atoms: C_23  and  O_18 
ROOT
ATOM      1  C   UNL d   1     -51.431  26.554  35.975  0.00  0.00     0.083 A 
ATOM      2  C   UNL d   1     -50.403  26.925  35.015  0.00  0.00     0.083 A 
ATOM      3  C   UNL d   1     -51.134  26.593  35.206  0.00  0.00     0.036 A 
ATOM      4  C   UNL d   1     -49.949  27.232  35.624  0.00  0.00     0.087 A 
ATOM      5  C   UNL d   1     -50.938  26.883  36.610  0.00  0.00     0.087 A 
ATOM      6  N   UNL d   1     -50.196  27.219  36.413  0.00  0.00    -0.245 NA
ATOM      7  C   UNL d   1     -49.172  27.588  35.448  0.00  0.00     0.021 C 
ATOM      8  C   UNL d   1     -51.188  26.868  37.394  0.00  0.00     0.021 C 
ENDROOT
BRANCH   3   9
ATOM      9  C   UNL d   1     -51.613  26.276  34.605  0.00  0.00     0.100 A 
ATOM     10  O   UNL d   1     -51.845  25.476  34.519  0.00  0.00    -0.307 OA
ATOM     11  C   UNL d   1     -52.316  25.446  33.837  0.00  0.00     0.100 A 
ATOM     12  C   UNL d   1     -52.361  26.208  33.528  0.00  0.00     0.027 A 
ATOM     13  C   UNL d   1     -51.937  26.711  33.991  0.00  0.00     0.027 A 
BRANCH  11  14
ATOM     14  C   UNL d   1     -52.601  24.686  33.661  0.00  0.00     0.023 A 
ATOM     15  C   UNL d   1     -53.412  24.571  33.648  0.00  0.00     0.002 A 
ATOM     16  C   UNL d   1     -53.720  23.840  33.478  0.00  0.00     0.000 A 
ATOM     17  C   UNL d   1     -53.171  23.189  33.313  0.00  0.00     0.000 A 
ATOM     18  C   UNL d   1     -52.363  23.325  33.331  0.00  0.00     0.000 A 
ATOM     19  C   UNL d   1     -52.096  24.087  33.508  0.00  0.00     0.002 A 
ENDBRANCH  11  14
ENDBRANCH   3   9
BRANCH   2  20
ATOM     20  C   UNL d   1     -50.110  26.962  34.241  0.00  0.00     0.302 C 
ATOM     21  O   UNL d   1     -50.616  27.025  33.612  0.00  0.00    -0.259 OA
BRANCH  20  22
ATOM     22  O   UNL d   1     -49.299  26.937  34.092  0.00  0.00    -0.271 OA
BRANCH  22  23
ATOM     23  C   UNL d   1     -48.844  26.589  33.308  0.00  0.00     0.126 C 
ATOM     24  C   UNL d   1     -48.529  25.838  33.414  0.00  0.00     0.029 C 
ENDBRANCH  22  23
ENDBRANCH  20  22
ENDBRANCH   2  20
BRANCH   1  25
ATOM     25  C   UNL d   1     -52.188  26.211  36.180  0.00  0.00     0.302 C 
ATOM     26  O   UNL d   1     -52.842  26.373  35.744  0.00  0.00    -0.259 OA
BRANCH  25  27
ATOM     27  O   UNL d   1     -52.219  25.708  36.844  0.00  0.00    -0.271 OA
BRANCH  27  28
ATOM     28  C   UNL d   1     -52.889  25.643  37.333  0.00  0.00     0.126 C 
ATOM     29  C   UNL d   1     -52.577  25.197  38.001  0.00  0.00     0.029 C 
ENDBRANCH  27  28
ENDBRANCH  25  27
ENDBRANCH   1  25
TORSDOF 8
ENDMDL
