MODEL 1
REMARK VINA RESULT:       7.9      0.000      0.000
REMARK  2 active torsions:
REMARK  status: ('A' for Active; 'I' for Inactive)
REMARK    1  A    between atoms: C_6  and  C_3 
REMARK    2  A    between atoms: O_13  and  C_10 
ROOT
ATOM      1  C   UNL d   1      13.522  11.901  -2.647  0.00  0.00     0.018 A 
ATOM      2  C   UNL d   1      14.299  12.142  -2.646  0.00  0.00     0.004 A 
ATOM      3  C   UNL d   1      13.134  11.779  -1.937  0.00  0.00     0.004 A 
ATOM      4  C   UNL d   1      14.299  12.138  -1.218  0.00  0.00     0.094 A 
ATOM      5  C   UNL d   1      13.523  11.897  -1.219  0.00  0.00     0.024 A 
ATOM      6  C   UNL d   1      14.704  12.265  -1.936  0.00  0.00     0.024 A 
ENDROOT
BRANCH   1   7
ATOM      7  C   UNL d   1      13.522  11.904  -3.478  0.00  0.00     0.090 A 
ATOM      8  N   UNL d   1      13.983  11.780  -4.157  0.00  0.00    -0.219 NA
ATOM      9  C   UNL d   1      13.492  11.916  -4.804  0.00  0.00     0.215 A 
ATOM     10  S   UNL d   1      12.769  12.113  -4.528  0.00  0.00    -0.045 SA
ATOM     11  N   UNL d   1      13.686  11.865  -5.618  0.00  0.00    -0.120 N 
ATOM     12  C   UNL d   1      12.769  12.111  -3.718  0.00  0.00     0.058 A 
ENDBRANCH   1   7
BRANCH   4  13
ATOM     13  O   UNL d   1      14.704  12.261  -0.493  0.00  0.00    -0.328 OA
ATOM     14  C   UNL d   1      14.523  12.917  -0.017  0.00  0.00     0.181 C 
ENDBRANCH   4  13
TORSDOF 2
ENDMDL
MODEL 2
REMARK VINA RESULT:       8.2      2.253      3.403
REMARK  2 active torsions:
REMARK  status: ('A' for Active; 'I' for Inactive)
REMARK    1  A    between atoms: C_6  and  C_3 
REMARK    2  A    between atoms: O_13  and  C_10 
ROOT
ATOM      1  C   UNL d   1      13.558  11.868  -2.396  0.00  0.00     0.018 A 
ATOM      2  C   UNL d   1      14.236  11.894  -2.845  0.00  0.00     0.004 A 
ATOM      3  C   UNL d   1      12.827  11.876  -2.762  0.00  0.00     0.004 A 
ATOM      4  C   UNL d   1      13.446  11.937  -4.034  0.00  0.00     0.094 A 
ATOM      5  C   UNL d   1      12.769  11.911  -3.585  0.00  0.00     0.024 A 
ATOM      6  C   UNL d   1      14.197  11.929  -3.670  0.00  0.00     0.024 A 
ENDROOT
BRANCH   1   7
ATOM      7  C   UNL d   1      14.018  11.843  -1.704  0.00  0.00     0.090 A 
ATOM      8  N   UNL d   1      14.791  11.839  -1.402  0.00  0.00    -0.219 NA
ATOM      9  C   UNL d   1      14.725  11.802  -0.582  0.00  0.00     0.215 A 
ATOM     10  S   UNL d   1      13.948  11.786  -0.397  0.00  0.00    -0.045 SA
ATOM     11  N   UNL d   1      15.342  11.784  -0.015  0.00  0.00    -0.120 N 
ATOM     12  C   UNL d   1      13.500  11.810  -1.072  0.00  0.00     0.058 A 
ENDBRANCH   1   7
BRANCH   4  13
ATOM     13  O   UNL d   1      13.399  11.972  -4.872  0.00  0.00    -0.328 OA
ATOM     14  C   UNL d   1      12.770  12.372  -5.240  0.00  0.00     0.181 C 
ENDBRANCH   4  13
TORSDOF 2
ENDMDL
