MODEL 1
REMARK VINA RESULT:      18.6      0.000      0.000
REMARK  3 active torsions:
REMARK  status: ('A' for Active; 'I' for Inactive)
REMARK    1  A    between atoms: S_10  and  C_2 
REMARK    2  A    between atoms: C_9  and  C_4 
REMARK    3  A    between atoms: C_17  and  C_12 
ROOT
ATOM      1  C   UNL d   1      46.349 -18.533  43.133  0.00  0.00     0.092 A 
ATOM      2  C   UNL d   1      46.518 -19.303  42.946  0.00  0.00     0.119 A 
ATOM      3  N   UNL d   1      46.597 -19.867  43.552  0.00  0.00    -0.201 NA
ATOM      4  C   UNL d   1      46.258 -18.312  43.929  0.00  0.00     0.016 A 
ATOM      5  C   UNL d   1      46.506 -19.644  44.339  0.00  0.00     0.280 A 
ATOM      6  C   UNL d   1      46.270 -17.970  42.532  0.00  0.00     0.103 C 
ATOM      7  N   UNL d   1      46.191 -17.412  41.924  0.00  0.00    -0.191 NA
ATOM      8  C   UNL d   1      46.337 -18.874  44.526  0.00  0.00     0.063 A 
ATOM      9  O   UNL d   1      46.585 -20.207  44.940  0.00  0.00    -0.265 OA
ENDROOT
BRANCH   2  10
ATOM     10  S   UNL d   1      46.609 -19.526  42.154  0.00  0.00    -0.093 SA
ATOM     11  C   UNL d   1      46.647 -20.330  41.946  0.00  0.00     0.076 C 
ENDBRANCH   2  10
BRANCH   4  12
ATOM     12  C   UNL d   1      46.087 -17.533  44.118  0.00  0.00     0.001 A 
ATOM     13  C   UNL d   1      46.471 -17.189  44.748  0.00  0.00     0.000 A 
ATOM     14  C   UNL d   1      46.305 -16.401  44.947  0.00  0.00     0.000 A 
ATOM     15  C   UNL d   1      45.767 -15.975  44.520  0.00  0.00     0.000 A 
ATOM     16  C   UNL d   1      45.383 -16.328  43.885  0.00  0.00     0.000 A 
ATOM     17  C   UNL d   1      45.546 -17.122  43.680  0.00  0.00     0.000 A 
BRANCH  15  18
ATOM     18  C   UNL d   1      45.576 -15.102  44.732  0.00  0.00     0.000 C 
ATOM     19  C   UNL d   1      46.270 -14.278  44.955  0.00  0.00     0.000 C 
ATOM     20  C   UNL d   1      44.492 -14.618  44.825  0.00  0.00     0.000 C 
ENDBRANCH  15  18
ENDBRANCH   4  12
TORSDOF 3
ENDMDL
