MODEL 1
REMARK VINA RESULT:      -8.2      0.000      0.000
REMARK  4 active torsions:
REMARK  status: ('A' for Active; 'I' for Inactive)
REMARK    1  A    between atoms: C_2  and  S_1 
REMARK    2  A    between atoms: N_4  and  S_1 
REMARK    3  A    between atoms: C_11  and  N_4 
REMARK    4  A    between atoms: C_9  and  C_11 
ROOT
ATOM      1  S   UNL d   1      52.114  33.822  53.253  0.00  0.00     0.285 S 
ATOM      2  O   UNL d   1      52.531  34.371  52.800  0.00  0.00    -0.198 OA
ATOM      3  O   UNL d   1      51.697  33.274  53.707  0.00  0.00    -0.198 OA
ENDROOT
BRANCH   1   4
ATOM      4  C   UNL d   1      52.773  33.722  53.739  0.00  0.00     0.105 A 
ATOM      5  C   UNL d   1      53.277  33.074  53.623  0.00  0.00     0.012 A 
ATOM      6  C   UNL d   1      53.936  32.975  54.108  0.00  0.00     0.001 A 
ATOM      7  C   UNL d   1      53.120  32.530  53.022  0.00  0.00     0.001 C 
ATOM      8  C   UNL d   1      54.439  32.330  53.994  0.00  0.00     0.000 C 
ATOM      9  C   UNL d   1      54.092  33.522  54.710  0.00  0.00     0.000 A 
ATOM     10  C   UNL d   1      53.589  34.166  54.824  0.00  0.00     0.001 A 
ATOM     11  C   UNL d   1      54.751  33.422  55.196  0.00  0.00     0.000 C 
ATOM     12  C   UNL d   1      52.930  34.266  54.339  0.00  0.00     0.013 A 
ENDBRANCH   1   4
BRANCH   1  13
ATOM     13  N   UNL d   1      51.455  33.922  52.767  0.00  0.00    -0.155 NA
BRANCH  13  14
ATOM     14  C   UNL d   1      50.808  34.366  53.036  0.00  0.00     0.137 C 
BRANCH  14  15
ATOM     15  C   UNL d   1      50.158  34.483  52.543  0.00  0.00     0.120 A 
ATOM     16  O   UNL d   1      50.099  34.244  51.757  0.00  0.00    -0.304 OA
ATOM     17  C   UNL d   1      49.360  34.473  51.480  0.00  0.00     0.123 A 
ATOM     18  C   UNL d   1      48.963  34.854  52.095  0.00  0.00     0.029 A 
ATOM     19  C   UNL d   1      49.457  34.859  52.750  0.00  0.00     0.028 A 
ENDBRANCH  14  15
ENDBRANCH  13  14
ENDBRANCH   1  13
TORSDOF 4
ENDMDL
MODEL 2
REMARK VINA RESULT:      -7.5      1.983      3.746
REMARK  4 active torsions:
REMARK  status: ('A' for Active; 'I' for Inactive)
REMARK    1  A    between atoms: C_2  and  S_1 
REMARK    2  A    between atoms: N_4  and  S_1 
REMARK    3  A    between atoms: C_11  and  N_4 
REMARK    4  A    between atoms: C_9  and  C_11 
ROOT
ATOM      1  S   UNL d   1      53.129  32.554  53.536  0.00  0.00     0.285 S 
ATOM      2  O   UNL d   1      52.386  32.448  53.879  0.00  0.00    -0.198 OA
ATOM      3  O   UNL d   1      53.872  32.659  53.193  0.00  0.00    -0.198 OA
ENDROOT
BRANCH   1   4
ATOM      4  C   UNL d   1      53.137  33.337  53.794  0.00  0.00     0.105 A 
ATOM      5  C   UNL d   1      52.680  33.906  53.400  0.00  0.00     0.012 A 
ATOM      6  C   UNL d   1      52.688  34.689  53.658  0.00  0.00     0.001 A 
ATOM      7  C   UNL d   1      52.219  33.690  52.751  0.00  0.00     0.001 C 
ATOM      8  C   UNL d   1      52.234  35.257  53.267  0.00  0.00     0.000 C 
ATOM      9  C   UNL d   1      53.152  34.904  54.310  0.00  0.00     0.000 A 
ATOM     10  C   UNL d   1      53.606  34.336  54.701  0.00  0.00     0.001 A 
ATOM     11  C   UNL d   1      53.160  35.688  54.569  0.00  0.00     0.000 C 
ATOM     12  C   UNL d   1      53.598  33.554  54.443  0.00  0.00     0.013 A 
ENDBRANCH   1   4
BRANCH   1  13
ATOM     13  N   UNL d   1      53.121  31.770  53.278  0.00  0.00    -0.155 NA
BRANCH  13  14
ATOM     14  C   UNL d   1      53.504  31.186  53.723  0.00  0.00     0.137 C 
BRANCH  14  15
ATOM     15  C   UNL d   1      53.304  30.392  53.617  0.00  0.00     0.120 A 
ATOM     16  O   UNL d   1      52.958  30.068  52.944  0.00  0.00    -0.304 OA
ATOM     17  C   UNL d   1      52.856  29.264  53.077  0.00  0.00     0.123 A 
ATOM     18  C   UNL d   1      53.141  29.091  53.832  0.00  0.00     0.029 A 
ATOM     19  C   UNL d   1      53.417  29.789  54.164  0.00  0.00     0.028 A 
ENDBRANCH  14  15
ENDBRANCH  13  14
ENDBRANCH   1  13
TORSDOF 4
ENDMDL
MODEL 3
REMARK VINA RESULT:      -6.9      2.337      3.345
REMARK  4 active torsions:
REMARK  status: ('A' for Active; 'I' for Inactive)
REMARK    1  A    between atoms: C_2  and  S_1 
REMARK    2  A    between atoms: N_4  and  S_1 
REMARK    3  A    between atoms: C_11  and  N_4 
REMARK    4  A    between atoms: C_9  and  C_11 
ROOT
ATOM      1  S   UNL d   1      53.312  32.477  53.751  0.00  0.00     0.285 S 
ATOM      2  O   UNL d   1      52.529  32.466  54.010  0.00  0.00    -0.198 OA
ATOM      3  O   UNL d   1      54.096  32.488  53.492  0.00  0.00    -0.198 OA
ENDROOT
BRANCH   1   4
ATOM      4  C   UNL d   1      53.329  31.652  53.768  0.00  0.00     0.105 A 
ATOM      5  C   UNL d   1      53.007  31.220  53.138  0.00  0.00     0.012 A 
ATOM      6  C   UNL d   1      53.024  30.396  53.155  0.00  0.00     0.001 A 
ATOM      7  C   UNL d   1      52.670  31.612  52.495  0.00  0.00     0.001 C 
ATOM      8  C   UNL d   1      52.704  29.963  52.529  0.00  0.00     0.000 C 
ATOM      9  C   UNL d   1      53.363  30.003  53.802  0.00  0.00     0.000 A 
ATOM     10  C   UNL d   1      53.683  30.436  54.427  0.00  0.00     0.001 A 
ATOM     11  C   UNL d   1      53.381  29.178  53.819  0.00  0.00     0.000 C 
ATOM     12  C   UNL d   1      53.666  31.259  54.410  0.00  0.00     0.013 A 
ENDBRANCH   1   4
BRANCH   1  13
ATOM     13  N   UNL d   1      53.295  33.302  53.734  0.00  0.00    -0.155 NA
BRANCH  13  14
ATOM     14  C   UNL d   1      53.271  33.728  54.444  0.00  0.00     0.137 C 
BRANCH  14  15
ATOM     15  C   UNL d   1      53.200  34.550  54.427  0.00  0.00     0.120 A 
ATOM     16  O   UNL d   1      53.406  35.064  55.036  0.00  0.00    -0.304 OA
ATOM     17  C   UNL d   1      53.244  35.829  54.783  0.00  0.00     0.123 A 
ATOM     18  C   UNL d   1      52.938  35.787  54.018  0.00  0.00     0.029 A 
ATOM     19  C   UNL d   1      52.912  34.996  53.799  0.00  0.00     0.028 A 
ENDBRANCH  14  15
ENDBRANCH  13  14
ENDBRANCH   1  13
TORSDOF 4
ENDMDL
MODEL 4
REMARK VINA RESULT:      -6.9      1.085      4.197
REMARK  4 active torsions:
REMARK  status: ('A' for Active; 'I' for Inactive)
REMARK    1  A    between atoms: C_2  and  S_1 
REMARK    2  A    between atoms: N_4  and  S_1 
REMARK    3  A    between atoms: C_11  and  N_4 
REMARK    4  A    between atoms: C_9  and  C_11 
ROOT
ATOM      1  S   UNL d   1      52.165  34.080  53.377  0.00  0.00     0.285 S 
ATOM      2  O   UNL d   1      52.008  33.271  53.397  0.00  0.00    -0.198 OA
ATOM      3  O   UNL d   1      52.323  34.890  53.358  0.00  0.00    -0.198 OA
ENDROOT
BRANCH   1   4
ATOM      4  C   UNL d   1      51.411  34.220  53.073  0.00  0.00     0.105 A 
ATOM      5  C   UNL d   1      51.291  34.223  52.253  0.00  0.00     0.012 A 
ATOM      6  C   UNL d   1      50.537  34.362  51.949  0.00  0.00     0.001 A 
ATOM      7  C   UNL d   1      51.924  34.087  51.741  0.00  0.00     0.001 C 
ATOM      8  C   UNL d   1      50.415  34.366  51.133  0.00  0.00     0.000 C 
ATOM      9  C   UNL d   1      49.903  34.499  52.465  0.00  0.00     0.000 A 
ATOM     10  C   UNL d   1      50.025  34.495  53.281  0.00  0.00     0.001 A 
ATOM     11  C   UNL d   1      49.149  34.638  52.161  0.00  0.00     0.000 C 
ATOM     12  C   UNL d   1      50.778  34.356  53.585  0.00  0.00     0.013 A 
ENDBRANCH   1   4
BRANCH   1  13
ATOM     13  N   UNL d   1      52.919  33.941  53.681  0.00  0.00    -0.155 NA
BRANCH  13  14
ATOM     14  C   UNL d   1      53.047  33.979  54.499  0.00  0.00     0.137 C 
BRANCH  14  15
ATOM     15  C   UNL d   1      53.800  33.830  54.804  0.00  0.00     0.120 A 
ATOM     16  O   UNL d   1      54.383  34.393  54.945  0.00  0.00    -0.304 OA
ATOM     17  C   UNL d   1      55.040  34.003  55.247  0.00  0.00     0.123 A 
ATOM     18  C   UNL d   1      54.862  33.199  55.293  0.00  0.00     0.029 A 
ATOM     19  C   UNL d   1      54.095  33.093  55.019  0.00  0.00     0.028 A 
ENDBRANCH  14  15
ENDBRANCH  13  14
ENDBRANCH   1  13
TORSDOF 4
ENDMDL
