MODEL 1
REMARK VINA RESULT:      22.8      0.000      0.000
REMARK  6 active torsions:
REMARK  status: ('A' for Active; 'I' for Inactive)
REMARK    1  A    between atoms: C_6  and  N_3 
REMARK    2  A    between atoms: C_14  and  C_6 
REMARK    3  A    between atoms: C_7  and  O_8 
REMARK    4  A    between atoms: O_8  and  C_11 
REMARK    5  A    between atoms: C_11  and  C_15 
REMARK    6  A    between atoms: C_15  and  C_14 
ROOT
ATOM      1  C   UNL d   1      13.623  12.025  -2.909  0.00  0.00     0.082 C 
ENDROOT
BRANCH   1   2
ATOM      2  N   UNL d   1      13.628  11.959  -2.084  0.00  0.00    -0.287 N 
ATOM      3  C   UNL d   1      12.867  11.836  -1.744  0.00  0.00     0.183 A 
ATOM      4  N   UNL d   1      12.964  11.780  -0.904  0.00  0.00    -0.224 NA
ATOM      5  C   UNL d   1      13.778  11.869  -0.730  0.00  0.00     0.099 A 
ATOM      6  C   UNL d   1      14.187  11.980  -1.464  0.00  0.00     0.083 A 
ATOM      7  C   UNL d   1      14.195  11.864  -0.019  0.00  0.00     0.021 A 
ATOM      8  C   UNL d   1      15.014  12.083  -1.453  0.00  0.00     0.019 A 
ATOM      9  C   UNL d   1      15.428  12.077  -0.734  0.00  0.00     0.002 A 
ATOM     10  C   UNL d   1      15.013  11.967  -0.017  0.00  0.00     0.002 A 
ENDBRANCH   1   2
BRANCH   1  11
ATOM     11  C   UNL d   1      12.909  12.067  -3.316  0.00  0.00     0.021 C 
BRANCH  11  12
ATOM     12  C   UNL d   1      12.892  11.986  -4.124  0.00  0.00     0.028 C 
BRANCH  12  13
ATOM     13  C   UNL d   1      13.215  12.576  -4.618  0.00  0.00     0.123 C 
BRANCH  13  14
ATOM     14  O   UNL d   1      12.774  13.244  -4.801  0.00  0.00    -0.305 OA
BRANCH  14  15
ATOM     15  C   UNL d   1      13.125  13.989  -4.768  0.00  0.00     0.100 A 
ATOM     16  C   UNL d   1      13.660  14.217  -5.357  0.00  0.00     0.025 A 
ATOM     17  C   UNL d   1      14.003  14.954  -5.319  0.00  0.00     0.002 A 
ATOM     18  C   UNL d   1      13.828  15.470  -4.710  0.00  0.00     0.000 A 
ATOM     19  C   UNL d   1      13.291  15.241  -4.120  0.00  0.00     0.002 A 
ATOM     20  C   UNL d   1      12.939  14.499  -4.149  0.00  0.00     0.025 A 
ENDBRANCH  14  15
ENDBRANCH  13  14
ENDBRANCH  12  13
ENDBRANCH  11  12
ENDBRANCH   1  11
TORSDOF 6
ENDMDL
