MODEL 1
REMARK VINA RESULT:      15.2      0.000      0.000
REMARK  4 active torsions:
REMARK  status: ('A' for Active; 'I' for Inactive)
REMARK    1  A    between atoms: N_7  and  C_2 
REMARK    2  A    between atoms: C_5  and  C_10 
REMARK    3  A    between atoms: N_6  and  N_7 
REMARK    4  A    between atoms: C_10  and  N_6 
ROOT
ATOM      1  C   UNL d   1      14.024  12.453  -1.533  0.00  0.00     0.125 C 
ENDROOT
BRANCH   1   2
ATOM      2  C   UNL d   1      14.515  12.938  -1.058  0.00  0.00     0.060 A 
ATOM      3  C   UNL d   1      15.008  12.593  -0.486  0.00  0.00     0.197 A 
ATOM      4  C   UNL d   1      15.495  13.079  -0.015  0.00  0.00     0.043 A 
ATOM      5  O   UNL d   1      15.029  11.779  -0.370  0.00  0.00    -0.286 OA
ATOM      6  C   UNL d   1      15.485  13.889  -0.119  0.00  0.00     0.010 A 
ATOM      7  C   UNL d   1      14.992  14.224  -0.689  0.00  0.00     0.035 A 
ATOM      8  C   UNL d   1      14.505  13.765  -1.163  0.00  0.00     0.011 A 
ATOM      9 BR   UNL d   1      14.976  15.063  -0.802  0.00  0.00    -0.049 Br
ENDBRANCH   1   2
BRANCH   1  10
ATOM     10  N   UNL d   1      13.944  12.584  -2.362  0.00  0.00    -0.144 NA
BRANCH  10  11
ATOM     11  N   UNL d   1      13.260  12.396  -2.743  0.00  0.00    -0.121 NA
BRANCH  11  12
ATOM     12  C   UNL d   1      13.242  12.370  -3.572  0.00  0.00     0.217 A 
ATOM     13  N   UNL d   1      13.598  11.887  -4.105  0.00  0.00    -0.181 NA
ATOM     14  C   UNL d   1      13.375  12.126  -4.834  0.00  0.00     0.288 A 
ATOM     15  O   UNL d   1      13.612  11.783  -5.545  0.00  0.00    -0.265 OA
ATOM     16  C   UNL d   1      12.886  12.748  -4.789  0.00  0.00     0.101 A 
ATOM     17  S   UNL d   1      12.784  12.926  -3.990  0.00  0.00    -0.041 SA
ENDBRANCH  11  12
ENDBRANCH  10  11
ENDBRANCH   1  10
TORSDOF 4
ENDMDL
MODEL 2
REMARK VINA RESULT:      15.7      2.135      4.183
REMARK  4 active torsions:
REMARK  status: ('A' for Active; 'I' for Inactive)
REMARK    1  A    between atoms: N_7  and  C_2 
REMARK    2  A    between atoms: C_5  and  C_10 
REMARK    3  A    between atoms: N_6  and  N_7 
REMARK    4  A    between atoms: C_10  and  N_6 
ROOT
ATOM      1  C   UNL d   1      13.669  12.770  -2.878  0.00  0.00     0.125 C 
ENDROOT
BRANCH   1   2
ATOM      2  C   UNL d   1      13.375  12.905  -3.650  0.00  0.00     0.060 A 
ATOM      3  C   UNL d   1      13.107  13.661  -3.864  0.00  0.00     0.197 A 
ATOM      4  C   UNL d   1      12.815  13.792  -4.634  0.00  0.00     0.043 A 
ATOM      5  O   UNL d   1      13.123  14.289  -3.334  0.00  0.00    -0.286 OA
ATOM      6  C   UNL d   1      12.793  13.177  -5.172  0.00  0.00     0.010 A 
ATOM      7  C   UNL d   1      13.060  12.428  -4.951  0.00  0.00     0.035 A 
ATOM      8  C   UNL d   1      13.352  12.278  -4.199  0.00  0.00     0.011 A 
ATOM      9 BR   UNL d   1      13.040  11.787  -5.502  0.00  0.00    -0.049 Br
ENDBRANCH   1   2
BRANCH   1  10
ATOM     10  N   UNL d   1      13.856  11.993  -2.606  0.00  0.00    -0.144 NA
BRANCH  10  11
ATOM     11  N   UNL d   1      13.739  11.789  -1.836  0.00  0.00    -0.121 NA
BRANCH  11  12
ATOM     12  C   UNL d   1      14.241  12.087  -1.248  0.00  0.00     0.217 A 
ATOM     13  N   UNL d   1      14.905  12.538  -1.281  0.00  0.00    -0.181 NA
ATOM     14  C   UNL d   1      15.156  12.655  -0.533  0.00  0.00     0.288 A 
ATOM     15  O   UNL d   1      15.821  13.089  -0.312  0.00  0.00    -0.265 OA
ATOM     16  C   UNL d   1      14.676  12.294  -0.015  0.00  0.00     0.101 A 
ATOM     17  S   UNL d   1      14.080  11.922  -0.448  0.00  0.00    -0.041 SA
ENDBRANCH  11  12
ENDBRANCH  10  11
ENDBRANCH   1  10
TORSDOF 4
ENDMDL
