MODEL 1
REMARK VINA RESULT:      71.5      0.000      0.000
REMARK  6 active torsions:
REMARK  status: ('A' for Active; 'I' for Inactive)
REMARK       I    between atoms: C_4  and  N_1 
REMARK    1  A    between atoms: C_8  and  C_3 
REMARK    2  A    between atoms: C_16  and  C_4 
REMARK    3  A    between atoms: C_13  and  C_5 
REMARK    4  A    between atoms: N_6  and  C_9 
REMARK    5  A    between atoms: O_24  and  C_11 
REMARK    6  A    between atoms: O_25  and  C_17 
ROOT
ATOM      1  N   UNL d   1      15.018  15.536  -1.523  0.00  0.00    -0.195 N 
ATOM      2  N   UNL d   1      15.136  16.300  -1.851  0.00  0.00    -0.163 NA
ATOM      3  C   UNL d   1      14.760  15.047  -2.143  0.00  0.00     0.088 A 
ATOM      4  C   UNL d   1      15.141  15.306  -0.705  0.00  0.00     0.280 C 
ATOM      5  C   UNL d   1      14.946  16.255  -2.662  0.00  0.00     0.103 A 
ATOM      6  C   UNL d   1      14.720  15.498  -2.833  0.00  0.00     0.040 A 
ATOM      7  O   UNL d   1      15.397  15.849  -0.155  0.00  0.00    -0.265 OA
ENDROOT
BRANCH   3   8
ATOM      8  C   UNL d   1      14.587  14.244  -2.021  0.00  0.00     0.020 A 
ATOM      9  C   UNL d   1      14.098  14.032  -2.640  0.00  0.00     0.028 A 
ATOM     10  C   UNL d   1      13.814  13.266  -2.698  0.00  0.00     0.116 A 
ATOM     11  C   UNL d   1      14.021  12.702  -2.131  0.00  0.00     0.116 A 
ATOM     12  C   UNL d   1      14.529  12.944  -1.499  0.00  0.00     0.026 A 
ATOM     13  C   UNL d   1      14.812  13.709  -1.441  0.00  0.00     0.004 A 
BRANCH  10  14
ATOM     14  O   UNL d   1      13.312  13.052  -3.336  0.00  0.00    -0.326 OA
ATOM     15  C   UNL d   1      13.380  13.432  -4.091  0.00  0.00     0.181 C 
ENDBRANCH  10  14
BRANCH  11  16
ATOM     16  O   UNL d   1      13.733  11.913  -2.184  0.00  0.00    -0.326 OA
ATOM     17  C   UNL d   1      12.954  11.779  -2.332  0.00  0.00     0.181 C 
ENDBRANCH  11  16
ENDBRANCH   3   8
BRANCH   4  18
ATOM     18  C   UNL d   1      14.990  14.497  -0.477  0.00  0.00     0.058 A 
ATOM     19  C   UNL d   1      14.236  14.265  -0.237  0.00  0.00     0.005 A 
ATOM     20  C   UNL d   1      14.077  13.486  -0.014  0.00  0.00     0.000 A 
ATOM     21  C   UNL d   1      14.687  12.931  -0.034  0.00  0.00     0.000 A 
ATOM     22  C   UNL d   1      15.439  13.164  -0.274  0.00  0.00     0.000 A 
ATOM     23  C   UNL d   1      15.600  13.948  -0.498  0.00  0.00     0.005 A 
ENDBRANCH   4  18
BRANCH   5  24
ATOM     24  C   UNL d   1      14.966  16.843  -3.235  0.00  0.00     0.019 A 
ATOM     25  C   UNL d   1      15.098  16.603  -4.022  0.00  0.00     0.003 A 
ATOM     26  C   UNL d   1      15.125  17.156  -4.618  0.00  0.00     0.024 A 
ATOM     27  C   UNL d   1      15.020  17.966  -4.441  0.00  0.00     0.127 A 
ATOM     28  C   UNL d   1      14.888  18.206  -3.654  0.00  0.00     0.024 A 
ATOM     29  C   UNL d   1      14.863  17.624  -3.053  0.00  0.00     0.003 A 
BRANCH  27  30
ATOM     30  N   UNL d   1      15.049  18.538  -5.065  0.00  0.00    -0.114 N 
ATOM     31  O   UNL d   1      14.428  18.590  -5.618  0.00  0.00    -0.532 OA
ATOM     32  O   UNL d   1      15.705  19.052  -5.124  0.00  0.00    -0.532 OA
ENDBRANCH  27  30
ENDBRANCH   5  24
TORSDOF 6
ENDMDL
MODEL 2
REMARK VINA RESULT:      74.0      1.270      2.723
REMARK  6 active torsions:
REMARK  status: ('A' for Active; 'I' for Inactive)
REMARK       I    between atoms: C_4  and  N_1 
REMARK    1  A    between atoms: C_8  and  C_3 
REMARK    2  A    between atoms: C_16  and  C_4 
REMARK    3  A    between atoms: C_13  and  C_5 
REMARK    4  A    between atoms: N_6  and  C_9 
REMARK    5  A    between atoms: O_24  and  C_11 
REMARK    6  A    between atoms: O_25  and  C_17 
ROOT
ATOM      1  N   UNL d   1      13.644  14.409  -4.256  0.00  0.00    -0.195 N 
ATOM      2  N   UNL d   1      13.656  15.097  -4.735  0.00  0.00    -0.163 NA
ATOM      3  C   UNL d   1      14.091  14.583  -3.577  0.00  0.00     0.088 A 
ATOM      4  C   UNL d   1      13.246  13.669  -4.432  0.00  0.00     0.280 C 
ATOM      5  C   UNL d   1      14.110  15.672  -4.337  0.00  0.00     0.103 A 
ATOM      6  C   UNL d   1      14.370  15.356  -3.639  0.00  0.00     0.040 A 
ATOM      7  O   UNL d   1      12.825  13.578  -5.124  0.00  0.00    -0.265 OA
ENDROOT
BRANCH   3   8
ATOM      8  C   UNL d   1      14.201  14.024  -2.973  0.00  0.00     0.020 A 
ATOM      9  C   UNL d   1      14.596  14.422  -2.380  0.00  0.00     0.028 A 
ATOM     10  C   UNL d   1      14.799  14.035  -1.687  0.00  0.00     0.116 A 
ATOM     11  C   UNL d   1      14.605  13.239  -1.584  0.00  0.00     0.116 A 
ATOM     12  C   UNL d   1      14.195  12.846  -2.211  0.00  0.00     0.026 A 
ATOM     13  C   UNL d   1      13.993  13.233  -2.903  0.00  0.00     0.004 A 
BRANCH  10  14
ATOM     14  O   UNL d   1      15.206  14.448  -1.079  0.00  0.00    -0.326 OA
ATOM     15  C   UNL d   1      14.789  14.951  -0.539  0.00  0.00     0.181 C 
ENDBRANCH  10  14
BRANCH  11  16
ATOM     16  O   UNL d   1      14.810  12.835  -0.875  0.00  0.00    -0.326 OA
ATOM     17  C   UNL d   1      15.277  12.181  -0.905  0.00  0.00     0.181 C 
ENDBRANCH  11  16
ENDBRANCH   3   8
BRANCH   4  18
ATOM     18  C   UNL d   1      13.299  13.028  -3.870  0.00  0.00     0.058 A 
ATOM     19  C   UNL d   1      13.864  12.435  -3.965  0.00  0.00     0.005 A 
ATOM     20  C   UNL d   1      13.925  11.810  -3.428  0.00  0.00     0.000 A 
ATOM     21  C   UNL d   1      13.409  11.782  -2.786  0.00  0.00     0.000 A 
ATOM     22  C   UNL d   1      12.846  12.374  -2.692  0.00  0.00     0.000 A 
ATOM     23  C   UNL d   1      12.783  13.004  -3.232  0.00  0.00     0.005 A 
ENDBRANCH   4  18
BRANCH   5  24
ATOM     24  C   UNL d   1      14.295  16.439  -4.563  0.00  0.00     0.019 A 
ATOM     25  C   UNL d   1      13.972  16.711  -5.282  0.00  0.00     0.003 A 
ATOM     26  C   UNL d   1      14.132  17.466  -5.541  0.00  0.00     0.024 A 
ATOM     27  C   UNL d   1      14.620  17.968  -5.086  0.00  0.00     0.127 A 
ATOM     28  C   UNL d   1      14.943  17.697  -4.367  0.00  0.00     0.024 A 
ATOM     29  C   UNL d   1      14.768  16.917  -4.116  0.00  0.00     0.003 A 
BRANCH  27  30
ATOM     30  N   UNL d   1      14.783  18.753  -5.360  0.00  0.00    -0.114 N 
ATOM     31  O   UNL d   1      15.364  19.218  -4.984  0.00  0.00    -0.532 OA
ATOM     32  O   UNL d   1      14.358  19.061  -6.010  0.00  0.00    -0.532 OA
ENDBRANCH  27  30
ENDBRANCH   5  24
TORSDOF 6
ENDMDL
