MODEL 1
REMARK VINA RESULT:      -8.0      0.000      0.000
REMARK  3 active torsions:
REMARK  status: ('A' for Active; 'I' for Inactive)
REMARK    1  A    between atoms: N_5  and  C_1 
REMARK       I    between atoms: C_6  and  N_5 
REMARK    2  A    between atoms: C_8  and  C_6 
REMARK    3  A    between atoms: O_16  and  C_12 
ROOT
ATOM      1  C   UNL d   1     -47.938  13.023  23.260  0.00  0.00     0.124 A 
ATOM      2  C   UNL d   1     -47.131  13.049  23.175  0.00  0.00     0.093 A 
ATOM      3  S   UNL d   1     -48.172  12.268  23.478  0.00  0.00    -0.067 SA
ATOM      4  C   UNL d   1     -46.822  12.307  23.337  0.00  0.00     0.018 A 
ATOM      5  C   UNL d   1     -47.493  11.804  23.532  0.00  0.00     0.032 A 
ATOM      6  C   UNL d   1     -46.653  13.743  22.949  0.00  0.00     0.103 C 
ATOM      7  N   UNL d   1     -46.207  14.411  22.732  0.00  0.00    -0.191 NA
ATOM      8  C   UNL d   1     -46.155  11.833  23.394  0.00  0.00     0.001 A 
ATOM      9  C   UNL d   1     -47.196  11.052  23.698  0.00  0.00     0.006 A 
ATOM     10  C   UNL d   1     -46.377  11.077  23.611  0.00  0.00     0.001 A 
ENDROOT
BRANCH   1  11
ATOM     11  N   UNL d   1     -48.472  13.688  23.140  0.00  0.00    -0.201 NA
ATOM     12  C   UNL d   1     -49.267  13.587  23.290  0.00  0.00     0.281 C 
ATOM     13  O   UNL d   1     -49.599  12.859  23.558  0.00  0.00    -0.265 OA
BRANCH  12  14
ATOM     14  C   UNL d   1     -49.785  14.232  23.173  0.00  0.00     0.080 A 
ATOM     15  C   UNL d   1     -50.371  14.211  22.539  0.00  0.00     0.099 A 
ATOM     16  C   UNL d   1     -50.879  14.844  22.425  0.00  0.00     0.024 A 
ATOM     17  C   UNL d   1     -50.807  15.506  22.943  0.00  0.00     0.002 A 
ATOM     18  C   UNL d   1     -50.299  15.560  23.516  0.00  0.00     0.000 A 
ATOM     19  C   UNL d   1     -49.751  14.911  23.661  0.00  0.00     0.007 A 
BRANCH  15  20
ATOM     20  O   UNL d   1     -50.441  13.552  22.027  0.00  0.00    -0.328 OA
ATOM     21  C   UNL d   1     -51.018  13.526  21.432  0.00  0.00     0.181 C 
ENDBRANCH  15  20
ENDBRANCH  12  14
ENDBRANCH   1  11
TORSDOF 3
ENDMDL
MODEL 2
REMARK VINA RESULT:      -7.9      1.381      4.221
REMARK  3 active torsions:
REMARK  status: ('A' for Active; 'I' for Inactive)
REMARK    1  A    between atoms: N_5  and  C_1 
REMARK       I    between atoms: C_6  and  N_5 
REMARK    2  A    between atoms: C_8  and  C_6 
REMARK    3  A    between atoms: O_16  and  C_12 
ROOT
ATOM      1  C   UNL d   1     -48.777  14.152  22.460  0.00  0.00     0.124 A 
ATOM      2  C   UNL d   1     -49.486  13.910  22.147  0.00  0.00     0.093 A 
ATOM      3  S   UNL d   1     -48.891  14.801  22.947  0.00  0.00    -0.067 SA
ATOM      4  C   UNL d   1     -50.081  14.400  22.428  0.00  0.00     0.018 A 
ATOM      5  C   UNL d   1     -49.698  14.974  22.943  0.00  0.00     0.032 A 
ATOM      6  C   UNL d   1     -49.615  13.241  21.602  0.00  0.00     0.103 C 
ATOM      7  N   UNL d   1     -49.726  12.601  21.083  0.00  0.00    -0.191 NA
ATOM      8  C   UNL d   1     -50.881  14.584  22.433  0.00  0.00     0.001 A 
ATOM      9  C   UNL d   1     -50.286  15.476  23.233  0.00  0.00     0.006 A 
ATOM     10  C   UNL d   1     -51.007  15.231  22.916  0.00  0.00     0.001 A 
ENDROOT
BRANCH   1  11
ATOM     11  N   UNL d   1     -48.014  13.783  22.304  0.00  0.00    -0.201 NA
ATOM     12  C   UNL d   1     -47.455  13.768  22.897  0.00  0.00     0.281 C 
ATOM     13  O   UNL d   1     -47.585  14.096  23.663  0.00  0.00    -0.265 OA
BRANCH  12  14
ATOM     14  C   UNL d   1     -46.715  13.410  22.746  0.00  0.00     0.080 A 
ATOM     15  C   UNL d   1     -46.538  12.627  23.064  0.00  0.00     0.099 A 
ATOM     16  C   UNL d   1     -45.812  12.275  22.915  0.00  0.00     0.024 A 
ATOM     17  C   UNL d   1     -45.255  12.703  22.447  0.00  0.00     0.002 A 
ATOM     18  C   UNL d   1     -45.379  13.399  22.148  0.00  0.00     0.000 A 
ATOM     19  C   UNL d   1     -46.132  13.794  22.287  0.00  0.00     0.007 A 
BRANCH  15  20
ATOM     20  O   UNL d   1     -47.092  12.204  23.528  0.00  0.00    -0.328 OA
ATOM     21  C   UNL d   1     -46.990  11.399  23.698  0.00  0.00     0.181 C 
ENDBRANCH  15  20
ENDBRANCH  12  14
ENDBRANCH   1  11
TORSDOF 3
ENDMDL
MODEL 3
REMARK VINA RESULT:      -7.5      1.432      4.297
REMARK  3 active torsions:
REMARK  status: ('A' for Active; 'I' for Inactive)
REMARK    1  A    between atoms: N_5  and  C_1 
REMARK       I    between atoms: C_6  and  N_5 
REMARK    2  A    between atoms: C_8  and  C_6 
REMARK    3  A    between atoms: O_16  and  C_12 
ROOT
ATOM      1  C   UNL d   1     -48.829  13.609  22.858  0.00  0.00     0.124 A 
ATOM      2  C   UNL d   1     -49.466  13.620  22.354  0.00  0.00     0.093 A 
ATOM      3  S   UNL d   1     -48.820  14.290  23.314  0.00  0.00    -0.067 SA
ATOM      4  C   UNL d   1     -49.887  14.314  22.473  0.00  0.00     0.018 A 
ATOM      5  C   UNL d   1     -49.471  14.745  23.092  0.00  0.00     0.032 A 
ATOM      6  C   UNL d   1     -49.683  13.006  21.774  0.00  0.00     0.103 C 
ATOM      7  N   UNL d   1     -49.881  12.413  21.225  0.00  0.00    -0.191 NA
ATOM      8  C   UNL d   1     -50.530  14.777  22.262  0.00  0.00     0.001 A 
ATOM      9  C   UNL d   1     -49.884  15.447  23.223  0.00  0.00     0.006 A 
ATOM     10  C   UNL d   1     -50.531  15.460  22.712  0.00  0.00     0.001 A 
ENDROOT
BRANCH   1  11
ATOM     11  N   UNL d   1     -48.247  12.976  22.908  0.00  0.00    -0.201 NA
ATOM     12  C   UNL d   1     -47.510  13.142  23.215  0.00  0.00     0.281 C 
ATOM     13  O   UNL d   1     -47.285  13.907  23.490  0.00  0.00    -0.265 OA
BRANCH  12  14
ATOM     14  C   UNL d   1     -46.946  12.527  23.264  0.00  0.00     0.080 A 
ATOM     15  C   UNL d   1     -46.170  12.620  22.896  0.00  0.00     0.099 A 
ATOM     16  C   UNL d   1     -45.616  12.017  22.944  0.00  0.00     0.024 A 
ATOM     17  C   UNL d   1     -45.831  11.315  23.359  0.00  0.00     0.002 A 
ATOM     18  C   UNL d   1     -46.510  11.198  23.698  0.00  0.00     0.000 A 
ATOM     19  C   UNL d   1     -47.113  11.813  23.665  0.00  0.00     0.007 A 
BRANCH  15  20
ATOM     20  O   UNL d   1     -45.958  13.318  22.484  0.00  0.00    -0.328 OA
ATOM     21  C   UNL d   1     -45.221  13.394  22.113  0.00  0.00     0.181 C 
ENDBRANCH  15  20
ENDBRANCH  12  14
ENDBRANCH   1  11
TORSDOF 3
ENDMDL
MODEL 4
REMARK VINA RESULT:      -7.1      1.770      2.079
REMARK  3 active torsions:
REMARK  status: ('A' for Active; 'I' for Inactive)
REMARK    1  A    between atoms: N_5  and  C_1 
REMARK       I    between atoms: C_6  and  N_5 
REMARK    2  A    between atoms: C_8  and  C_6 
REMARK    3  A    between atoms: O_16  and  C_12 
ROOT
ATOM      1  C   UNL d   1     -47.384  13.109  22.736  0.00  0.00     0.124 A 
ATOM      2  C   UNL d   1     -46.987  13.802  22.587  0.00  0.00     0.093 A 
ATOM      3  S   UNL d   1     -46.868  12.474  22.686  0.00  0.00    -0.067 SA
ATOM      4  C   UNL d   1     -46.200  13.630  22.437  0.00  0.00     0.018 A 
ATOM      5  C   UNL d   1     -46.123  12.774  22.501  0.00  0.00     0.032 A 
ATOM      6  C   UNL d   1     -47.325  14.606  22.584  0.00  0.00     0.103 C 
ATOM      7  N   UNL d   1     -47.658  15.368  22.583  0.00  0.00    -0.191 NA
ATOM      8  C   UNL d   1     -45.452  13.915  22.253  0.00  0.00     0.001 A 
ATOM      9  C   UNL d   1     -45.333  12.587  22.351  0.00  0.00     0.006 A 
ATOM     10  C   UNL d   1     -44.929  13.289  22.200  0.00  0.00     0.001 A 
ENDROOT
BRANCH   1  11
ATOM     11  N   UNL d   1     -48.223  13.047  22.919  0.00  0.00    -0.201 NA
ATOM     12  C   UNL d   1     -48.643  12.409  22.634  0.00  0.00     0.281 C 
ATOM     13  O   UNL d   1     -48.296  11.800  22.164  0.00  0.00    -0.265 OA
BRANCH  12  14
ATOM     14  C   UNL d   1     -49.457  12.349  22.811  0.00  0.00     0.080 A 
ATOM     15  C   UNL d   1     -50.048  12.602  22.234  0.00  0.00     0.099 A 
ATOM     16  C   UNL d   1     -50.847  12.543  22.409  0.00  0.00     0.024 A 
ATOM     17  C   UNL d   1     -51.064  12.231  23.162  0.00  0.00     0.002 A 
ATOM     18  C   UNL d   1     -50.568  11.997  23.698  0.00  0.00     0.000 A 
ATOM     19  C   UNL d   1     -49.722  12.046  23.544  0.00  0.00     0.007 A 
BRANCH  15  20
ATOM     20  O   UNL d   1     -49.830  12.911  21.487  0.00  0.00    -0.328 OA
ATOM     21  C   UNL d   1     -50.334  13.415  21.063  0.00  0.00     0.181 C 
ENDBRANCH  15  20
ENDBRANCH  12  14
ENDBRANCH   1  11
TORSDOF 3
ENDMDL
MODEL 5
REMARK VINA RESULT:      -6.5      1.893      3.844
REMARK  3 active torsions:
REMARK  status: ('A' for Active; 'I' for Inactive)
REMARK    1  A    between atoms: N_5  and  C_1 
REMARK       I    between atoms: C_6  and  N_5 
REMARK    2  A    between atoms: C_8  and  C_6 
REMARK    3  A    between atoms: O_16  and  C_12 
ROOT
ATOM      1  C   UNL d   1     -48.723  12.480  22.589  0.00  0.00     0.124 A 
ATOM      2  C   UNL d   1     -49.407  12.801  22.291  0.00  0.00     0.093 A 
ATOM      3  S   UNL d   1     -48.900  11.955  23.193  0.00  0.00    -0.067 SA
ATOM      4  C   UNL d   1     -50.047  12.489  22.698  0.00  0.00     0.018 A 
ATOM      5  C   UNL d   1     -49.720  11.944  23.279  0.00  0.00     0.032 A 
ATOM      6  C   UNL d   1     -49.471  13.384  21.645  0.00  0.00     0.103 C 
ATOM      7  N   UNL d   1     -49.520  13.939  21.027  0.00  0.00    -0.191 NA
ATOM      8  C   UNL d   1     -50.861  12.468  22.795  0.00  0.00     0.001 A 
ATOM      9  C   UNL d   1     -50.355  11.621  23.697  0.00  0.00     0.006 A 
ATOM     10  C   UNL d   1     -51.049  11.947  23.396  0.00  0.00     0.001 A 
ENDROOT
BRANCH   1  11
ATOM     11  N   UNL d   1     -47.928  12.663  22.314  0.00  0.00    -0.201 NA
ATOM     12  C   UNL d   1     -47.340  12.792  22.864  0.00  0.00     0.281 C 
ATOM     13  O   UNL d   1     -47.470  12.756  23.697  0.00  0.00    -0.265 OA
BRANCH  12  14
ATOM     14  C   UNL d   1     -46.568  12.969  22.597  0.00  0.00     0.080 A 
ATOM     15  C   UNL d   1     -46.264  13.775  22.649  0.00  0.00     0.099 A 
ATOM     16  C   UNL d   1     -45.507  13.949  22.387  0.00  0.00     0.024 A 
ATOM     17  C   UNL d   1     -45.046  13.318  22.069  0.00  0.00     0.002 A 
ATOM     18  C   UNL d   1     -45.283  12.591  22.007  0.00  0.00     0.000 A 
ATOM     19  C   UNL d   1     -46.073  12.377  22.274  0.00  0.00     0.007 A 
BRANCH  15  20
ATOM     20  O   UNL d   1     -46.724  14.399  22.965  0.00  0.00    -0.328 OA
ATOM     21  C   UNL d   1     -46.589  15.189  22.750  0.00  0.00     0.181 C 
ENDBRANCH  15  20
ENDBRANCH  12  14
ENDBRANCH   1  11
TORSDOF 3
ENDMDL
MODEL 6
REMARK VINA RESULT:      -6.3      9.005     10.821
REMARK  3 active torsions:
REMARK  status: ('A' for Active; 'I' for Inactive)
REMARK    1  A    between atoms: N_5  and  C_1 
REMARK       I    between atoms: C_6  and  N_5 
REMARK    2  A    between atoms: C_8  and  C_6 
REMARK    3  A    between atoms: O_16  and  C_12 
ROOT
ATOM      1  C   UNL d   1     -39.857  15.235  19.112  0.00  0.00     0.124 A 
ATOM      2  C   UNL d   1     -39.578  15.513  19.822  0.00  0.00     0.093 A 
ATOM      3  S   UNL d   1     -40.675  15.193  19.129  0.00  0.00    -0.067 SA
ATOM      4  C   UNL d   1     -40.214  15.659  20.318  0.00  0.00     0.018 A 
ATOM      5  C   UNL d   1     -40.921  15.453  19.872  0.00  0.00     0.032 A 
ATOM      6  C   UNL d   1     -38.743  15.642  20.040  0.00  0.00     0.103 C 
ATOM      7  N   UNL d   1     -37.944  15.762  20.237  0.00  0.00    -0.191 NA
ATOM      8  C   UNL d   1     -40.473  15.916  21.054  0.00  0.00     0.001 A 
ATOM      9  C   UNL d   1     -41.571  15.596  20.360  0.00  0.00     0.006 A 
ATOM     10  C   UNL d   1     -41.289  15.879  21.081  0.00  0.00     0.001 A 
ENDROOT
BRANCH   1  11
ATOM     11  N   UNL d   1     -39.367  15.015  18.439  0.00  0.00    -0.201 NA
ATOM     12  C   UNL d   1     -39.602  14.392  17.968  0.00  0.00     0.281 C 
ATOM     13  O   UNL d   1     -40.305  13.947  18.106  0.00  0.00    -0.265 OA
BRANCH  12  14
ATOM     14  C   UNL d   1     -39.126  14.178  17.314  0.00  0.00     0.080 A 
ATOM     15  C   UNL d   1     -38.687  13.435  17.321  0.00  0.00     0.099 A 
ATOM     16  C   UNL d   1     -38.220  13.225  16.679  0.00  0.00     0.024 A 
ATOM     17  C   UNL d   1     -38.189  13.756  16.025  0.00  0.00     0.002 A 
ATOM     18  C   UNL d   1     -38.565  14.424  15.984  0.00  0.00     0.000 A 
ATOM     19  C   UNL d   1     -39.063  14.672  16.642  0.00  0.00     0.007 A 
BRANCH  15  20
ATOM     20  O   UNL d   1     -38.720  12.910  17.972  0.00  0.00    -0.328 OA
ATOM     21  C   UNL d   1     -38.211  12.257  18.029  0.00  0.00     0.181 C 
ENDBRANCH  15  20
ENDBRANCH  12  14
ENDBRANCH   1  11
TORSDOF 3
ENDMDL
MODEL 7
REMARK VINA RESULT:      -6.0      9.465     11.057
REMARK  3 active torsions:
REMARK  status: ('A' for Active; 'I' for Inactive)
REMARK    1  A    between atoms: N_5  and  C_1 
REMARK       I    between atoms: C_6  and  N_5 
REMARK    2  A    between atoms: C_8  and  C_6 
REMARK    3  A    between atoms: O_16  and  C_12 
ROOT
ATOM      1  C   UNL d   1     -39.022  13.934  17.661  0.00  0.00     0.124 A 
ATOM      2  C   UNL d   1     -38.577  13.347  17.318  0.00  0.00     0.093 A 
ATOM      3  S   UNL d   1     -39.091  14.569  17.147  0.00  0.00    -0.067 SA
ATOM      4  C   UNL d   1     -38.347  13.590  16.570  0.00  0.00     0.018 A 
ATOM      5  C   UNL d   1     -38.678  14.377  16.460  0.00  0.00     0.032 A 
ATOM      6  C   UNL d   1     -38.368  12.577  17.672  0.00  0.00     0.103 C 
ATOM      7  N   UNL d   1     -38.175  11.846  18.019  0.00  0.00    -0.191 NA
ATOM      8  C   UNL d   1     -37.940  13.413  15.879  0.00  0.00     0.001 A 
ATOM      9  C   UNL d   1     -38.454  14.636  15.709  0.00  0.00     0.006 A 
ATOM     10  C   UNL d   1     -38.003  14.041  15.360  0.00  0.00     0.001 A 
ENDROOT
BRANCH   1  11
ATOM     11  N   UNL d   1     -39.370  13.897  18.447  0.00  0.00    -0.201 NA
ATOM     12  C   UNL d   1     -39.490  14.592  18.858  0.00  0.00     0.281 C 
ATOM     13  O   UNL d   1     -39.289  15.351  18.551  0.00  0.00    -0.265 OA
BRANCH  12  14
ATOM     14  C   UNL d   1     -39.828  14.556  19.622  0.00  0.00     0.080 A 
ATOM     15  C   UNL d   1     -39.347  14.725  20.319  0.00  0.00     0.099 A 
ATOM     16  C   UNL d   1     -39.679  14.691  21.068  0.00  0.00     0.024 A 
ATOM     17  C   UNL d   1     -40.495  14.486  21.128  0.00  0.00     0.002 A 
ATOM     18  C   UNL d   1     -40.952  14.329  20.532  0.00  0.00     0.000 A 
ATOM     19  C   UNL d   1     -40.633  14.358  19.732  0.00  0.00     0.007 A 
BRANCH  15  20
ATOM     20  O   UNL d   1     -38.537  14.928  20.256  0.00  0.00    -0.328 OA
ATOM     21  C   UNL d   1     -38.071  15.063  20.928  0.00  0.00     0.181 C 
ENDBRANCH  15  20
ENDBRANCH  12  14
ENDBRANCH   1  11
TORSDOF 3
ENDMDL
MODEL 8
REMARK VINA RESULT:      -5.8      9.629     10.999
REMARK  3 active torsions:
REMARK  status: ('A' for Active; 'I' for Inactive)
REMARK    1  A    between atoms: N_5  and  C_1 
REMARK       I    between atoms: C_6  and  N_5 
REMARK    2  A    between atoms: C_8  and  C_6 
REMARK    3  A    between atoms: O_16  and  C_12 
ROOT
ATOM      1  C   UNL d   1     -38.876  14.639  18.623  0.00  0.00     0.124 A 
ATOM      2  C   UNL d   1     -39.435  14.593  18.035  0.00  0.00     0.093 A 
ATOM      3  S   UNL d   1     -38.218  15.047  18.353  0.00  0.00    -0.067 SA
ATOM      4  C   UNL d   1     -39.150  14.973  17.367  0.00  0.00     0.018 A 
ATOM      5  C   UNL d   1     -38.366  15.265  17.571  0.00  0.00     0.032 A 
ATOM      6  C   UNL d   1     -40.216  14.208  18.087  0.00  0.00     0.103 C 
ATOM      7  N   UNL d   1     -40.959  13.838  18.148  0.00  0.00    -0.191 NA
ATOM      8  C   UNL d   1     -39.283  15.197  16.588  0.00  0.00     0.001 A 
ATOM      9  C   UNL d   1     -38.066  15.650  16.906  0.00  0.00     0.006 A 
ATOM     10  C   UNL d   1     -38.632  15.604  16.309  0.00  0.00     0.001 A 
ENDROOT
BRANCH   1  11
ATOM     11  N   UNL d   1     -38.960  14.309  19.414  0.00  0.00    -0.201 NA
ATOM     12  C   UNL d   1     -38.546  14.650  20.028  0.00  0.00     0.281 C 
ATOM     13  O   UNL d   1     -38.036  15.315  19.931  0.00  0.00    -0.265 OA
BRANCH  12  14
ATOM     14  C   UNL d   1     -38.627  14.330  20.796  0.00  0.00     0.080 A 
ATOM     15  C   UNL d   1     -39.059  14.764  21.405  0.00  0.00     0.099 A 
ATOM     16  C   UNL d   1     -39.139  14.450  22.159  0.00  0.00     0.024 A 
ATOM     17  C   UNL d   1     -38.787  13.698  22.311  0.00  0.00     0.002 A 
ATOM     18  C   UNL d   1     -38.397  13.285  21.796  0.00  0.00     0.000 A 
ATOM     19  C   UNL d   1     -38.297  13.588  20.995  0.00  0.00     0.007 A 
BRANCH  15  20
ATOM     20  O   UNL d   1     -39.407  15.510  21.251  0.00  0.00    -0.328 OA
ATOM     21  C   UNL d   1     -39.829  15.920  21.835  0.00  0.00     0.181 C 
ENDBRANCH  15  20
ENDBRANCH  12  14
ENDBRANCH   1  11
TORSDOF 3
ENDMDL
MODEL 9
REMARK VINA RESULT:      -5.8      8.789     10.095
REMARK  3 active torsions:
REMARK  status: ('A' for Active; 'I' for Inactive)
REMARK    1  A    between atoms: N_5  and  C_1 
REMARK       I    between atoms: C_6  and  N_5 
REMARK    2  A    between atoms: C_8  and  C_6 
REMARK    3  A    between atoms: O_16  and  C_12 
ROOT
ATOM      1  C   UNL d   1     -39.821  15.377  20.277  0.00  0.00     0.124 A 
ATOM      2  C   UNL d   1     -40.098  15.020  20.952  0.00  0.00     0.093 A 
ATOM      3  S   UNL d   1     -39.143  15.807  20.445  0.00  0.00    -0.067 SA
ATOM      4  C   UNL d   1     -39.603  15.213  21.577  0.00  0.00     0.018 A 
ATOM      5  C   UNL d   1     -38.988  15.720  21.251  0.00  0.00     0.032 A 
ATOM      6  C   UNL d   1     -40.804  14.513  21.022  0.00  0.00     0.103 C 
ATOM      7  N   UNL d   1     -41.480  14.030  21.076  0.00  0.00    -0.191 NA
ATOM      8  C   UNL d   1     -39.436  15.135  22.377  0.00  0.00     0.001 A 
ATOM      9  C   UNL d   1     -38.481  15.922  21.870  0.00  0.00     0.006 A 
ATOM     10  C   UNL d   1     -38.762  15.561  22.556  0.00  0.00     0.001 A 
ENDROOT
BRANCH   1  11
ATOM     11  N   UNL d   1     -40.182  15.314  19.498  0.00  0.00    -0.201 NA
ATOM     12  C   UNL d   1     -39.720  15.437  18.838  0.00  0.00     0.281 C 
ATOM     13  O   UNL d   1     -38.898  15.623  18.877  0.00  0.00    -0.265 OA
BRANCH  12  14
ATOM     14  C   UNL d   1     -40.071  15.376  18.082  0.00  0.00     0.080 A 
ATOM     15  C   UNL d   1     -39.840  14.740  17.545  0.00  0.00     0.099 A 
ATOM     16  C   UNL d   1     -40.185  14.680  16.803  0.00  0.00     0.024 A 
ATOM     17  C   UNL d   1     -40.764  15.256  16.590  0.00  0.00     0.002 A 
ATOM     18  C   UNL d   1     -40.994  15.832  17.041  0.00  0.00     0.000 A 
ATOM     19  C   UNL d   1     -40.650  15.922  17.826  0.00  0.00     0.007 A 
BRANCH  15  20
ATOM     20  O   UNL d   1     -39.265  14.171  17.759  0.00  0.00    -0.328 OA
ATOM     21  C   UNL d   1     -39.053  13.555  17.245  0.00  0.00     0.181 C 
ENDBRANCH  15  20
ENDBRANCH  12  14
ENDBRANCH   1  11
TORSDOF 3
ENDMDL
