MODEL 1
REMARK VINA RESULT:      -3.3      0.000      0.000
REMARK  1 active torsions:
REMARK  status: ('A' for Active; 'I' for Inactive)
REMARK    1  A    between atoms: C_10  and  C_5 
ROOT
ATOM      1  C   UNL d   1      30.494  17.250 -24.281  0.00  0.00     0.118 A 
ATOM      2  C   UNL d   1      30.557  16.586 -23.818  0.00  0.00     0.088 A 
ATOM      3  N   UNL d   1      31.186  17.688 -24.480  0.00  0.00    -0.219 NA
ATOM      4  C   UNL d   1      31.313  16.363 -23.557  0.00  0.00     0.303 A 
ATOM      5  C   UNL d   1      31.918  17.449 -24.211  0.00  0.00     0.162 A 
ATOM      6  O   UNL d   1      31.979  16.787 -23.751  0.00  0.00    -0.259 OA
ATOM      7  S   UNL d   1      29.683  17.358 -24.471  0.00  0.00    -0.068 SA
ATOM      8  C   UNL d   1      29.803  16.282 -23.719  0.00  0.00     0.013 A 
ATOM      9  C   UNL d   1      29.289  16.748 -24.112  0.00  0.00     0.031 A 
ATOM     10  O   UNL d   1      31.417  15.691 -23.083  0.00  0.00    -0.259 OA
ATOM     11  C   UNL d   1      29.544  15.622 -23.306  0.00  0.00     0.001 A 
ATOM     12  C   UNL d   1      28.477  16.601 -24.129  0.00  0.00     0.006 A 
ATOM     13  C   UNL d   1      28.716  15.464 -23.318  0.00  0.00     0.000 A 
ATOM     14  C   UNL d   1      28.204  15.921 -23.704  0.00  0.00     0.001 A 
ENDROOT
BRANCH   5  15
ATOM     15  C   UNL d   1      32.587  17.911 -24.430  0.00  0.00     0.058 C 
ATOM     16  C   UNL d   1      32.452  18.385 -23.767  0.00  0.00     0.008 C 
ATOM     17  C   UNL d   1      33.234  18.383 -24.616  0.00  0.00     0.008 C 
ATOM     18  C   UNL d   1      32.726  17.440 -25.096  0.00  0.00     0.008 C 
ENDBRANCH   5  15
TORSDOF 1
ENDMDL
MODEL 2
REMARK VINA RESULT:      -3.3      1.324      3.672
REMARK  1 active torsions:
REMARK  status: ('A' for Active; 'I' for Inactive)
REMARK    1  A    between atoms: C_10  and  C_5 
ROOT
ATOM      1  C   UNL d   1      30.704  16.472 -23.865  0.00  0.00     0.118 A 
ATOM      2  C   UNL d   1      30.709  17.149 -24.314  0.00  0.00     0.088 A 
ATOM      3  N   UNL d   1      29.979  16.060 -23.738  0.00  0.00    -0.219 NA
ATOM      4  C   UNL d   1      29.989  17.409 -24.633  0.00  0.00     0.303 A 
ATOM      5  C   UNL d   1      29.284  16.336 -24.064  0.00  0.00     0.162 A 
ATOM      6  O   UNL d   1      29.292  17.010 -24.510  0.00  0.00    -0.259 OA
ATOM      7  S   UNL d   1      31.490  16.326 -23.607  0.00  0.00    -0.068 SA
ATOM      8  C   UNL d   1      31.481  17.422 -24.338  0.00  0.00     0.013 A 
ATOM      9  C   UNL d   1      31.939  16.925 -23.914  0.00  0.00     0.031 A 
ATOM     10  O   UNL d   1      29.955  18.096 -25.097  0.00  0.00    -0.259 OA
ATOM     11  C   UNL d   1      31.802  18.080 -24.710  0.00  0.00     0.001 A 
ATOM     12  C   UNL d   1      32.751  17.037 -23.823  0.00  0.00     0.006 A 
ATOM     13  C   UNL d   1      32.631  18.202 -24.622  0.00  0.00     0.000 A 
ATOM     14  C   UNL d   1      33.088  17.714 -24.204  0.00  0.00     0.001 A 
ENDROOT
BRANCH   5  15
ATOM     15  C   UNL d   1      28.580  15.899 -23.916  0.00  0.00     0.058 C 
ATOM     16  C   UNL d   1      28.731  15.464 -24.602  0.00  0.00     0.008 C 
ATOM     17  C   UNL d   1      27.900  15.453 -23.801  0.00  0.00     0.008 C 
ATOM     18  C   UNL d   1      28.426  16.331 -23.228  0.00  0.00     0.008 C 
ENDBRANCH   5  15
TORSDOF 1
ENDMDL
MODEL 3
REMARK VINA RESULT:      -2.6      4.513      6.058
REMARK  1 active torsions:
REMARK  status: ('A' for Active; 'I' for Inactive)
REMARK    1  A    between atoms: C_10  and  C_5 
ROOT
ATOM      1  C   UNL d   1      32.762  21.110 -21.361  0.00  0.00     0.118 A 
ATOM      2  C   UNL d   1      32.933  21.302 -22.131  0.00  0.00     0.088 A 
ATOM      3  N   UNL d   1      32.643  21.722 -20.794  0.00  0.00    -0.219 NA
ATOM      4  C   UNL d   1      32.984  22.106 -22.330  0.00  0.00     0.303 A 
ATOM      5  C   UNL d   1      32.697  22.506 -21.015  0.00  0.00     0.162 A 
ATOM      6  O   UNL d   1      32.868  22.695 -21.782  0.00  0.00    -0.259 OA
ATOM      7  S   UNL d   1      32.742  20.272 -21.301  0.00  0.00    -0.068 SA
ATOM      8  C   UNL d   1      33.019  20.601 -22.547  0.00  0.00     0.013 A 
ATOM      9  C   UNL d   1      32.903  19.993 -22.043  0.00  0.00     0.031 A 
ATOM     10  O   UNL d   1      33.156  22.341 -23.107  0.00  0.00    -0.259 OA
ATOM     11  C   UNL d   1      33.192  20.468 -23.338  0.00  0.00     0.001 A 
ATOM     12  C   UNL d   1      32.949  19.204 -22.280  0.00  0.00     0.006 A 
ATOM     13  C   UNL d   1      33.241  19.665 -23.589  0.00  0.00     0.000 A 
ATOM     14  C   UNL d   1      33.128  19.060 -23.096  0.00  0.00     0.001 A 
ENDROOT
BRANCH   5  15
ATOM     15  C   UNL d   1      32.572  23.090 -20.421  0.00  0.00     0.058 C 
ATOM     16  C   UNL d   1      31.910  23.348 -20.844  0.00  0.00     0.008 C 
ATOM     17  C   UNL d   1      32.421  23.671 -19.860  0.00  0.00     0.008 C 
ATOM     18  C   UNL d   1      33.233  22.835 -19.995  0.00  0.00     0.008 C 
ENDBRANCH   5  15
TORSDOF 1
ENDMDL
MODEL 4
REMARK VINA RESULT:      -1.9      1.598      2.060
REMARK  1 active torsions:
REMARK  status: ('A' for Active; 'I' for Inactive)
REMARK    1  A    between atoms: C_10  and  C_5 
ROOT
ATOM      1  C   UNL d   1      31.706  18.015 -23.948  0.00  0.00     0.118 A 
ATOM      2  C   UNL d   1      31.980  17.295 -23.688  0.00  0.00     0.088 A 
ATOM      3  N   UNL d   1      32.040  18.725 -23.640  0.00  0.00    -0.219 NA
ATOM      4  C   UNL d   1      32.586  17.291 -23.122  0.00  0.00     0.303 A 
ATOM      5  C   UNL d   1      32.636  18.694 -23.084  0.00  0.00     0.162 A 
ATOM      6  O   UNL d   1      32.907  17.977 -22.827  0.00  0.00    -0.259 OA
ATOM      7  S   UNL d   1      31.100  17.873 -24.512  0.00  0.00    -0.068 SA
ATOM      8  C   UNL d   1      31.555  16.714 -24.081  0.00  0.00     0.013 A 
ATOM      9  C   UNL d   1      31.034  17.068 -24.570  0.00  0.00     0.031 A 
ATOM     10  O   UNL d   1      32.891  16.576 -22.833  0.00  0.00    -0.259 OA
ATOM     11  C   UNL d   1      31.602  15.896 -24.033  0.00  0.00     0.001 A 
ATOM     12  C   UNL d   1      30.516  16.644 -25.051  0.00  0.00     0.006 A 
ATOM     13  C   UNL d   1      31.076  15.454 -24.521  0.00  0.00     0.000 A 
ATOM     14  C   UNL d   1      30.559  15.799 -25.005  0.00  0.00     0.001 A 
ENDROOT
BRANCH   5  15
ATOM     15  C   UNL d   1      32.946  19.423 -22.799  0.00  0.00     0.058 C 
ATOM     16  C   UNL d   1      32.785  19.168 -22.030  0.00  0.00     0.008 C 
ATOM     17  C   UNL d   1      33.241  20.125 -22.489  0.00  0.00     0.008 C 
ATOM     18  C   UNL d   1      33.108  19.683 -23.568  0.00  0.00     0.008 C 
ENDBRANCH   5  15
TORSDOF 1
ENDMDL
MODEL 5
REMARK VINA RESULT:      -1.8      2.062      4.016
REMARK  1 active torsions:
REMARK  status: ('A' for Active; 'I' for Inactive)
REMARK    1  A    between atoms: C_10  and  C_5 
ROOT
ATOM      1  C   UNL d   1      32.758  18.116 -23.151  0.00  0.00     0.118 A 
ATOM      2  C   UNL d   1      32.663  18.682 -23.726  0.00  0.00     0.088 A 
ATOM      3  N   UNL d   1      32.617  17.305 -23.336  0.00  0.00    -0.219 NA
ATOM      4  C   UNL d   1      32.428  18.434 -24.482  0.00  0.00     0.303 A 
ATOM      5  C   UNL d   1      32.387  17.087 -24.087  0.00  0.00     0.162 A 
ATOM      6  O   UNL d   1      32.293  17.652 -24.657  0.00  0.00    -0.259 OA
ATOM      7  S   UNL d   1      32.995  18.502 -22.444  0.00  0.00    -0.068 SA
ATOM      8  C   UNL d   1      32.837  19.408 -23.387  0.00  0.00     0.013 A 
ATOM      9  C   UNL d   1      33.033  19.290 -22.623  0.00  0.00     0.031 A 
ATOM     10  O   UNL d   1      32.321  18.983 -25.094  0.00  0.00    -0.259 OA
ATOM     11  C   UNL d   1      32.832  20.162 -23.711  0.00  0.00     0.001 A 
ATOM     12  C   UNL d   1      33.241  19.907 -22.117  0.00  0.00     0.006 A 
ATOM     13  C   UNL d   1      33.042  20.799 -23.201  0.00  0.00     0.000 A 
ATOM     14  C   UNL d   1      33.237  20.688 -22.446  0.00  0.00     0.001 A 
ENDROOT
BRANCH   5  15
ATOM     15  C   UNL d   1      32.255  16.268 -24.234  0.00  0.00     0.058 C 
ATOM     16  C   UNL d   1      33.005  16.231 -24.580  0.00  0.00     0.008 C 
ATOM     17  C   UNL d   1      32.159  15.468 -24.393  0.00  0.00     0.008 C 
ATOM     18  C   UNL d   1      31.504  16.301 -23.889  0.00  0.00     0.008 C 
ENDBRANCH   5  15
TORSDOF 1
ENDMDL
MODEL 6
REMARK VINA RESULT:      -1.7      3.664      4.856
REMARK  1 active torsions:
REMARK  status: ('A' for Active; 'I' for Inactive)
REMARK    1  A    between atoms: C_10  and  C_5 
ROOT
ATOM      1  C   UNL d   1      33.140  19.591 -22.388  0.00  0.00     0.118 A 
ATOM      2  C   UNL d   1      33.181  19.917 -23.131  0.00  0.00     0.088 A 
ATOM      3  N   UNL d   1      33.117  20.093 -21.712  0.00  0.00    -0.219 NA
ATOM      4  C   UNL d   1      33.199  20.744 -23.193  0.00  0.00     0.303 A 
ATOM      5  C   UNL d   1      33.136  20.904 -21.799  0.00  0.00     0.162 A 
ATOM      6  O   UNL d   1      33.177  21.226 -22.539  0.00  0.00    -0.259 OA
ATOM      7  S   UNL d   1      33.129  18.755 -22.472  0.00  0.00    -0.068 SA
ATOM      8  C   UNL d   1      33.196  19.299 -23.670  0.00  0.00     0.013 A 
ATOM      9  C   UNL d   1      33.164  18.611 -23.268  0.00  0.00     0.031 A 
ATOM     10  O   UNL d   1      33.241  21.112 -23.935  0.00  0.00    -0.259 OA
ATOM     11  C   UNL d   1      33.235  19.308 -24.490  0.00  0.00     0.001 A 
ATOM     12  C   UNL d   1      33.169  17.876 -23.642  0.00  0.00     0.006 A 
ATOM     13  C   UNL d   1      33.240  18.562 -24.881  0.00  0.00     0.000 A 
ATOM     14  C   UNL d   1      33.209  17.879 -24.488  0.00  0.00     0.001 A 
ENDROOT
BRANCH   5  15
ATOM     15  C   UNL d   1      33.111  21.375 -21.101  0.00  0.00     0.058 C 
ATOM     16  C   UNL d   1      33.062  22.046 -21.580  0.00  0.00     0.008 C 
ATOM     17  C   UNL d   1      33.085  21.862 -20.440  0.00  0.00     0.008 C 
ATOM     18  C   UNL d   1      33.160  20.705 -20.618  0.00  0.00     0.008 C 
ENDBRANCH   5  15
TORSDOF 1
ENDMDL
