MODEL 1
REMARK VINA RESULT:      -3.0      0.000      0.000
REMARK  5 active torsions:
REMARK  status: ('A' for Active; 'I' for Inactive)
REMARK    1  A    between atoms: C_7  and  C_1 
REMARK    2  A    between atoms: O_13  and  C_7 
REMARK    3  A    between atoms: C_15  and  C_9 
REMARK    4  A    between atoms: C_11  and  C_15 
REMARK    5  A    between atoms: C_18  and  O_13 
ROOT
ATOM      1  C   UNL d   1     -41.447-122.425 -53.436  0.00  0.00     0.127 A 
ATOM      2  C   UNL d   1     -41.592-123.110 -53.040  0.00  0.00     0.305 A 
ATOM      3  O   UNL d   1     -41.591-123.132 -52.195  0.00  0.00    -0.273 OA
ATOM      4  C   UNL d   1     -41.289-121.706 -53.021  0.00  0.00     0.013 A 
ATOM      5  C   UNL d   1     -41.438-122.436 -51.766  0.00  0.00     0.103 A 
ATOM      6  C   UNL d   1     -41.284-121.710 -52.187  0.00  0.00     0.023 A 
ATOM      7  O   UNL d   1     -41.748-123.817 -53.481  0.00  0.00    -0.259 OA
ATOM      8  C   UNL d   1     -41.433-122.441 -50.943  0.00  0.00     0.023 A 
ATOM      9  C   UNL d   1     -41.131-121.015 -51.769  0.00  0.00     0.002 A 
ATOM     10  C   UNL d   1     -41.129-121.037 -50.924  0.00  0.00     0.000 A 
ATOM     11  C   UNL d   1     -41.275-121.722 -50.527  0.00  0.00     0.002 A 
ENDROOT
BRANCH   1  12
ATOM     12  C   UNL d   1     -41.464-122.476 -54.252  0.00  0.00     0.305 C 
ATOM     13  O   UNL d   1     -41.337-123.215 -54.630  0.00  0.00    -0.259 OA
BRANCH  12  14
ATOM     14  O   UNL d   1     -41.605-121.816 -54.746  0.00  0.00    -0.271 OA
BRANCH  14  15
ATOM     15  C   UNL d   1     -41.818-121.930 -55.553  0.00  0.00     0.126 C 
ATOM     16  C   UNL d   1     -42.549-121.655 -55.812  0.00  0.00     0.029 C 
ENDBRANCH  14  15
ENDBRANCH  12  14
ENDBRANCH   1  12
BRANCH   8  17
ATOM     17  C   UNL d   1     -41.581-123.139 -50.539  0.00  0.00     0.002 C 
BRANCH  17  18
ATOM     18  C   UNL d   1     -41.679-123.129 -49.707  0.00  0.00     0.000 C 
ATOM     19  C   UNL d   1     -42.075-123.744 -49.333  0.00  0.00     0.000 C 
ENDBRANCH  17  18
ENDBRANCH   8  17
TORSDOF 5
ENDMDL
MODEL 2
REMARK VINA RESULT:      -2.4      1.610      4.175
REMARK  5 active torsions:
REMARK  status: ('A' for Active; 'I' for Inactive)
REMARK    1  A    between atoms: C_7  and  C_1 
REMARK    2  A    between atoms: O_13  and  C_7 
REMARK    3  A    between atoms: C_15  and  C_9 
REMARK    4  A    between atoms: C_11  and  C_15 
REMARK    5  A    between atoms: C_18  and  O_13 
ROOT
ATOM      1  C   UNL d   1     -42.414-122.481 -50.046  0.00  0.00     0.127 A 
ATOM      2  C   UNL d   1     -42.488-123.103 -50.552  0.00  0.00     0.305 A 
ATOM      3  O   UNL d   1     -42.205-123.053 -51.347  0.00  0.00    -0.273 OA
ATOM      4  C   UNL d   1     -42.052-121.759 -50.293  0.00  0.00     0.013 A 
ATOM      5  C   UNL d   1     -41.845-122.351 -51.612  0.00  0.00     0.103 A 
ATOM      6  C   UNL d   1     -41.767-121.692 -51.075  0.00  0.00     0.023 A 
ATOM      7  O   UNL d   1     -42.855-123.817 -50.279  0.00  0.00    -0.259 OA
ATOM      8  C   UNL d   1     -41.565-122.286 -52.382  0.00  0.00     0.023 A 
ATOM      9  C   UNL d   1     -41.411-120.992 -51.329  0.00  0.00     0.002 A 
ATOM     10  C   UNL d   1     -41.128-120.942 -52.124  0.00  0.00     0.000 A 
ATOM     11  C   UNL d   1     -41.202-121.564 -52.630  0.00  0.00     0.002 A 
ENDROOT
BRANCH   1  12
ATOM     12  C   UNL d   1     -42.709-122.599 -49.293  0.00  0.00     0.305 C 
ATOM     13  O   UNL d   1     -43.534-122.702 -49.175  0.00  0.00    -0.259 OA
BRANCH  12  14
ATOM     14  O   UNL d   1     -42.223-122.624 -48.614  0.00  0.00    -0.271 OA
BRANCH  14  15
ATOM     15  C   UNL d   1     -42.526-122.923 -47.886  0.00  0.00     0.126 C 
ATOM     16  C   UNL d   1     -42.002-123.072 -47.270  0.00  0.00     0.029 C 
ENDBRANCH  14  15
ENDBRANCH  12  14
ENDBRANCH   1  12
BRANCH   8  17
ATOM     17  C   UNL d   1     -41.640-122.920 -52.898  0.00  0.00     0.002 C 
BRANCH  17  18
ATOM     18  C   UNL d   1     -41.445-122.827 -53.707  0.00  0.00     0.000 C 
ATOM     19  C   UNL d   1     -41.469-123.474 -54.212  0.00  0.00     0.000 C 
ENDBRANCH  17  18
ENDBRANCH   8  17
TORSDOF 5
ENDMDL
MODEL 3
REMARK VINA RESULT:      -1.1      1.216      1.620
REMARK  5 active torsions:
REMARK  status: ('A' for Active; 'I' for Inactive)
REMARK    1  A    between atoms: C_7  and  C_1 
REMARK    2  A    between atoms: O_13  and  C_7 
REMARK    3  A    between atoms: C_15  and  C_9 
REMARK    4  A    between atoms: C_11  and  C_15 
REMARK    5  A    between atoms: C_18  and  O_13 
ROOT
ATOM      1  C   UNL d   1     -42.049-122.071 -53.535  0.00  0.00     0.127 A 
ATOM      2  C   UNL d   1     -42.483-121.650 -53.004  0.00  0.00     0.305 A 
ATOM      3  O   UNL d   1     -42.489-121.857 -52.185  0.00  0.00    -0.273 OA
ATOM      4  C   UNL d   1     -41.584-122.732 -53.290  0.00  0.00     0.013 A 
ATOM      5  C   UNL d   1     -42.038-122.505 -51.921  0.00  0.00     0.103 A 
ATOM      6  C   UNL d   1     -41.577-122.951 -52.485  0.00  0.00     0.023 A 
ATOM      7  O   UNL d   1     -42.942-120.990 -53.275  0.00  0.00    -0.259 OA
ATOM      8  C   UNL d   1     -42.032-122.720 -51.128  0.00  0.00     0.023 A 
ATOM      9  C   UNL d   1     -41.128-123.596 -52.233  0.00  0.00     0.002 A 
ATOM     10  C   UNL d   1     -41.132-123.803 -51.414  0.00  0.00     0.000 A 
ATOM     11  C   UNL d   1     -41.567-123.383 -50.882  0.00  0.00     0.002 A 
ENDROOT
BRANCH   1  12
ATOM     12  C   UNL d   1     -42.091-121.815 -54.310  0.00  0.00     0.305 C 
ATOM     13  O   UNL d   1     -41.535-121.256 -54.599  0.00  0.00    -0.259 OA
BRANCH  12  14
ATOM     14  O   UNL d   1     -42.672-122.085 -54.847  0.00  0.00    -0.271 OA
BRANCH  14  15
ATOM     15  C   UNL d   1     -42.545-122.018 -55.677  0.00  0.00     0.126 C 
ATOM     16  C   UNL d   1     -43.115-122.318 -56.190  0.00  0.00     0.029 C 
ENDBRANCH  14  15
ENDBRANCH  12  14
ENDBRANCH   1  12
BRANCH   8  17
ATOM     17  C   UNL d   1     -42.475-122.291 -50.586  0.00  0.00     0.002 C 
BRANCH  17  18
ATOM     18  C   UNL d   1     -42.391-122.438 -49.766  0.00  0.00     0.000 C 
ATOM     19  C   UNL d   1     -42.992-122.230 -49.247  0.00  0.00     0.000 C 
ENDBRANCH  17  18
ENDBRANCH   8  17
TORSDOF 5
ENDMDL
MODEL 4
REMARK VINA RESULT:      -0.9      1.240      1.984
REMARK  5 active torsions:
REMARK  status: ('A' for Active; 'I' for Inactive)
REMARK    1  A    between atoms: C_7  and  C_1 
REMARK    2  A    between atoms: O_13  and  C_7 
REMARK    3  A    between atoms: C_15  and  C_9 
REMARK    4  A    between atoms: C_11  and  C_15 
REMARK    5  A    between atoms: C_18  and  O_13 
ROOT
ATOM      1  C   UNL d   1     -41.896-122.189 -52.195  0.00  0.00     0.127 A 
ATOM      2  C   UNL d   1     -42.465-121.808 -51.772  0.00  0.00     0.305 A 
ATOM      3  O   UNL d   1     -42.617-122.010 -50.966  0.00  0.00    -0.273 OA
ATOM      4  C   UNL d   1     -41.432-122.803 -51.846  0.00  0.00     0.013 A 
ATOM      5  C   UNL d   1     -42.172-122.612 -50.602  0.00  0.00     0.103 A 
ATOM      6  C   UNL d   1     -41.568-123.016 -51.051  0.00  0.00     0.023 A 
ATOM      7  O   UNL d   1     -42.916-121.194 -52.146  0.00  0.00    -0.259 OA
ATOM      8  C   UNL d   1     -42.307-122.822 -49.819  0.00  0.00     0.023 A 
ATOM      9  C   UNL d   1     -41.123-123.614 -50.699  0.00  0.00     0.002 A 
ATOM     10  C   UNL d   1     -41.274-123.817 -49.892  0.00  0.00     0.000 A 
ATOM     11  C   UNL d   1     -41.843-123.436 -49.469  0.00  0.00     0.002 A 
ENDROOT
BRANCH   1  12
ATOM     12  C   UNL d   1     -41.803-121.942 -52.968  0.00  0.00     0.305 C 
ATOM     13  O   UNL d   1     -41.395-121.228 -53.137  0.00  0.00    -0.259 OA
BRANCH  12  14
ATOM     14  O   UNL d   1     -42.100-122.371 -53.621  0.00  0.00    -0.271 OA
BRANCH  14  15
ATOM     15  C   UNL d   1     -41.936-122.115 -54.407  0.00  0.00     0.126 C 
ATOM     16  C   UNL d   1     -42.180-122.586 -55.036  0.00  0.00     0.029 C 
ENDBRANCH  14  15
ENDBRANCH  12  14
ENDBRANCH   1  12
BRANCH   8  17
ATOM     17  C   UNL d   1     -42.887-122.433 -49.387  0.00  0.00     0.002 C 
BRANCH  17  18
ATOM     18  C   UNL d   1     -43.248-122.813 -48.734  0.00  0.00     0.000 C 
ATOM     19  C   UNL d   1     -43.049-122.591 -47.969  0.00  0.00     0.000 C 
ENDBRANCH  17  18
ENDBRANCH   8  17
TORSDOF 5
ENDMDL
