MODEL 1
REMARK VINA RESULT:      -1.7      0.000      0.000
REMARK  6 active torsions:
REMARK  status: ('A' for Active; 'I' for Inactive)
REMARK    1  A    between atoms: N_2  and  S_1 
REMARK    2  A    between atoms: C_11  and  S_1 
REMARK    3  A    between atoms: C_3  and  N_2 
REMARK    4  A    between atoms: C_4  and  C_3 
REMARK    5  A    between atoms: N_5  and  C_4 
REMARK    6  A    between atoms: C_6  and  C_4 
ROOT
ATOM      1  C   UNL d   1      32.130  17.633 -23.903  0.00  0.00     0.089 C 
ENDROOT
BRANCH   1   2
ATOM      2  C   UNL d   1      31.453  17.687 -24.368  0.00  0.00     0.110 C 
ATOM      3  C   UNL d   1      31.485  18.073 -25.097  0.00  0.00     0.023 C 
BRANCH   2   4
ATOM      4  N   UNL d   1      30.750  17.360 -24.107  0.00  0.00    -0.157 NA
BRANCH   4   5
ATOM      5  S   UNL d   1      30.046  17.498 -24.510  0.00  0.00     0.285 S 
ATOM      6  O   UNL d   1      30.434  18.146 -24.852  0.00  0.00    -0.198 OA
ATOM      7  O   UNL d   1      29.649  17.980 -25.052  0.00  0.00    -0.198 OA
BRANCH   5   8
ATOM      8  C   UNL d   1      29.604  16.874 -24.209  0.00  0.00     0.105 A 
ATOM      9  C   UNL d   1      29.184  16.974 -23.507  0.00  0.00     0.013 A 
ATOM     10  C   UNL d   1      28.743  16.342 -23.211  0.00  0.00     0.001 A 
ATOM     11  C   UNL d   1      28.718  15.622 -23.606  0.00  0.00     0.000 A 
ATOM     12  C   UNL d   1      29.140  15.526 -24.308  0.00  0.00     0.001 A 
ATOM     13  C   UNL d   1      29.581  16.158 -24.603  0.00  0.00     0.013 A 
ENDBRANCH   5   8
ENDBRANCH   4   5
ENDBRANCH   2   4
ENDBRANCH   1   2
BRANCH   1  14
ATOM     14  N   UNL d   1      32.405  18.290 -23.496  0.00  0.00    -0.300 N 
ATOM     15  C   UNL d   1      32.259  18.370 -22.688  0.00  0.00     0.100 A 
ATOM     16  C   UNL d   1      32.538  19.034 -22.278  0.00  0.00     0.100 A 
ATOM     17  N   UNL d   1      32.961  19.618 -22.674  0.00  0.00    -0.299 N 
ATOM     18  C   UNL d   1      33.108  19.539 -23.487  0.00  0.00     0.100 A 
ATOM     19  C   UNL d   1      33.239  20.282 -22.262  0.00  0.00     0.100 C 
ATOM     20  C   UNL d   1      32.833  18.882 -23.893  0.00  0.00     0.100 A 
ENDBRANCH   1  14
BRANCH   1  21
ATOM     21  C   UNL d   1      32.531  16.915 -23.846  0.00  0.00     0.047 A 
ATOM     22  S   UNL d   1      32.908  16.515 -24.467  0.00  0.00    -0.085 SA
ATOM     23  C   UNL d   1      33.235  15.822 -24.155  0.00  0.00     0.035 A 
ATOM     24  C   UNL d   1      33.070  15.786 -23.355  0.00  0.00     0.007 A 
ATOM     25  C   UNL d   1      32.631  16.466 -23.159  0.00  0.00     0.009 A 
ENDBRANCH   1  21
TORSDOF 6
ENDMDL
