MODEL 1
REMARK VINA RESULT:      -2.3      0.000      0.000
REMARK  6 active torsions:
REMARK  status: ('A' for Active; 'I' for Inactive)
REMARK    1  A    between atoms: S_2  and  N_1 
REMARK    2  A    between atoms: C_11  and  S_2 
REMARK    3  A    between atoms: C_6  and  C_4 
REMARK    4  A    between atoms: C_12  and  C_5 
REMARK    5  A    between atoms: O_14  and  C_8 
REMARK    6  A    between atoms: O_16  and  C_13 
ROOT
ATOM      1  N   UNL d   1      57.755  -1.236  30.404  0.00  0.00    -0.152 N 
ATOM      2  N   UNL d   1      57.234  -1.378  31.047  0.00  0.00    -0.155 NA
ATOM      3  C   UNL d   1      57.944  -0.432  30.379  0.00  0.00     0.098 A 
ATOM      4  C   UNL d   1      57.101  -0.656  31.421  0.00  0.00     0.104 A 
ATOM      5  C   UNL d   1      57.543  -0.080  31.003  0.00  0.00     0.041 A 
ENDROOT
BRANCH   3   6
ATOM      6  C   UNL d   1      58.439  -0.060  29.835  0.00  0.00     0.043 A 
ATOM      7  C   UNL d   1      59.215   0.129  30.044  0.00  0.00     0.118 A 
ATOM      8  C   UNL d   1      59.710   0.502  29.499  0.00  0.00     0.116 A 
ATOM      9  C   UNL d   1      59.413   0.674  28.763  0.00  0.00     0.026 A 
ATOM     10  C   UNL d   1      58.648   0.497  28.531  0.00  0.00     0.002 A 
ATOM     11  C   UNL d   1      58.153   0.124  29.075  0.00  0.00     0.004 A 
BRANCH   7  12
ATOM     12  O   UNL d   1      59.495  -0.055  30.797  0.00  0.00    -0.326 OA
ATOM     13  C   UNL d   1      60.285   0.087  30.989  0.00  0.00     0.181 C 
ENDBRANCH   7  12
BRANCH   8  14
ATOM     14  O   UNL d   1      60.468   0.678  29.726  0.00  0.00    -0.326 OA
ATOM     15  C   UNL d   1      61.104   0.639  29.224  0.00  0.00     0.181 C 
ENDBRANCH   8  14
ENDBRANCH   3   6
BRANCH   1  16
ATOM     16  S   UNL d   1      58.029  -1.821  29.882  0.00  0.00     0.286 S 
ATOM     17  O   UNL d   1      57.935  -1.938  29.071  0.00  0.00    -0.198 OA
ATOM     18  O   UNL d   1      58.489  -2.398  30.260  0.00  0.00    -0.198 OA
BRANCH  16  19
ATOM     19  C   UNL d   1      58.380  -2.472  29.516  0.00  0.00     0.105 A 
ATOM     20  C   UNL d   1      58.076  -2.737  28.825  0.00  0.00     0.013 A 
ATOM     21  C   UNL d   1      58.427  -3.391  28.455  0.00  0.00     0.001 A 
ATOM     22  C   UNL d   1      59.081  -3.757  28.801  0.00  0.00     0.000 A 
ATOM     23  C   UNL d   1      59.383  -3.469  29.517  0.00  0.00     0.001 A 
ATOM     24  C   UNL d   1      59.033  -2.838  29.862  0.00  0.00     0.013 A 
ENDBRANCH  16  19
ENDBRANCH   1  16
BRANCH   4  25
ATOM     25  C   UNL d   1      56.632  -0.545  32.066  0.00  0.00     0.019 A 
ATOM     26  C   UNL d   1      56.452   0.225  32.313  0.00  0.00     0.002 A 
ATOM     27  C   UNL d   1      55.971   0.363  32.974  0.00  0.00     0.000 A 
ATOM     28  C   UNL d   1      55.672  -0.273  33.385  0.00  0.00     0.000 A 
ATOM     29  C   UNL d   1      55.841  -1.054  33.155  0.00  0.00     0.000 A 
ATOM     30  C   UNL d   1      56.334  -1.176  32.477  0.00  0.00     0.002 A 
ENDBRANCH   4  25
TORSDOF 6
ENDMDL
