MODEL 1
REMARK VINA RESULT:      68.8      0.000      0.000
REMARK  4 active torsions:
REMARK  status: ('A' for Active; 'I' for Inactive)
REMARK    1  A    between atoms: C_10  and  N_3 
REMARK    2  A    between atoms: C_11  and  C_6 
REMARK    3  A    between atoms: C_16  and  C_10 
REMARK    4  A    between atoms: N_17  and  C_16 
ROOT
ATOM      1  C   UNL d   1      45.178 -16.418  38.106  0.00  0.00     0.083 A 
ATOM      2  C   UNL d   1      44.606 -16.990  38.186  0.00  0.00     0.161 A 
ATOM      3  N   UNL d   1      44.250 -16.194  37.207  0.00  0.00    -0.270 N 
ATOM      4  C   UNL d   1      44.030 -16.851  37.629  0.00  0.00     0.288 A 
ATOM      5  C   UNL d   1      45.836 -16.411  38.596  0.00  0.00     0.201 A 
ATOM      6  C   UNL d   1      44.955 -15.926  37.499  0.00  0.00     0.072 A 
ATOM      7  O   UNL d   1      44.689 -17.570  38.768  0.00  0.00    -0.302 OA
ATOM      8  C   UNL d   1      45.909 -16.993  39.171  0.00  0.00     0.062 A 
ATOM      9  C   UNL d   1      45.334 -17.568  39.252  0.00  0.00     0.103 A 
ATOM     10  O   UNL d   1      43.343 -17.305  37.517  0.00  0.00    -0.264 OA
ATOM     11  O   UNL d   1      46.418 -15.829  38.514  0.00  0.00    -0.286 OA
ATOM     12  C   UNL d   1      46.569 -16.993  39.668  0.00  0.00     0.005 A 
ATOM     13  C   UNL d   1      45.415 -18.147  39.830  0.00  0.00     0.025 A 
ATOM     14  C   UNL d   1      46.635 -17.569  40.232  0.00  0.00     0.000 A 
ATOM     15  C   UNL d   1      46.059 -18.145  40.313  0.00  0.00     0.002 A 
ENDROOT
BRANCH   6  16
ATOM     16  C   UNL d   1      45.382 -15.262  37.227  0.00  0.00     0.017 A 
ATOM     17  C   UNL d   1      45.920 -15.347  36.608  0.00  0.00     0.004 A 
ATOM     18  C   UNL d   1      46.342 -14.688  36.341  0.00  0.00     0.030 A 
ATOM     19  C   UNL d   1      46.222 -13.936  36.696  0.00  0.00     0.140 A 
ATOM     20  C   UNL d   1      45.680 -13.862  37.315  0.00  0.00     0.030 A 
ATOM     21  F   UNL d   1      46.646 -13.273  36.427  0.00  0.00    -0.204 F 
ATOM     22  C   UNL d   1      45.256 -14.525  37.585  0.00  0.00     0.004 A 
ENDBRANCH   6  16
BRANCH   3  23
ATOM     23  C   UNL d   1      43.819 -15.852  36.577  0.00  0.00     0.102 C 
BRANCH  23  24
ATOM     24  C   UNL d   1      43.035 -16.101  36.432  0.00  0.00     0.100 C 
BRANCH  24  25
ATOM     25  N   UNL d   1      42.418 -15.538  36.433  0.00  0.00    -0.299 N 
ATOM     26  C   UNL d   1      42.598 -14.730  36.508  0.00  0.00     0.100 C 
ATOM     27  C   UNL d   1      41.632 -15.789  36.360  0.00  0.00     0.100 C 
ENDBRANCH  24  25
ENDBRANCH  23  24
ENDBRANCH   3  23
TORSDOF 4
ENDMDL
MODEL 2
REMARK VINA RESULT:      69.0      1.038      3.602
REMARK  4 active torsions:
REMARK  status: ('A' for Active; 'I' for Inactive)
REMARK    1  A    between atoms: C_10  and  N_3 
REMARK    2  A    between atoms: C_11  and  C_6 
REMARK    3  A    between atoms: C_16  and  C_10 
REMARK    4  A    between atoms: N_17  and  C_16 
ROOT
ATOM      1  C   UNL d   1      43.624 -15.797  37.351  0.00  0.00     0.083 A 
ATOM      2  C   UNL d   1      43.285 -16.441  37.715  0.00  0.00     0.161 A 
ATOM      3  N   UNL d   1      44.569 -16.452  37.983  0.00  0.00    -0.270 N 
ATOM      4  C   UNL d   1      43.871 -16.847  38.107  0.00  0.00     0.288 A 
ATOM      5  C   UNL d   1      43.169 -15.277  36.909  0.00  0.00     0.201 A 
ATOM      6  C   UNL d   1      44.419 -15.806  37.518  0.00  0.00     0.072 A 
ATOM      7  O   UNL d   1      42.474 -16.572  37.638  0.00  0.00    -0.302 OA
ATOM      8  C   UNL d   1      42.362 -15.417  36.838  0.00  0.00     0.062 A 
ATOM      9  C   UNL d   1      42.022 -16.064  37.205  0.00  0.00     0.103 A 
ATOM     10  O   UNL d   1      43.767 -17.540  38.552  0.00  0.00    -0.264 OA
ATOM     11  O   UNL d   1      43.514 -14.623  36.538  0.00  0.00    -0.286 OA
ATOM     12  C   UNL d   1      41.897 -14.898  36.395  0.00  0.00     0.005 A 
ATOM     13  C   UNL d   1      41.214 -16.196  37.129  0.00  0.00     0.025 A 
ATOM     14  C   UNL d   1      41.103 -15.041  36.330  0.00  0.00     0.000 A 
ATOM     15  C   UNL d   1      40.762 -15.689  36.696  0.00  0.00     0.002 A 
ENDROOT
BRANCH   6  16
ATOM     16  C   UNL d   1      44.979 -15.247  37.256  0.00  0.00     0.017 A 
ATOM     17  C   UNL d   1      45.548 -15.466  36.701  0.00  0.00     0.004 A 
ATOM     18  C   UNL d   1      46.103 -14.910  36.442  0.00  0.00     0.030 A 
ATOM     19  C   UNL d   1      46.087 -14.125  36.742  0.00  0.00     0.140 A 
ATOM     20  C   UNL d   1      45.512 -13.916  37.298  0.00  0.00     0.030 A 
ATOM     21  F   UNL d   1      46.644 -13.566  36.482  0.00  0.00    -0.204 F 
ATOM     22  C   UNL d   1      44.954 -14.475  37.559  0.00  0.00     0.004 A 
ENDBRANCH   6  16
BRANCH   3  23
ATOM     23  C   UNL d   1      45.316 -16.674  38.285  0.00  0.00     0.102 C 
BRANCH  23  24
ATOM     24  C   UNL d   1      45.387 -17.377  38.732  0.00  0.00     0.100 C 
BRANCH  24  25
ATOM     25  N   UNL d   1      45.879 -17.387  39.406  0.00  0.00    -0.299 N 
ATOM     26  C   UNL d   1      46.647 -17.069  39.360  0.00  0.00     0.100 C 
ATOM     27  C   UNL d   1      45.601 -17.714  40.114  0.00  0.00     0.100 C 
ENDBRANCH  24  25
ENDBRANCH  23  24
ENDBRANCH   3  23
TORSDOF 4
ENDMDL
MODEL 3
REMARK VINA RESULT:      69.4      4.457      6.461
REMARK  4 active torsions:
REMARK  status: ('A' for Active; 'I' for Inactive)
REMARK    1  A    between atoms: C_10  and  N_3 
REMARK    2  A    between atoms: C_11  and  C_6 
REMARK    3  A    between atoms: C_16  and  C_10 
REMARK    4  A    between atoms: N_17  and  C_16 
ROOT
ATOM      1  C   UNL d   1      46.283 -18.119  41.877  0.00  0.00     0.083 A 
ATOM      2  C   UNL d   1      46.443 -17.403  41.525  0.00  0.00     0.161 A 
ATOM      3  N   UNL d   1      46.295 -17.199  42.812  0.00  0.00    -0.270 N 
ATOM      4  C   UNL d   1      46.450 -16.833  42.105  0.00  0.00     0.288 A 
ATOM      5  C   UNL d   1      46.240 -18.805  41.430  0.00  0.00     0.201 A 
ATOM      6  C   UNL d   1      46.192 -17.990  42.673  0.00  0.00     0.072 A 
ATOM      7  O   UNL d   1      46.562 -17.368  40.709  0.00  0.00    -0.302 OA
ATOM      8  C   UNL d   1      46.360 -18.759  40.618  0.00  0.00     0.062 A 
ATOM      9  C   UNL d   1      46.520 -18.039  40.265  0.00  0.00     0.103 A 
ATOM     10  O   UNL d   1      46.591 -16.023  41.988  0.00  0.00    -0.264 OA
ATOM     11  O   UNL d   1      46.077 -19.533  41.787  0.00  0.00    -0.286 OA
ATOM     12  C   UNL d   1      46.318 -19.445  40.161  0.00  0.00     0.005 A 
ATOM     13  C   UNL d   1      46.639 -18.002  39.453  0.00  0.00     0.025 A 
ATOM     14  C   UNL d   1      46.437 -19.393  39.362  0.00  0.00     0.000 A 
ATOM     15  C   UNL d   1      46.597 -18.673  39.009  0.00  0.00     0.002 A 
ENDROOT
BRANCH   6  16
ATOM     16  C   UNL d   1      46.022 -18.573  43.245  0.00  0.00     0.017 A 
ATOM     17  C   UNL d   1      45.257 -18.643  43.545  0.00  0.00     0.004 A 
ATOM     18  C   UNL d   1      45.091 -19.222  44.112  0.00  0.00     0.030 A 
ATOM     19  C   UNL d   1      45.698 -19.737  44.382  0.00  0.00     0.140 A 
ATOM     20  C   UNL d   1      46.461 -19.658  44.075  0.00  0.00     0.030 A 
ATOM     21  F   UNL d   1      45.531 -20.318  44.951  0.00  0.00    -0.204 F 
ATOM     22  C   UNL d   1      46.629 -19.076  43.505  0.00  0.00     0.004 A 
ENDBRANCH   6  16
BRANCH   3  23
ATOM     23  C   UNL d   1      46.249 -16.823  43.558  0.00  0.00     0.102 C 
BRANCH  23  24
ATOM     24  C   UNL d   1      45.836 -16.101  43.629  0.00  0.00     0.100 C 
BRANCH  24  25
ATOM     25  N   UNL d   1      45.625 -15.821  44.387  0.00  0.00    -0.299 N 
ATOM     26  C   UNL d   1      44.871 -15.993  44.694  0.00  0.00     0.100 C 
ATOM     27  C   UNL d   1      46.167 -15.375  44.827  0.00  0.00     0.100 C 
ENDBRANCH  24  25
ENDBRANCH  23  24
ENDBRANCH   3  23
TORSDOF 4
ENDMDL
