MODEL 1
REMARK VINA RESULT:       6.3      0.000      0.000
REMARK  2 active torsions:
REMARK  status: ('A' for Active; 'I' for Inactive)
REMARK    1  A    between atoms: C_6  and  C_2 
REMARK    2  A    between atoms: O_13  and  C_10 
ROOT
ATOM      1  C   UNL d   1      44.399 -15.438  36.697  0.00  0.00     0.026 A 
ATOM      2  C   UNL d   1      44.260 -16.204  36.412  0.00  0.00     0.004 A 
ATOM      3  C   UNL d   1      43.761 -14.969  36.899  0.00  0.00     0.004 A 
ATOM      4  C   UNL d   1      42.863 -16.006  36.539  0.00  0.00     0.094 A 
ATOM      5  C   UNL d   1      43.500 -16.494  36.331  0.00  0.00     0.024 A 
ATOM      6  C   UNL d   1      42.980 -15.257  36.819  0.00  0.00     0.024 A 
ENDROOT
BRANCH   1   7
ATOM      7  C   UNL d   1      45.169 -15.152  36.777  0.00  0.00     0.135 A 
ATOM      8  S   UNL d   1      45.387 -14.427  37.096  0.00  0.00    -0.024 SA
ATOM      9  C   UNL d   1      46.199 -14.369  37.068  0.00  0.00     0.236 A 
ATOM     10  N   UNL d   1      46.502 -15.059  36.729  0.00  0.00    -0.119 NA
ATOM     11  N   UNL d   1      46.647 -13.728  37.333  0.00  0.00    -0.118 N 
ATOM     12  N   UNL d   1      45.859 -15.548  36.548  0.00  0.00    -0.139 NA
ENDBRANCH   1   7
BRANCH   4  13
ATOM     13  O   UNL d   1      42.100 -16.299  36.457  0.00  0.00    -0.328 OA
ATOM     14  C   UNL d   1      41.467 -15.785  36.343  0.00  0.00     0.181 C 
ENDBRANCH   4  13
TORSDOF 2
ENDMDL
MODEL 2
REMARK VINA RESULT:       8.4      2.361      3.442
REMARK  2 active torsions:
REMARK  status: ('A' for Active; 'I' for Inactive)
REMARK    1  A    between atoms: C_6  and  C_2 
REMARK    2  A    between atoms: O_13  and  C_10 
ROOT
ATOM      1  C   UNL d   1      44.053 -15.501  36.588  0.00  0.00     0.026 A 
ATOM      2  C   UNL d   1      44.658 -16.024  36.367  0.00  0.00     0.004 A 
ATOM      3  C   UNL d   1      44.255 -14.773  36.898  0.00  0.00     0.004 A 
ATOM      4  C   UNL d   1      45.633 -15.079  36.770  0.00  0.00     0.094 A 
ATOM      5  C   UNL d   1      45.445 -15.822  36.454  0.00  0.00     0.024 A 
ATOM      6  C   UNL d   1      45.057 -14.557  36.991  0.00  0.00     0.024 A 
ENDROOT
BRANCH   1   7
ATOM      7  C   UNL d   1      43.261 -15.712  36.497  0.00  0.00     0.135 A 
ATOM      8  S   UNL d   1      42.620 -15.198  36.486  0.00  0.00    -0.024 SA
ATOM      9  C   UNL d   1      41.941 -15.637  36.384  0.00  0.00     0.236 A 
ATOM     10  N   UNL d   1      42.149 -16.436  36.330  0.00  0.00    -0.119 NA
ATOM     11  N   UNL d   1      41.174 -15.337  36.342  0.00  0.00    -0.118 N 
ATOM     12  N   UNL d   1      42.972 -16.483  36.401  0.00  0.00    -0.139 NA
ENDBRANCH   1   7
BRANCH   4  13
ATOM     13  O   UNL d   1      46.425 -14.877  36.858  0.00  0.00    -0.328 OA
ATOM     14  C   UNL d   1      46.636 -14.150  37.180  0.00  0.00     0.181 C 
ENDBRANCH   4  13
TORSDOF 2
ENDMDL
MODEL 3
REMARK VINA RESULT:       9.2      7.566      7.998
REMARK  2 active torsions:
REMARK  status: ('A' for Active; 'I' for Inactive)
REMARK    1  A    between atoms: C_6  and  C_2 
REMARK    2  A    between atoms: O_13  and  C_10 
ROOT
ATOM      1  C   UNL d   1      45.602 -14.470  44.327  0.00  0.00     0.026 A 
ATOM      2  C   UNL d   1      46.297 -14.877  44.127  0.00  0.00     0.004 A 
ATOM      3  C   UNL d   1      45.017 -14.864  44.738  0.00  0.00     0.004 A 
ATOM      4  C   UNL d   1      45.798 -16.048  44.748  0.00  0.00     0.094 A 
ATOM      5  C   UNL d   1      46.401 -15.661  44.332  0.00  0.00     0.024 A 
ATOM      6  C   UNL d   1      45.115 -15.667  44.952  0.00  0.00     0.024 A 
ENDROOT
BRANCH   1   7
ATOM      7  C   UNL d   1      45.504 -13.678  44.116  0.00  0.00     0.135 A 
ATOM      8  S   UNL d   1      45.062 -13.396  43.483  0.00  0.00    -0.024 SA
ATOM      9  C   UNL d   1      45.114 -12.583  43.476  0.00  0.00     0.236 A 
ATOM     10  N   UNL d   1      45.591 -12.344  44.108  0.00  0.00    -0.119 NA
ATOM     11  N   UNL d   1      44.753 -12.080  42.931  0.00  0.00    -0.118 N 
ATOM     12  N   UNL d   1      45.834 -13.027  44.507  0.00  0.00    -0.139 NA
ENDBRANCH   1   7
BRANCH   4  13
ATOM     13  O   UNL d   1      45.905 -16.836  44.955  0.00  0.00    -0.328 OA
ATOM     14  C   UNL d   1      45.714 -17.435  44.423  0.00  0.00     0.181 C 
ENDBRANCH   4  13
TORSDOF 2
ENDMDL
