MODEL 1
REMARK VINA RESULT:      83.2      0.000      0.000
REMARK  4 active torsions:
REMARK  status: ('A' for Active; 'I' for Inactive)
REMARK    1  A    between atoms: C_13  and  C_2 
REMARK       I    between atoms: N_7  and  C_8 
REMARK    2  A    between atoms: C_8  and  C_15 
REMARK    3  A    between atoms: S_14  and  C_10 
REMARK    4  A    between atoms: C_15  and  S_14 
ROOT
ATOM      1  N   UNL d   1      61.394  48.199  50.211  0.00  0.00    -0.191 N 
ATOM      2  C   UNL d   1      61.865  47.559  50.008  0.00  0.00     0.187 A 
ATOM      3  N   UNL d   1      62.597  47.850  49.778  0.00  0.00    -0.127 NA
ATOM      4  C   UNL d   1      61.822  48.890  50.111  0.00  0.00     0.187 A 
ATOM      5  N   UNL d   1      60.602  48.242  50.484  0.00  0.00    -0.156 NA
ATOM      6  N   UNL d   1      62.579  48.673  49.839  0.00  0.00    -0.127 NA
ATOM      7  C   UNL d   1      60.260  48.974  50.650  0.00  0.00     0.131 A 
ATOM      8  C   UNL d   1      61.480  49.623  50.277  0.00  0.00     0.043 A 
ATOM      9  C   UNL d   1      60.700  49.665  50.546  0.00  0.00     0.031 A 
ENDROOT
BRANCH   7  10
ATOM     10  S   UNL d   1      59.480  49.016  50.918  0.00  0.00    -0.061 SA
BRANCH  10  11
ATOM     11  C   UNL d   1      58.992  49.628  50.664  0.00  0.00     0.098 C 
BRANCH  11  12
ATOM     12  C   UNL d   1      58.716  49.634  49.900  0.00  0.00     0.271 C 
ATOM     13  N   UNL d   1      57.905  49.654  49.758  0.00  0.00    -0.273 N 
ATOM     14  C   UNL d   1      57.381  49.668  50.386  0.00  0.00     0.067 A 
ATOM     15  C   UNL d   1      57.633  49.660  48.982  0.00  0.00     0.083 A 
ATOM     16  C   UNL d   1      56.580  49.688  50.240  0.00  0.00     0.016 A 
ATOM     17  C   UNL d   1      57.662  49.662  51.158  0.00  0.00     0.018 A 
ATOM     18  C   UNL d   1      56.041  49.703  50.867  0.00  0.00     0.001 A 
ATOM     19  C   UNL d   1      56.288  49.694  49.474  0.00  0.00     0.003 A 
ATOM     20  C   UNL d   1      56.313  49.697  51.647  0.00  0.00     0.000 A 
ATOM     21  C   UNL d   1      57.133  49.677  51.793  0.00  0.00     0.002 A 
ATOM     22  C   UNL d   1      56.830  49.680  48.844  0.00  0.00     0.019 A 
ATOM     23  O   UNL d   1      59.245  49.620  49.266  0.00  0.00    -0.266 OA
ENDBRANCH  11  12
ENDBRANCH  10  11
ENDBRANCH   7  10
BRANCH   2  24
ATOM     24  C   UNL d   1      61.651  46.769  50.027  0.00  0.00     0.038 A 
ATOM     25  C   UNL d   1      61.330  46.442  50.706  0.00  0.00     0.003 A 
ATOM     26  C   UNL d   1      61.113  45.645  50.729  0.00  0.00     0.000 A 
ATOM     27  C   UNL d   1      61.225  45.176  50.056  0.00  0.00     0.000 A 
ATOM     28  C   UNL d   1      61.549  45.500  49.369  0.00  0.00     0.000 A 
ATOM     29  C   UNL d   1      61.763  46.300  49.354  0.00  0.00     0.003 A 
ENDBRANCH   2  24
TORSDOF 4
ENDMDL
MODEL 2
REMARK VINA RESULT:      85.6      1.203      4.832
REMARK  4 active torsions:
REMARK  status: ('A' for Active; 'I' for Inactive)
REMARK    1  A    between atoms: C_13  and  C_2 
REMARK       I    between atoms: N_7  and  C_8 
REMARK    2  A    between atoms: C_8  and  C_15 
REMARK    3  A    between atoms: S_14  and  C_10 
REMARK    4  A    between atoms: C_15  and  S_14 
ROOT
ATOM      1  N   UNL d   1      58.374  49.577  51.401  0.00  0.00    -0.191 N 
ATOM      2  C   UNL d   1      57.586  49.627  51.182  0.00  0.00     0.187 A 
ATOM      3  N   UNL d   1      57.141  49.707  51.866  0.00  0.00    -0.127 NA
ATOM      4  C   UNL d   1      58.431  49.625  52.216  0.00  0.00     0.187 A 
ATOM      5  N   UNL d   1      59.073  49.491  50.945  0.00  0.00    -0.156 NA
ATOM      6  N   UNL d   1      57.656  49.707  52.511  0.00  0.00    -0.127 NA
ATOM      7  C   UNL d   1      59.809  49.455  51.318  0.00  0.00     0.131 A 
ATOM      8  C   UNL d   1      59.166  49.589  52.589  0.00  0.00     0.043 A 
ATOM      9  C   UNL d   1      59.854  49.504  52.140  0.00  0.00     0.031 A 
ENDROOT
BRANCH   7  10
ATOM     10  S   UNL d   1      60.497  49.370  50.869  0.00  0.00    -0.061 SA
BRANCH  10  11
ATOM     11  C   UNL d   1      60.738  48.621  50.626  0.00  0.00     0.098 C 
BRANCH  11  12
ATOM     12  C   UNL d   1      61.375  48.544  50.128  0.00  0.00     0.271 C 
ATOM     13  N   UNL d   1      61.689  47.798  49.978  0.00  0.00    -0.273 N 
ATOM     14  C   UNL d   1      61.359  47.138  50.331  0.00  0.00     0.067 A 
ATOM     15  C   UNL d   1      62.334  47.728  49.472  0.00  0.00     0.083 A 
ATOM     16  C   UNL d   1      61.674  46.402  50.179  0.00  0.00     0.016 A 
ATOM     17  C   UNL d   1      60.715  47.218  50.834  0.00  0.00     0.018 A 
ATOM     18  C   UNL d   1      61.348  45.728  50.531  0.00  0.00     0.001 A 
ATOM     19  C   UNL d   1      62.316  46.310  49.679  0.00  0.00     0.003 A 
ATOM     20  C   UNL d   1      60.700  45.798  51.039  0.00  0.00     0.000 A 
ATOM     21  C   UNL d   1      60.381  46.551  51.191  0.00  0.00     0.002 A 
ATOM     22  C   UNL d   1      62.643  46.988  49.326  0.00  0.00     0.019 A 
ATOM     23  O   UNL d   1      61.708  49.210  49.771  0.00  0.00    -0.266 OA
ENDBRANCH  11  12
ENDBRANCH  10  11
ENDBRANCH   7  10
BRANCH   2  24
ATOM     24  C   UNL d   1      57.287  49.602  50.419  0.00  0.00     0.038 A 
ATOM     25  C   UNL d   1      57.783  49.707  49.776  0.00  0.00     0.003 A 
ATOM     26  C   UNL d   1      57.484  49.682  49.005  0.00  0.00     0.000 A 
ATOM     27  C   UNL d   1      56.675  49.550  48.889  0.00  0.00     0.000 A 
ATOM     28  C   UNL d   1      56.171  49.444  49.534  0.00  0.00     0.000 A 
ATOM     29  C   UNL d   1      56.478  49.470  50.304  0.00  0.00     0.003 A 
ENDBRANCH   2  24
TORSDOF 4
ENDMDL
