MODEL 1
REMARK VINA RESULT:       3.8      0.000      0.000
REMARK  2 active torsions:
REMARK  status: ('A' for Active; 'I' for Inactive)
REMARK    1  A    between atoms: C_10  and  N_1 
REMARK    2  A    between atoms: N_11  and  C_10 
ROOT
ATOM      1  N   UNL d   1     -41.558-121.949 -53.102  0.00  0.00    -0.175 N 
ATOM      2  N   UNL d   1     -41.850-122.766 -52.377  0.00  0.00    -0.161 NA
ATOM      3  C   UNL d   1     -41.796-122.482 -51.607  0.00  0.00     0.102 A 
ATOM      4  C   UNL d   1     -41.558-121.709 -51.466  0.00  0.00     0.024 A 
ATOM      5  C   UNL d   1     -41.343-121.223 -52.787  0.00  0.00     0.282 A 
ATOM      6  C   UNL d   1     -41.342-121.103 -51.972  0.00  0.00     0.059 A 
ATOM      7  C   UNL d   1     -41.558-121.587 -50.641  0.00  0.00     0.002 A 
ATOM      8  C   UNL d   1     -41.942-122.837 -50.879  0.00  0.00     0.019 A 
ATOM      9  C   UNL d   1     -41.796-122.288 -50.284  0.00  0.00     0.002 A 
ATOM     10  O   UNL d   1     -41.123-120.606 -53.308  0.00  0.00    -0.265 OA
ATOM     11  C   UNL d   1     -41.123-120.364 -51.663  0.00  0.00     0.005 A 
ATOM     12  C   UNL d   1     -41.342-120.862 -50.336  0.00  0.00     0.000 A 
ATOM     13  C   UNL d   1     -42.192-123.598 -50.677  0.00  0.00     0.002 A 
ATOM     14  C   UNL d   1     -41.899-122.500 -49.495  0.00  0.00     0.000 A 
ATOM     15  C   UNL d   1     -41.123-120.243 -50.839  0.00  0.00     0.000 A 
ATOM     16  C   UNL d   1     -42.296-123.808 -49.881  0.00  0.00     0.000 A 
ATOM     17  C   UNL d   1     -42.150-123.260 -49.293  0.00  0.00     0.000 A 
ENDROOT
BRANCH   1  18
ATOM     18  C   UNL d   1     -41.500-121.888 -53.928  0.00  0.00     0.188 C 
BRANCH  18  19
ATOM     19  N   UNL d   1     -41.816-122.486 -54.407  0.00  0.00    -0.283 N 
ATOM     20  C   UNL d   1     -41.423-123.203 -54.477  0.00  0.00     0.108 A 
ATOM     21  C   UNL d   1     -41.736-123.802 -54.955  0.00  0.00     0.142 A 
ATOM     22  O   UNL d   1     -42.449-123.671 -55.361  0.00  0.00    -0.300 OA
ATOM     23  C   UNL d   1     -42.841-122.949 -55.288  0.00  0.00     0.142 A 
ATOM     24  C   UNL d   1     -42.520-122.346 -54.803  0.00  0.00     0.108 A 
ENDBRANCH  18  19
ENDBRANCH   1  18
TORSDOF 2
ENDMDL
MODEL 2
REMARK VINA RESULT:       4.9      1.231      1.688
REMARK  2 active torsions:
REMARK  status: ('A' for Active; 'I' for Inactive)
REMARK    1  A    between atoms: C_10  and  N_1 
REMARK    2  A    between atoms: N_11  and  C_10 
ROOT
ATOM      1  N   UNL d   1     -41.854-122.089 -52.081  0.00  0.00    -0.175 N 
ATOM      2  N   UNL d   1     -41.351-122.697 -51.271  0.00  0.00    -0.161 NA
ATOM      3  C   UNL d   1     -41.828-122.709 -50.601  0.00  0.00     0.102 A 
ATOM      4  C   UNL d   1     -42.549-122.314 -50.597  0.00  0.00     0.024 A 
ATOM      5  C   UNL d   1     -42.585-121.758 -51.908  0.00  0.00     0.282 A 
ATOM      6  C   UNL d   1     -42.931-121.870 -51.169  0.00  0.00     0.059 A 
ATOM      7  C   UNL d   1     -42.898-122.427 -49.849  0.00  0.00     0.002 A 
ATOM      8  C   UNL d   1     -41.731-123.063 -49.864  0.00  0.00     0.019 A 
ATOM      9  C   UNL d   1     -42.390-122.891 -49.401  0.00  0.00     0.002 A 
ATOM     10  O   UNL d   1     -42.972-121.305 -52.494  0.00  0.00    -0.265 OA
ATOM     11  C   UNL d   1     -43.670-121.531 -51.003  0.00  0.00     0.005 A 
ATOM     12  C   UNL d   1     -43.625-122.095 -49.685  0.00  0.00     0.000 A 
ATOM     13  C   UNL d   1     -41.124-123.526 -49.551  0.00  0.00     0.002 A 
ATOM     14  C   UNL d   1     -42.436-123.180 -48.632  0.00  0.00     0.000 A 
ATOM     15  C   UNL d   1     -44.020-121.644 -50.256  0.00  0.00     0.000 A 
ATOM     16  C   UNL d   1     -41.174-123.816 -48.775  0.00  0.00     0.000 A 
ATOM     17  C   UNL d   1     -41.828-123.643 -48.318  0.00  0.00     0.000 A 
ENDROOT
BRANCH   1  18
ATOM     18  C   UNL d   1     -41.664-121.875 -52.860  0.00  0.00     0.188 C 
BRANCH  18  19
ATOM     19  N   UNL d   1     -41.489-122.464 -53.417  0.00  0.00    -0.283 N 
ATOM     20  C   UNL d   1     -41.300-123.221 -53.163  0.00  0.00     0.108 A 
ATOM     21  C   UNL d   1     -41.125-123.811 -53.717  0.00  0.00     0.142 A 
ATOM     22  O   UNL d   1     -41.142-123.630 -54.527  0.00  0.00    -0.300 OA
ATOM     23  C   UNL d   1     -41.332-122.868 -54.779  0.00  0.00     0.142 A 
ATOM     24  C   UNL d   1     -41.509-122.274 -54.214  0.00  0.00     0.108 A 
ENDBRANCH  18  19
ENDBRANCH   1  18
TORSDOF 2
ENDMDL
MODEL 3
REMARK VINA RESULT:       5.5      1.432      3.832
REMARK  2 active torsions:
REMARK  status: ('A' for Active; 'I' for Inactive)
REMARK    1  A    between atoms: C_10  and  N_1 
REMARK    2  A    between atoms: N_11  and  C_10 
ROOT
ATOM      1  N   UNL d   1     -41.319-122.230 -51.728  0.00  0.00    -0.175 N 
ATOM      2  N   UNL d   1     -41.521-122.997 -52.533  0.00  0.00    -0.161 NA
ATOM      3  C   UNL d   1     -41.660-122.615 -53.248  0.00  0.00     0.102 A 
ATOM      4  C   UNL d   1     -41.638-121.795 -53.292  0.00  0.00     0.024 A 
ATOM      5  C   UNL d   1     -41.335-121.439 -51.946  0.00  0.00     0.282 A 
ATOM      6  C   UNL d   1     -41.494-121.222 -52.725  0.00  0.00     0.059 A 
ATOM      7  C   UNL d   1     -41.799-121.576 -54.079  0.00  0.00     0.002 A 
ATOM      8  C   UNL d   1     -41.833-122.902 -54.000  0.00  0.00     0.019 A 
ATOM      9  C   UNL d   1     -41.919-122.264 -54.512  0.00  0.00     0.002 A 
ATOM     10  O   UNL d   1     -41.188-120.856 -51.364  0.00  0.00    -0.265 OA
ATOM     11  C   UNL d   1     -41.509-120.419 -52.935  0.00  0.00     0.005 A 
ATOM     12  C   UNL d   1     -41.814-120.787 -54.288  0.00  0.00     0.000 A 
ATOM     13  C   UNL d   1     -41.924-123.670 -54.289  0.00  0.00     0.002 A 
ATOM     14  C   UNL d   1     -42.094-122.396 -55.306  0.00  0.00     0.000 A 
ATOM     15  C   UNL d   1     -41.670-120.200 -53.723  0.00  0.00     0.000 A 
ATOM     16  C   UNL d   1     -42.102-123.799 -55.089  0.00  0.00     0.000 A 
ATOM     17  C   UNL d   1     -42.186-123.164 -55.595  0.00  0.00     0.000 A 
ENDROOT
BRANCH   1  18
ATOM     18  C   UNL d   1     -41.145-122.259 -50.917  0.00  0.00     0.188 C 
BRANCH  18  19
ATOM     19  N   UNL d   1     -41.563-122.781 -50.426  0.00  0.00    -0.283 N 
ATOM     20  C   UNL d   1     -41.154-123.261 -49.900  0.00  0.00     0.108 A 
ATOM     21  C   UNL d   1     -41.569-123.783 -49.409  0.00  0.00     0.142 A 
ATOM     22  O   UNL d   1     -42.397-123.815 -49.453  0.00  0.00    -0.300 OA
ATOM     23  C   UNL d   1     -42.805-123.331 -49.983  0.00  0.00     0.142 A 
ATOM     24  C   UNL d   1     -42.380-122.805 -50.478  0.00  0.00     0.108 A 
ENDBRANCH  18  19
ENDBRANCH   1  18
TORSDOF 2
ENDMDL
MODEL 4
REMARK VINA RESULT:       5.6      1.623      3.232
REMARK  2 active torsions:
REMARK  status: ('A' for Active; 'I' for Inactive)
REMARK    1  A    between atoms: C_10  and  N_1 
REMARK    2  A    between atoms: N_11  and  C_10 
ROOT
ATOM      1  N   UNL d   1     -41.647-123.132 -50.743  0.00  0.00    -0.175 N 
ATOM      2  N   UNL d   1     -41.198-122.916 -49.729  0.00  0.00    -0.161 NA
ATOM      3  C   UNL d   1     -41.760-123.054 -49.145  0.00  0.00     0.102 A 
ATOM      4  C   UNL d   1     -42.515-123.309 -49.346  0.00  0.00     0.024 A 
ATOM      5  C   UNL d   1     -42.428-123.383 -50.766  0.00  0.00     0.282 A 
ATOM      6  C   UNL d   1     -42.860-123.471 -50.071  0.00  0.00     0.059 A 
ATOM      7  C   UNL d   1     -42.952-123.398 -48.643  0.00  0.00     0.002 A 
ATOM      8  C   UNL d   1     -41.729-122.985 -48.325  0.00  0.00     0.019 A 
ATOM      9  C   UNL d   1     -42.462-123.197 -48.015  0.00  0.00     0.002 A 
ATOM     10  O   UNL d   1     -42.778-123.547 -51.508  0.00  0.00    -0.265 OA
ATOM     11  C   UNL d   1     -43.650-123.725 -50.104  0.00  0.00     0.005 A 
ATOM     12  C   UNL d   1     -43.728-123.648 -48.674  0.00  0.00     0.000 A 
ATOM     13  C   UNL d   1     -41.123-122.755 -47.813  0.00  0.00     0.002 A 
ATOM     14  C   UNL d   1     -42.584-123.178 -47.201  0.00  0.00     0.000 A 
ATOM     15  C   UNL d   1     -44.087-123.815 -49.401  0.00  0.00     0.000 A 
ATOM     16  C   UNL d   1     -41.249-122.737 -46.993  0.00  0.00     0.000 A 
ATOM     17  C   UNL d   1     -41.977-122.948 -46.690  0.00  0.00     0.000 A 
ENDROOT
BRANCH   1  18
ATOM     18  C   UNL d   1     -41.374-123.100 -51.526  0.00  0.00     0.188 C 
BRANCH  18  19
ATOM     19  N   UNL d   1     -41.419-122.389 -51.949  0.00  0.00    -0.283 N 
ATOM     20  C   UNL d   1     -41.758-122.380 -52.697  0.00  0.00     0.108 A 
ATOM     21  C   UNL d   1     -41.805-121.670 -53.122  0.00  0.00     0.142 A 
ATOM     22  O   UNL d   1     -41.508-120.972 -52.785  0.00  0.00    -0.300 OA
ATOM     23  C   UNL d   1     -41.168-120.985 -52.034  0.00  0.00     0.142 A 
ATOM     24  C   UNL d   1     -41.123-121.705 -51.608  0.00  0.00     0.108 A 
ENDBRANCH  18  19
ENDBRANCH   1  18
TORSDOF 2
ENDMDL
MODEL 5
REMARK VINA RESULT:       6.7      1.681      4.249
REMARK  2 active torsions:
REMARK  status: ('A' for Active; 'I' for Inactive)
REMARK    1  A    between atoms: C_10  and  N_1 
REMARK    2  A    between atoms: N_11  and  C_10 
ROOT
ATOM      1  N   UNL d   1     -41.567-122.461 -51.656  0.00  0.00    -0.175 N 
ATOM      2  N   UNL d   1     -41.866-121.549 -52.254  0.00  0.00    -0.161 NA
ATOM      3  C   UNL d   1     -41.812-121.717 -53.057  0.00  0.00     0.102 A 
ATOM      4  C   UNL d   1     -41.569-122.460 -53.310  0.00  0.00     0.024 A 
ATOM      5  C   UNL d   1     -41.347-123.133 -52.074  0.00  0.00     0.282 A 
ATOM      6  C   UNL d   1     -41.349-123.132 -52.898  0.00  0.00     0.059 A 
ATOM      7  C   UNL d   1     -41.571-122.460 -54.143  0.00  0.00     0.002 A 
ATOM      8  C   UNL d   1     -41.963-121.261 -53.725  0.00  0.00     0.019 A 
ATOM      9  C   UNL d   1     -41.814-121.717 -54.395  0.00  0.00     0.002 A 
ATOM     10  O   UNL d   1     -41.123-123.817 -51.649  0.00  0.00    -0.265 OA
ATOM     11  C   UNL d   1     -41.125-123.817 -53.311  0.00  0.00     0.005 A 
ATOM     12  C   UNL d   1     -41.351-123.132 -54.552  0.00  0.00     0.000 A 
ATOM     13  C   UNL d   1     -42.218-120.481 -53.814  0.00  0.00     0.002 A 
ATOM     14  C   UNL d   1     -41.922-121.393 -55.143  0.00  0.00     0.000 A 
ATOM     15  C   UNL d   1     -41.127-123.817 -54.144  0.00  0.00     0.000 A 
ATOM     16  C   UNL d   1     -42.325-120.158 -54.571  0.00  0.00     0.000 A 
ATOM     17  C   UNL d   1     -42.177-120.613 -55.232  0.00  0.00     0.000 A 
ENDROOT
BRANCH   1  18
ATOM     18  C   UNL d   1     -41.506-122.641 -50.848  0.00  0.00     0.188 C 
BRANCH  18  19
ATOM     19  N   UNL d   1     -42.185-122.631 -50.373  0.00  0.00    -0.283 N 
ATOM     20  C   UNL d   1     -42.367-123.282 -49.907  0.00  0.00     0.108 A 
ATOM     21  C   UNL d   1     -43.045-123.274 -49.431  0.00  0.00     0.142 A 
ATOM     22  O   UNL d   1     -43.536-122.605 -49.431  0.00  0.00    -0.300 OA
ATOM     23  C   UNL d   1     -43.351-121.953 -49.900  0.00  0.00     0.142 A 
ATOM     24  C   UNL d   1     -42.664-121.966 -50.380  0.00  0.00     0.108 A 
ENDBRANCH  18  19
ENDBRANCH   1  18
TORSDOF 2
ENDMDL
