MODEL 1
REMARK VINA RESULT:     141.1      0.000      0.000
REMARK  4 active torsions:
REMARK  status: ('A' for Active; 'I' for Inactive)
REMARK    1  A    between atoms: S_5  and  C_2 
REMARK    2  A    between atoms: C_15  and  S_5 
REMARK    3  A    between atoms: N_11  and  C_8 
REMARK    4  A    between atoms: C_12  and  N_11 
ROOT
ATOM      1  C   UNL d   1      58.491  47.553  50.626  0.00  0.00     0.197 A 
ATOM      2  C   UNL d   1      58.734  46.762  50.686  0.00  0.00     0.227 A 
ATOM      3  N   UNL d   1      57.667  47.559  50.563  0.00  0.00    -0.192 N 
ATOM      4  N   UNL d   1      58.910  48.264  50.620  0.00  0.00    -0.206 NA
ATOM      5  N   UNL d   1      58.062  46.283  50.660  0.00  0.00    -0.115 NA
ATOM      6  N   UNL d   1      57.398  46.774  50.584  0.00  0.00    -0.058 NA
ATOM      7  C   UNL d   1      58.506  48.985  50.551  0.00  0.00     0.166 A 
ATOM      8  C   UNL d   1      57.683  48.985  50.489  0.00  0.00     0.054 A 
ATOM      9  C   UNL d   1      57.258  48.278  50.494  0.00  0.00     0.089 A 
ATOM     10  C   UNL d   1      57.273  49.704  50.419  0.00  0.00     0.005 A 
ATOM     11  C   UNL d   1      56.437  48.282  50.431  0.00  0.00     0.019 A 
ATOM     12  C   UNL d   1      56.453  49.708  50.357  0.00  0.00     0.000 A 
ATOM     13  C   UNL d   1      56.034  48.997  50.363  0.00  0.00     0.002 A 
ENDROOT
BRANCH   2  14
ATOM     14  S   UNL d   1      59.515  46.502  50.759  0.00  0.00     0.231 S 
ATOM     15  O   UNL d   1      59.698  46.947  50.090  0.00  0.00    -0.215 OA
ATOM     16  O   UNL d   1      59.328  46.059  51.426  0.00  0.00    -0.215 OA
BRANCH  14  17
ATOM     17  C   UNL d   1      60.299  46.267  50.796  0.00  0.00     0.090 A 
ATOM     18  C   UNL d   1      60.679  46.188  51.521  0.00  0.00     0.011 A 
ATOM     19  C   UNL d   1      61.460  45.954  51.556  0.00  0.00     0.001 A 
ATOM     20  C   UNL d   1      61.875  45.794  50.858  0.00  0.00     0.000 A 
ATOM     21  C   UNL d   1      61.494  45.874  50.128  0.00  0.00     0.001 A 
ATOM     22  C   UNL d   1      60.711  46.109  50.097  0.00  0.00     0.011 A 
ENDBRANCH  14  17
ENDBRANCH   2  14
BRANCH   7  23
ATOM     23  N   UNL d   1      58.924  49.696  50.545  0.00  0.00    -0.227 NA
BRANCH  23  24
ATOM     24  C   UNL d   1      59.732  49.699  50.700  0.00  0.00     0.083 A 
ATOM     25  C   UNL d   1      60.004  49.701  51.480  0.00  0.00     0.019 A 
ATOM     26  C   UNL d   1      60.813  49.705  51.634  0.00  0.00     0.002 A 
ATOM     27  C   UNL d   1      61.085  49.707  52.413  0.00  0.00     0.000 C 
ATOM     28  C   UNL d   1      61.357  49.707  51.008  0.00  0.00     0.000 A 
ATOM     29  C   UNL d   1      61.076  49.705  50.227  0.00  0.00     0.002 A 
ATOM     30  C   UNL d   1      60.270  49.701  50.076  0.00  0.00     0.019 A 
ATOM     31  C   UNL d   1      61.613  49.707  49.603  0.00  0.00     0.000 C 
ENDBRANCH  23  24
ENDBRANCH   7  23
TORSDOF 4
ENDMDL
MODEL 2
REMARK VINA RESULT:     142.0      1.635      3.434
REMARK  4 active torsions:
REMARK  status: ('A' for Active; 'I' for Inactive)
REMARK    1  A    between atoms: S_5  and  C_2 
REMARK    2  A    between atoms: C_15  and  S_5 
REMARK    3  A    between atoms: N_11  and  C_8 
REMARK    4  A    between atoms: C_12  and  N_11 
ROOT
ATOM      1  C   UNL d   1      60.830  47.142  50.372  0.00  0.00     0.197 A 
ATOM      2  C   UNL d   1      61.343  46.643  49.953  0.00  0.00     0.227 A 
ATOM      3  N   UNL d   1      61.252  47.822  50.581  0.00  0.00    -0.192 N 
ATOM      4  N   UNL d   1      60.038  47.067  50.589  0.00  0.00    -0.206 NA
ATOM      5  N   UNL d   1      62.080  47.014  49.904  0.00  0.00    -0.115 NA
ATOM      6  N   UNL d   1      62.027  47.746  50.292  0.00  0.00    -0.058 NA
ATOM      7  C   UNL d   1      59.664  47.672  51.016  0.00  0.00     0.166 A 
ATOM      8  C   UNL d   1      60.091  48.347  51.222  0.00  0.00     0.054 A 
ATOM      9  C   UNL d   1      60.883  48.429  51.008  0.00  0.00     0.089 A 
ATOM     10  C   UNL d   1      59.720  48.956  51.650  0.00  0.00     0.005 A 
ATOM     11  C   UNL d   1      61.305  49.105  51.215  0.00  0.00     0.019 A 
ATOM     12  C   UNL d   1      60.143  49.631  51.856  0.00  0.00     0.000 A 
ATOM     13  C   UNL d   1      60.936  49.706  51.639  0.00  0.00     0.002 A 
ENDROOT
BRANCH   2  14
ATOM     14  S   UNL d   1      61.149  45.904  49.641  0.00  0.00     0.231 S 
ATOM     15  O   UNL d   1      61.159  45.606  50.408  0.00  0.00    -0.215 OA
ATOM     16  O   UNL d   1      61.141  46.205  48.875  0.00  0.00    -0.215 OA
BRANCH  14  17
ATOM     17  C   UNL d   1      60.957  45.154  49.371  0.00  0.00     0.090 A 
ATOM     18  C   UNL d   1      60.185  44.971  49.157  0.00  0.00     0.011 A 
ATOM     19  C   UNL d   1      59.995  44.224  48.888  0.00  0.00     0.001 A 
ATOM     20  C   UNL d   1      60.583  43.645  48.830  0.00  0.00     0.000 A 
ATOM     21  C   UNL d   1      61.361  43.828  49.045  0.00  0.00     0.001 A 
ATOM     22  C   UNL d   1      61.547  44.577  49.314  0.00  0.00     0.011 A 
ENDBRANCH  14  17
ENDBRANCH   2  14
BRANCH   7  23
ATOM     23  N   UNL d   1      58.871  47.597  51.234  0.00  0.00    -0.227 NA
BRANCH  23  24
ATOM     24  C   UNL d   1      58.281  47.898  50.747  0.00  0.00     0.083 A 
ATOM     25  C   UNL d   1      57.999  47.451  50.112  0.00  0.00     0.019 A 
ATOM     26  C   UNL d   1      57.408  47.753  49.626  0.00  0.00     0.002 A 
ATOM     27  C   UNL d   1      57.127  47.307  48.991  0.00  0.00     0.000 C 
ATOM     28  C   UNL d   1      57.092  48.507  49.771  0.00  0.00     0.000 A 
ATOM     29  C   UNL d   1      57.380  48.950  50.411  0.00  0.00     0.002 A 
ATOM     30  C   UNL d   1      57.970  48.647  50.894  0.00  0.00     0.019 A 
ATOM     31  C   UNL d   1      57.070  49.698  50.558  0.00  0.00     0.000 C 
ENDBRANCH  23  24
ENDBRANCH   7  23
TORSDOF 4
ENDMDL
