MODEL 1
REMARK VINA RESULT:      45.7      0.000      0.000
REMARK  4 active torsions:
REMARK  status: ('A' for Active; 'I' for Inactive)
REMARK    1  A    between atoms: C_6  and  C_1 
REMARK       I    between atoms: N_7  and  C_1 
REMARK    2  A    between atoms: N_3  and  C_5 
REMARK    3  A    between atoms: C_19  and  N_7 
REMARK    4  A    between atoms: C_8  and  C_10 
ROOT
ATOM      1  C   UNL d   1     -55.341-102.366 -39.238  0.00  0.00     0.019 A 
ATOM      2  C   UNL d   1     -55.518-102.708 -37.633  0.00  0.00     0.085 A 
ATOM      3  C   UNL d   1     -56.045-102.671 -38.956  0.00  0.00     0.003 A 
ATOM      4  C   UNL d   1     -54.716-102.229 -38.715  0.00  0.00     0.003 A 
ATOM      5  C   UNL d   1     -56.134-102.842 -38.154  0.00  0.00     0.019 A 
ATOM      6  C   UNL d   1     -54.805-102.400 -37.913  0.00  0.00     0.019 A 
ENDROOT
BRANCH   1   7
ATOM      7  C   UNL d   1     -55.252-102.194 -40.040  0.00  0.00     0.103 A 
ATOM      8  N   UNL d   1     -54.859-101.512 -40.275  0.00  0.00    -0.147 NA
ATOM      9  N   UNL d   1     -54.770-101.341 -41.077  0.00  0.00    -0.130 NA
ATOM     10  C   UNL d   1     -55.075-101.852 -41.644  0.00  0.00     0.169 A 
ATOM     11  C   UNL d   1     -55.470-102.538 -41.410  0.00  0.00     0.041 A 
ATOM     12  C   UNL d   1     -55.558-102.709 -40.607  0.00  0.00     0.024 A 
BRANCH  10  13
ATOM     13  N   UNL d   1     -54.986-101.681 -42.447  0.00  0.00    -0.288 N 
ATOM     14  C   UNL d   1     -54.999-100.901 -42.705  0.00  0.00     0.082 A 
ATOM     15  C   UNL d   1     -54.911-100.730 -43.508  0.00  0.00     0.019 A 
ATOM     16  C   UNL d   1     -54.809-101.339 -44.051  0.00  0.00     0.003 A 
ATOM     17  C   UNL d   1     -54.795-102.123 -43.792  0.00  0.00     0.019 A 
ATOM     18  C   UNL d   1     -54.721-101.159 -44.851  0.00  0.00     0.000 C 
ATOM     19  C   UNL d   1     -54.884-102.294 -42.990  0.00  0.00     0.082 A 
ENDBRANCH  10  13
ENDBRANCH   1   7
BRANCH   2  20
ATOM     20  N   UNL d   1     -55.607-102.879 -36.831  0.00  0.00    -0.206 NA
ATOM     21  C   UNL d   1     -55.421-102.312 -36.265  0.00  0.00     0.302 C 
ATOM     22  O   UNL d   1     -55.510-102.484 -35.459  0.00  0.00    -0.263 OA
BRANCH  21  23
ATOM     23  C   UNL d   1     -55.145-101.571 -36.501  0.00  0.00     0.158 A 
ATOM     24  O   UNL d   1     -54.977-101.427 -37.297  0.00  0.00    -0.300 OA
ATOM     25  C   UNL d   1     -54.713-100.643 -37.367  0.00  0.00     0.123 A 
ATOM     26  C   UNL d   1     -54.720-100.308 -36.613  0.00  0.00     0.029 A 
ATOM     27  C   UNL d   1     -54.986-100.880 -36.086  0.00  0.00     0.032 A 
ENDBRANCH  21  23
ENDBRANCH   2  20
TORSDOF 4
ENDMDL
