MODEL 1
REMARK VINA RESULT:      -2.5      0.000      0.000
REMARK  7 active torsions:
REMARK  status: ('A' for Active; 'I' for Inactive)
REMARK    1  A    between atoms: C_4  and  C_1 
REMARK    2  A    between atoms: N_5  and  C_3 
REMARK    3  A    between atoms: C_9  and  C_4 
REMARK       I    between atoms: C_7  and  N_5 
REMARK    4  A    between atoms: C_10  and  C_7 
REMARK       I    between atoms: N_19  and  C_9 
REMARK    5  A    between atoms: C_21  and  N_19 
REMARK    6  A    between atoms: C_24  and  C_21 
REMARK    7  A    between atoms: C_23  and  C_24 
ROOT
ATOM      1  C   UNL d   1      32.533  18.252 -23.214  0.00  0.00     0.144 C 
ATOM      2  C   UNL d   1      32.889  18.171 -22.476  0.00  0.00     0.107 C 
ATOM      3  N   UNL d   1      33.241  18.084 -21.742  0.00  0.00    -0.191 NA
ENDROOT
BRANCH   1   4
ATOM      4  C   UNL d   1      32.048  17.648 -23.518  0.00  0.00     0.097 A 
ATOM      5  N   UNL d   1      31.238  17.519 -23.424  0.00  0.00    -0.226 NA
ATOM      6  C   UNL d   1      31.036  16.838 -23.844  0.00  0.00     0.166 A 
ATOM      7  C   UNL d   1      31.719  16.544 -24.198  0.00  0.00     0.037 A 
ATOM      8  C   UNL d   1      32.351  17.040 -24.001  0.00  0.00     0.021 A 
ATOM      9  C   UNL d   1      31.854  15.887 -24.678  0.00  0.00     0.003 A 
ATOM     10  C   UNL d   1      33.106  16.880 -24.279  0.00  0.00     0.002 A 
ATOM     11  C   UNL d   1      33.241  16.224 -24.758  0.00  0.00     0.000 A 
ATOM     12  C   UNL d   1      32.608  15.728 -24.956  0.00  0.00     0.000 A 
BRANCH   6  13
ATOM     13  N   UNL d   1      30.306  16.484 -23.923  0.00  0.00    -0.189 NA
ATOM     14  C   UNL d   1      29.586  16.820 -24.175  0.00  0.00     0.286 C 
ATOM     15  O   UNL d   1      29.577  17.617 -24.381  0.00  0.00    -0.265 OA
BRANCH  14  16
ATOM     16  C   UNL d   1      28.893  16.377 -24.223  0.00  0.00     0.087 A 
ATOM     17  S   UNL d   1      28.322  16.437 -23.630  0.00  0.00    -0.082 SA
ATOM     18  C   UNL d   1      27.699  15.932 -23.831  0.00  0.00     0.036 A 
ATOM     19  C   UNL d   1      27.887  15.563 -24.546  0.00  0.00     0.008 A 
ATOM     20  C   UNL d   1      28.624  15.837 -24.787  0.00  0.00     0.012 A 
ENDBRANCH  14  16
ENDBRANCH   6  13
ENDBRANCH   1   4
BRANCH   1  21
ATOM     21  C   UNL d   1      32.656  18.940 -23.658  0.00  0.00     0.290 C 
ATOM     22  O   UNL d   1      32.645  18.908 -24.480  0.00  0.00    -0.264 OA
ATOM     23  N   UNL d   1      32.791  19.655 -23.280  0.00  0.00    -0.206 NA
BRANCH  23  24
ATOM     24  C   UNL d   1      32.802  19.687 -22.458  0.00  0.00     0.102 C 
BRANCH  24  25
ATOM     25  C   UNL d   1      33.183  20.158 -21.900  0.00  0.00     0.021 C 
BRANCH  25  26
ATOM     26  C   UNL d   1      32.915  20.922 -21.748  0.00  0.00     0.002 A 
ATOM     27  C   UNL d   1      32.426  21.067 -21.098  0.00  0.00     0.000 A 
ATOM     28  C   UNL d   1      32.160  21.834 -20.951  0.00  0.00     0.000 A 
ATOM     29  C   UNL d   1      32.376  22.461 -21.447  0.00  0.00     0.000 A 
ATOM     30  C   UNL d   1      32.870  22.303 -22.103  0.00  0.00     0.000 A 
ATOM     31  C   UNL d   1      33.136  21.543 -22.251  0.00  0.00     0.000 A 
ENDBRANCH  25  26
ENDBRANCH  24  25
ENDBRANCH  23  24
ENDBRANCH   1  21
TORSDOF 7
ENDMDL
