MODEL 1
REMARK VINA RESULT:      -5.0      0.000      0.000
REMARK  4 active torsions:
REMARK  status: ('A' for Active; 'I' for Inactive)
REMARK    1  A    between atoms: C_2  and  C_1 
REMARK    2  A    between atoms: C_8  and  C_1 
REMARK    3  A    between atoms: C_9  and  C_2 
REMARK    4  A    between atoms: N_4  and  C_3 
ROOT
ATOM      1  C   UNL d   1      55.654   0.149  33.405  0.00  0.00     0.064 A 
ATOM      2  C   UNL d   1      55.861   0.682  32.813  0.00  0.00     0.018 A 
ATOM      3  C   UNL d   1      55.883  -0.651  33.362  0.00  0.00     0.018 A 
ATOM      4  C   UNL d   1      56.534  -0.372  32.114  0.00  0.00     0.000 A 
ATOM      5  C   UNL d   1      56.299   0.417  32.172  0.00  0.00     0.002 A 
ATOM      6  C   UNL d   1      56.320  -0.908  32.719  0.00  0.00     0.002 A 
ENDROOT
BRANCH   4   7
ATOM      7  C   UNL d   1      56.973  -0.638  31.470  0.00  0.00     0.000 C 
BRANCH   7   8
ATOM      8  C   UNL d   1      57.494  -0.125  31.095  0.00  0.00     0.000 C 
BRANCH   8   9
ATOM      9  C   UNL d   1      57.923  -0.387  30.438  0.00  0.00     0.003 A 
ATOM     10  C   UNL d   1      58.186   0.184  29.909  0.00  0.00     0.021 A 
ATOM     11  C   UNL d   1      58.622  -0.048  29.234  0.00  0.00     0.099 A 
ATOM     12  N   UNL d   1      58.787  -0.852  29.104  0.00  0.00    -0.242 NA
ATOM     13  C   UNL d   1      58.516  -1.414  29.646  0.00  0.00     0.099 A 
ATOM     14  C   UNL d   1      58.085  -1.189  30.311  0.00  0.00     0.021 A 
ENDBRANCH   8   9
ENDBRANCH   7   8
ENDBRANCH   4   7
BRANCH   1  15
ATOM     15  N   UNL d   1      55.208   0.407  34.063  0.00  0.00    -0.301 N 
ATOM     16  C   UNL d   1      55.558   0.416  34.814  0.00  0.00     0.100 C 
ATOM     17  C   UNL d   1      54.424   0.649  33.961  0.00  0.00     0.100 C 
ENDBRANCH   1  15
TORSDOF 4
ENDMDL
MODEL 2
REMARK VINA RESULT:      -4.1      0.718      4.534
REMARK  4 active torsions:
REMARK  status: ('A' for Active; 'I' for Inactive)
REMARK    1  A    between atoms: C_2  and  C_1 
REMARK    2  A    between atoms: C_8  and  C_1 
REMARK    3  A    between atoms: C_9  and  C_2 
REMARK    4  A    between atoms: N_4  and  C_3 
ROOT
ATOM      1  C   UNL d   1      57.493  -0.432  30.892  0.00  0.00     0.064 A 
ATOM      2  C   UNL d   1      57.290   0.348  31.056  0.00  0.00     0.018 A 
ATOM      3  C   UNL d   1      57.163  -1.062  31.326  0.00  0.00     0.018 A 
ATOM      4  C   UNL d   1      56.417  -0.108  32.096  0.00  0.00     0.000 A 
ATOM      5  C   UNL d   1      56.754   0.504  31.657  0.00  0.00     0.002 A 
ATOM      6  C   UNL d   1      56.628  -0.899  31.924  0.00  0.00     0.002 A 
ENDROOT
BRANCH   4   7
ATOM      7  C   UNL d   1      55.879   0.048  32.699  0.00  0.00     0.000 C 
BRANCH   7   8
ATOM      8  C   UNL d   1      56.145   0.363  33.410  0.00  0.00     0.000 C 
BRANCH   8   9
ATOM      9  C   UNL d   1      55.613   0.470  34.034  0.00  0.00     0.003 A 
ATOM     10  C   UNL d   1      54.812   0.468  33.850  0.00  0.00     0.021 A 
ATOM     11  C   UNL d   1      54.248   0.574  34.459  0.00  0.00     0.099 A 
ATOM     12  N   UNL d   1      54.501   0.680  35.243  0.00  0.00    -0.242 NA
ATOM     13  C   UNL d   1      55.310   0.680  35.412  0.00  0.00     0.099 A 
ATOM     14  C   UNL d   1      55.868   0.576  34.814  0.00  0.00     0.021 A 
ENDBRANCH   8   9
ENDBRANCH   7   8
ENDBRANCH   4   7
BRANCH   1  15
ATOM     15  N   UNL d   1      58.039  -0.604  30.282  0.00  0.00    -0.301 N 
ATOM     16  C   UNL d   1      58.186  -1.393  30.078  0.00  0.00     0.100 C 
ATOM     17  C   UNL d   1      58.425   0.013  29.890  0.00  0.00     0.100 C 
ENDBRANCH   1  15
TORSDOF 4
ENDMDL
MODEL 3
REMARK VINA RESULT:      -2.1      1.381      1.887
REMARK  4 active torsions:
REMARK  status: ('A' for Active; 'I' for Inactive)
REMARK    1  A    between atoms: C_2  and  C_1 
REMARK    2  A    between atoms: C_8  and  C_1 
REMARK    3  A    between atoms: C_9  and  C_2 
REMARK    4  A    between atoms: N_4  and  C_3 
ROOT
ATOM      1  C   UNL d   1      57.299   0.537  33.100  0.00  0.00     0.064 A 
ATOM      2  C   UNL d   1      58.107   0.676  33.020  0.00  0.00     0.018 A 
ATOM      3  C   UNL d   1      56.820   0.395  32.434  0.00  0.00     0.018 A 
ATOM      4  C   UNL d   1      57.980   0.533  31.600  0.00  0.00     0.000 A 
ATOM      5  C   UNL d   1      58.440   0.673  32.271  0.00  0.00     0.002 A 
ATOM      6  C   UNL d   1      57.160   0.393  31.689  0.00  0.00     0.002 A 
ENDROOT
BRANCH   4   7
ATOM      7  C   UNL d   1      58.315   0.530  30.848  0.00  0.00     0.000 C 
BRANCH   7   8
ATOM      8  C   UNL d   1      59.016   0.123  30.718  0.00  0.00     0.000 C 
BRANCH   8   9
ATOM      9  C   UNL d   1      59.358   0.129  29.965  0.00  0.00     0.003 A 
ATOM     10  C   UNL d   1      60.047   0.567  29.868  0.00  0.00     0.021 A 
ATOM     11  C   UNL d   1      60.418   0.593  29.119  0.00  0.00     0.099 A 
ATOM     12  N   UNL d   1      60.088   0.178  28.479  0.00  0.00    -0.242 NA
ATOM     13  C   UNL d   1      59.395  -0.258  28.592  0.00  0.00     0.099 A 
ATOM     14  C   UNL d   1      59.027  -0.286  29.329  0.00  0.00     0.021 A 
ENDBRANCH   8   9
ENDBRANCH   7   8
ENDBRANCH   4   7
BRANCH   1  15
ATOM     15  N   UNL d   1      56.947   0.538  33.858  0.00  0.00    -0.301 N 
ATOM     16  C   UNL d   1      56.131   0.416  33.928  0.00  0.00     0.100 C 
ATOM     17  C   UNL d   1      57.415   0.660  34.529  0.00  0.00     0.100 C 
ENDBRANCH   1  15
TORSDOF 4
ENDMDL
