MODEL 1
REMARK VINA RESULT:      63.9      0.000      0.000
REMARK  7 active torsions:
REMARK  status: ('A' for Active; 'I' for Inactive)
REMARK    1  A    between atoms: C_14  and  C_4 
REMARK    2  A    between atoms: N_17  and  C_5 
REMARK    3  A    between atoms: C_13  and  C_8 
REMARK    4  A    between atoms: N_11  and  C_18 
REMARK    5  A    between atoms: C_20  and  N_17 
REMARK    6  A    between atoms: C_18  and  C_19 
REMARK    7  A    between atoms: C_19  and  C_20 
ROOT
ATOM      1  C   UNL d   1      13.831  14.575  -3.702  0.00  0.00     0.168 A 
ATOM      2  N   UNL d   1      13.979  15.395  -3.790  0.00  0.00    -0.184 N 
ATOM      3  N   UNL d   1      14.115  14.180  -3.046  0.00  0.00    -0.231 NA
ATOM      4  C   UNL d   1      13.409  14.176  -4.264  0.00  0.00     0.057 A 
ATOM      5  C   UNL d   1      14.403  15.773  -3.218  0.00  0.00     0.217 A 
ATOM      6  N   UNL d   1      13.275  15.379  -4.999  0.00  0.00    -0.160 NA
ATOM      7  C   UNL d   1      14.692  15.386  -2.556  0.00  0.00     0.067 A 
ATOM      8  C   UNL d   1      14.547  14.579  -2.469  0.00  0.00     0.064 A 
ATOM      9  C   UNL d   1      13.129  14.572  -4.912  0.00  0.00     0.124 A 
ENDROOT
BRANCH   5  10
ATOM     10  N   UNL d   1      14.553  16.607  -3.307  0.00  0.00    -0.380 NA
BRANCH  10  11
ATOM     11  C   UNL d   1      14.630  17.447  -3.398  0.00  0.00     0.164 C 
BRANCH  11  12
ATOM     12  C   UNL d   1      14.677  17.779  -4.169  0.00  0.00     0.054 C 
BRANCH  12  13
ATOM     13  C   UNL d   1      14.655  18.618  -4.269  0.00  0.00     0.084 C 
BRANCH  13  14
ATOM     14  N   UNL d   1      14.494  18.947  -5.040  0.00  0.00    -0.285 N 
ATOM     15  C   UNL d   1      14.340  19.758  -5.208  0.00  0.00     0.183 A 
ATOM     16  N   UNL d   1      14.211  19.830  -6.043  0.00  0.00    -0.222 NA
ATOM     17  C   UNL d   1      14.288  19.060  -6.387  0.00  0.00     0.120 A 
ATOM     18  C   UNL d   1      14.463  18.513  -5.767  0.00  0.00     0.102 A 
ENDBRANCH  13  14
ENDBRANCH  12  13
ENDBRANCH  11  12
ENDBRANCH  10  11
ENDBRANCH   5  10
BRANCH   8  19
ATOM     19  C   UNL d   1      14.842  14.162  -1.785  0.00  0.00     0.036 C 
ATOM     20  C   UNL d   1      14.633  14.430  -1.001  0.00  0.00     0.006 C 
ATOM     21  C   UNL d   1      15.130  13.753  -1.108  0.00  0.00     0.006 C 
ATOM     22  C   UNL d   1      15.341  13.482  -1.890  0.00  0.00     0.006 C 
ENDBRANCH   8  19
BRANCH   4  23
ATOM     23  C   UNL d   1      13.263  13.369  -4.177  0.00  0.00     0.004 A 
ATOM     24  C   UNL d   1      13.469  12.866  -4.768  0.00  0.00     0.000 A 
ATOM     25  C   UNL d   1      13.323  12.059  -4.681  0.00  0.00     0.000 A 
ATOM     26  C   UNL d   1      12.976  11.779  -4.006  0.00  0.00     0.000 A 
ATOM     27  C   UNL d   1      12.769  12.296  -3.409  0.00  0.00     0.000 A 
ATOM     28  C   UNL d   1      12.915  13.103  -3.496  0.00  0.00     0.000 A 
ENDBRANCH   4  23
TORSDOF 7
ENDMDL
MODEL 2
REMARK VINA RESULT:      64.4      2.622      4.080
REMARK  7 active torsions:
REMARK  status: ('A' for Active; 'I' for Inactive)
REMARK    1  A    between atoms: C_14  and  C_4 
REMARK    2  A    between atoms: N_17  and  C_5 
REMARK    3  A    between atoms: C_13  and  C_8 
REMARK    4  A    between atoms: N_11  and  C_18 
REMARK    5  A    between atoms: C_20  and  N_17 
REMARK    6  A    between atoms: C_18  and  C_19 
REMARK    7  A    between atoms: C_19  and  C_20 
ROOT
ATOM      1  C   UNL d   1      14.032  13.129  -2.400  0.00  0.00     0.168 A 
ATOM      2  N   UNL d   1      13.661  13.317  -3.127  0.00  0.00    -0.184 N 
ATOM      3  N   UNL d   1      14.370  13.722  -1.951  0.00  0.00    -0.231 NA
ATOM      4  C   UNL d   1      14.055  12.363  -2.142  0.00  0.00     0.057 A 
ATOM      5  C   UNL d   1      13.650  14.088  -3.365  0.00  0.00     0.217 A 
ATOM      6  N   UNL d   1      13.354  11.964  -3.306  0.00  0.00    -0.160 NA
ATOM      7  C   UNL d   1      13.986  14.691  -2.923  0.00  0.00     0.067 A 
ATOM      8  C   UNL d   1      14.351  14.506  -2.206  0.00  0.00     0.064 A 
ATOM      9  C   UNL d   1      13.719  11.779  -2.589  0.00  0.00     0.124 A 
ENDROOT
BRANCH   5  10
ATOM     10  N   UNL d   1      13.274  14.279  -4.105  0.00  0.00    -0.380 NA
BRANCH  10  11
ATOM     11  C   UNL d   1      12.965  14.463  -4.874  0.00  0.00     0.164 C 
BRANCH  11  12
ATOM     12  C   UNL d   1      13.477  14.453  -5.541  0.00  0.00     0.054 C 
BRANCH  12  13
ATOM     13  C   UNL d   1      13.312  13.937  -6.190  0.00  0.00     0.084 C 
BRANCH  13  14
ATOM     14  N   UNL d   1      13.398  13.094  -6.091  0.00  0.00    -0.285 N 
ATOM     15  C   UNL d   1      14.111  12.656  -6.193  0.00  0.00     0.183 A 
ATOM     16  N   UNL d   1      13.938  11.840  -6.038  0.00  0.00    -0.222 NA
ATOM     17  C   UNL d   1      13.116  11.780  -5.841  0.00  0.00     0.120 A 
ATOM     18  C   UNL d   1      12.782  12.555  -5.874  0.00  0.00     0.102 A 
ENDBRANCH  13  14
ENDBRANCH  12  13
ENDBRANCH  11  12
ENDBRANCH  10  11
ENDBRANCH   5  10
BRANCH   8  19
ATOM     19  C   UNL d   1      14.706  15.122  -1.735  0.00  0.00     0.036 C 
ATOM     20  C   UNL d   1      14.365  15.327  -0.977  0.00  0.00     0.006 C 
ATOM     21  C   UNL d   1      15.052  15.729  -1.265  0.00  0.00     0.006 C 
ATOM     22  C   UNL d   1      15.395  15.528  -2.022  0.00  0.00     0.006 C 
ENDBRANCH   8  19
BRANCH   4  23
ATOM     23  C   UNL d   1      14.419  12.178  -1.425  0.00  0.00     0.004 A 
ATOM     24  C   UNL d   1      13.992  12.212  -0.747  0.00  0.00     0.000 A 
ATOM     25  C   UNL d   1      14.357  12.027  -0.030  0.00  0.00     0.000 A 
ATOM     26  C   UNL d   1      15.137  11.813  -0.015  0.00  0.00     0.000 A 
ATOM     27  C   UNL d   1      15.566  11.781  -0.709  0.00  0.00     0.000 A 
ATOM     28  C   UNL d   1      15.201  11.966  -1.426  0.00  0.00     0.000 A 
ENDBRANCH   4  23
TORSDOF 7
ENDMDL
