MODEL 1
REMARK VINA RESULT:      -7.4      0.000      0.000
REMARK  2 active torsions:
REMARK  status: ('A' for Active; 'I' for Inactive)
REMARK    1  A    between atoms: C_6  and  C_3 
REMARK    2  A    between atoms: C_13  and  C_7 
ROOT
ATOM      1  C   UNL d   1     -47.414  13.740  22.736  0.00  0.00     0.018 A 
ATOM      2  C   UNL d   1     -48.874  14.471  22.922  0.00  0.00     0.000 A 
ATOM      3  C   UNL d   1     -48.067  13.295  22.965  0.00  0.00     0.002 A 
ATOM      4  C   UNL d   1     -47.485  14.551  22.599  0.00  0.00     0.002 A 
ATOM      5  C   UNL d   1     -48.802  13.659  23.059  0.00  0.00     0.000 A 
ATOM      6  C   UNL d   1     -48.217  14.914  22.693  0.00  0.00     0.000 A 
ENDROOT
BRANCH   1   7
ATOM      7  C   UNL d   1     -46.678  13.375  22.642  0.00  0.00     0.090 A 
ATOM      8  N   UNL d   1     -46.054  13.650  22.179  0.00  0.00    -0.219 NA
ATOM      9  C   UNL d   1     -45.430  13.118  22.245  0.00  0.00     0.215 A 
ATOM     10  S   UNL d   1     -45.659  12.506  22.749  0.00  0.00    -0.045 SA
ATOM     11  N   UNL d   1     -44.696  13.180  21.872  0.00  0.00    -0.120 N 
ATOM     12  C   UNL d   1     -46.433  12.662  22.998  0.00  0.00     0.058 A 
ENDBRANCH   1   7
BRANCH   2  13
ATOM     13  C   UNL d   1     -49.608  14.838  23.016  0.00  0.00     0.000 A 
ATOM     14  C   UNL d   1     -49.685  15.458  23.554  0.00  0.00     0.000 A 
ATOM     15  C   UNL d   1     -50.409  15.819  23.645  0.00  0.00     0.000 A 
ATOM     16  C   UNL d   1     -51.064  15.572  23.206  0.00  0.00     0.000 A 
ATOM     17  C   UNL d   1     -50.980  14.955  22.673  0.00  0.00     0.000 A 
ATOM     18  C   UNL d   1     -50.251  14.587  22.577  0.00  0.00     0.000 A 
ENDBRANCH   2  13
TORSDOF 2
ENDMDL
MODEL 2
REMARK VINA RESULT:      -7.4      1.210      1.842
REMARK  2 active torsions:
REMARK  status: ('A' for Active; 'I' for Inactive)
REMARK    1  A    between atoms: C_6  and  C_3 
REMARK    2  A    between atoms: C_13  and  C_7 
ROOT
ATOM      1  C   UNL d   1     -46.757  12.526  23.233  0.00  0.00     0.018 A 
ATOM      2  C   UNL d   1     -47.849  13.738  23.026  0.00  0.00     0.000 A 
ATOM      3  C   UNL d   1     -46.498  13.305  23.177  0.00  0.00     0.002 A 
ATOM      4  C   UNL d   1     -47.563  12.348  23.187  0.00  0.00     0.002 A 
ATOM      5  C   UNL d   1     -47.043  13.916  23.073  0.00  0.00     0.000 A 
ATOM      6  C   UNL d   1     -48.105  12.956  23.084  0.00  0.00     0.000 A 
ENDROOT
BRANCH   1   7
ATOM      7  C   UNL d   1     -46.211  11.915  23.337  0.00  0.00     0.090 A 
ATOM      8  N   UNL d   1     -45.419  11.924  23.105  0.00  0.00    -0.219 NA
ATOM      9  C   UNL d   1     -45.082  11.204  23.315  0.00  0.00     0.215 A 
ATOM     10  S   UNL d   1     -45.657  10.740  23.681  0.00  0.00    -0.045 SA
ATOM     11  N   UNL d   1     -44.297  10.978  23.185  0.00  0.00    -0.120 N 
ATOM     12  C   UNL d   1     -46.359  11.177  23.696  0.00  0.00     0.058 A 
ENDBRANCH   1   7
BRANCH   2  13
ATOM     13  C   UNL d   1     -48.397  14.347  22.922  0.00  0.00     0.000 A 
ATOM     14  C   UNL d   1     -48.240  14.943  22.374  0.00  0.00     0.000 A 
ATOM     15  C   UNL d   1     -48.782  15.542  22.274  0.00  0.00     0.000 A 
ATOM     16  C   UNL d   1     -49.482  15.559  22.712  0.00  0.00     0.000 A 
ATOM     17  C   UNL d   1     -49.631  14.964  23.255  0.00  0.00     0.000 A 
ATOM     18  C   UNL d   1     -49.088  14.356  23.361  0.00  0.00     0.000 A 
ENDBRANCH   2  13
TORSDOF 2
ENDMDL
MODEL 3
REMARK VINA RESULT:      -7.2      2.197      4.338
REMARK  2 active torsions:
REMARK  status: ('A' for Active; 'I' for Inactive)
REMARK    1  A    between atoms: C_6  and  C_3 
REMARK    2  A    between atoms: C_13  and  C_7 
ROOT
ATOM      1  C   UNL d   1     -48.847  14.241  22.828  0.00  0.00     0.018 A 
ATOM      2  C   UNL d   1     -47.346  13.581  22.705  0.00  0.00     0.000 A 
ATOM      3  C   UNL d   1     -48.765  13.446  22.635  0.00  0.00     0.002 A 
ATOM      4  C   UNL d   1     -48.181  14.712  22.961  0.00  0.00     0.002 A 
ATOM      5  C   UNL d   1     -48.013  13.110  22.573  0.00  0.00     0.000 A 
ATOM      6  C   UNL d   1     -47.432  14.378  22.898  0.00  0.00     0.000 A 
ENDROOT
BRANCH   1   7
ATOM      7  C   UNL d   1     -49.600  14.576  22.890  0.00  0.00     0.090 A 
ATOM      8  N   UNL d   1     -49.820  15.189  23.396  0.00  0.00    -0.219 NA
ATOM      9  C   UNL d   1     -50.618  15.348  23.276  0.00  0.00     0.215 A 
ATOM     10  S   UNL d   1     -50.903  14.836  22.696  0.00  0.00    -0.045 SA
ATOM     11  N   UNL d   1     -51.064  15.922  23.669  0.00  0.00    -0.120 N 
ATOM     12  C   UNL d   1     -50.275  14.356  22.454  0.00  0.00     0.058 A 
ENDBRANCH   1   7
BRANCH   2  13
ATOM     13  C   UNL d   1     -46.593  13.248  22.644  0.00  0.00     0.000 A 
ATOM     14  C   UNL d   1     -46.435  12.530  23.017  0.00  0.00     0.000 A 
ATOM     15  C   UNL d   1     -45.692  12.205  22.955  0.00  0.00     0.000 A 
ATOM     16  C   UNL d   1     -45.097  12.584  22.525  0.00  0.00     0.000 A 
ATOM     17  C   UNL d   1     -45.261  13.297  22.156  0.00  0.00     0.000 A 
ATOM     18  C   UNL d   1     -46.010  13.632  22.215  0.00  0.00     0.000 A 
ENDBRANCH   2  13
TORSDOF 2
ENDMDL
MODEL 4
REMARK VINA RESULT:      -6.3      8.132      9.871
REMARK  2 active torsions:
REMARK  status: ('A' for Active; 'I' for Inactive)
REMARK    1  A    between atoms: C_6  and  C_3 
REMARK    2  A    between atoms: C_13  and  C_7 
ROOT
ATOM      1  C   UNL d   1     -39.202  14.821  17.569  0.00  0.00     0.018 A 
ATOM      2  C   UNL d   1     -40.045  15.001  18.968  0.00  0.00     0.000 A 
ATOM      3  C   UNL d   1     -38.812  15.057  18.253  0.00  0.00     0.002 A 
ATOM      4  C   UNL d   1     -40.015  14.673  17.578  0.00  0.00     0.002 A 
ATOM      5  C   UNL d   1     -39.232  15.149  18.958  0.00  0.00     0.000 A 
ATOM      6  C   UNL d   1     -40.433  14.764  18.279  0.00  0.00     0.000 A 
ENDROOT
BRANCH   1   7
ATOM      7  C   UNL d   1     -38.781  14.729  16.863  0.00  0.00     0.090 A 
ATOM      8  N   UNL d   1     -38.647  14.019  16.465  0.00  0.00    -0.219 NA
ATOM      9  C   UNL d   1     -38.204  14.183  15.791  0.00  0.00     0.215 A 
ATOM     10  S   UNL d   1     -38.059  14.994  15.762  0.00  0.00    -0.045 SA
ATOM     11  N   UNL d   1     -37.946  13.631  15.232  0.00  0.00    -0.120 N 
ATOM     12  C   UNL d   1     -38.415  15.336  16.425  0.00  0.00     0.058 A 
ENDBRANCH   1   7
BRANCH   2  13
ATOM     13  C   UNL d   1     -40.469  15.092  19.671  0.00  0.00     0.000 A 
ATOM     14  C   UNL d   1     -40.767  15.835  19.871  0.00  0.00     0.000 A 
ATOM     15  C   UNL d   1     -41.184  15.922  20.565  0.00  0.00     0.000 A 
ATOM     16  C   UNL d   1     -41.311  15.279  21.067  0.00  0.00     0.000 A 
ATOM     17  C   UNL d   1     -41.012  14.544  20.862  0.00  0.00     0.000 A 
ATOM     18  C   UNL d   1     -40.590  14.449  20.163  0.00  0.00     0.000 A 
ENDBRANCH   2  13
TORSDOF 2
ENDMDL
MODEL 5
REMARK VINA RESULT:      -6.0      7.867     10.511
REMARK  2 active torsions:
REMARK  status: ('A' for Active; 'I' for Inactive)
REMARK    1  A    between atoms: C_6  and  C_3 
REMARK    2  A    between atoms: C_13  and  C_7 
ROOT
ATOM      1  C   UNL d   1     -39.805  14.705  18.979  0.00  0.00     0.018 A 
ATOM      2  C   UNL d   1     -39.064  14.366  17.551  0.00  0.00     0.000 A 
ATOM      3  C   UNL d   1     -40.164  14.194  18.443  0.00  0.00     0.002 A 
ATOM      4  C   UNL d   1     -39.075  15.050  18.805  0.00  0.00     0.002 A 
ATOM      5  C   UNL d   1     -39.795  14.021  17.725  0.00  0.00     0.000 A 
ATOM      6  C   UNL d   1     -38.708  14.878  18.090  0.00  0.00     0.000 A 
ENDROOT
BRANCH   1   7
ATOM      7  C   UNL d   1     -40.175  14.877  19.697  0.00  0.00     0.090 A 
ATOM      8  N   UNL d   1     -40.752  15.453  19.822  0.00  0.00    -0.219 NA
ATOM      9  C   UNL d   1     -40.966  15.435  20.617  0.00  0.00     0.215 A 
ATOM     10  S   UNL d   1     -40.525  14.849  20.994  0.00  0.00    -0.045 SA
ATOM     11  N   UNL d   1     -41.527  15.920  20.981  0.00  0.00    -0.120 N 
ATOM     12  C   UNL d   1     -40.033  14.501  20.427  0.00  0.00     0.058 A 
ENDBRANCH   1   7
BRANCH   2  13
ATOM     13  C   UNL d   1     -38.692  14.196  16.833  0.00  0.00     0.000 A 
ATOM     14  C   UNL d   1     -38.326  13.464  16.731  0.00  0.00     0.000 A 
ATOM     15  C   UNL d   1     -37.960  13.298  16.023  0.00  0.00     0.000 A 
ATOM     16  C   UNL d   1     -37.952  13.852  15.410  0.00  0.00     0.000 A 
ATOM     17  C   UNL d   1     -38.317  14.577  15.519  0.00  0.00     0.000 A 
ATOM     18  C   UNL d   1     -38.689  14.750  16.232  0.00  0.00     0.000 A 
ENDBRANCH   2  13
TORSDOF 2
ENDMDL
MODEL 6
REMARK VINA RESULT:      -6.0      8.458      9.186
REMARK  2 active torsions:
REMARK  status: ('A' for Active; 'I' for Inactive)
REMARK    1  A    between atoms: C_6  and  C_3 
REMARK    2  A    between atoms: C_13  and  C_7 
ROOT
ATOM      1  C   UNL d   1     -39.478  14.592  20.920  0.00  0.00     0.018 A 
ATOM      2  C   UNL d   1     -40.038  14.890  19.403  0.00  0.00     0.000 A 
ATOM      3  C   UNL d   1     -40.288  14.604  20.778  0.00  0.00     0.002 A 
ATOM      4  C   UNL d   1     -38.942  14.728  20.306  0.00  0.00     0.002 A 
ATOM      5  C   UNL d   1     -40.573  14.754  20.018  0.00  0.00     0.000 A 
ATOM      6  C   UNL d   1     -39.226  14.876  19.549  0.00  0.00     0.000 A 
ENDROOT
BRANCH   1   7
ATOM      7  C   UNL d   1     -39.193  14.442  21.681  0.00  0.00     0.090 A 
ATOM      8  N   UNL d   1     -39.124  13.702  22.039  0.00  0.00    -0.219 NA
ATOM      9  C   UNL d   1     -38.817  13.809  22.794  0.00  0.00     0.215 A 
ATOM     10  S   UNL d   1     -38.692  14.615  22.916  0.00  0.00    -0.045 SA
ATOM     11  N   UNL d   1     -38.658  13.213  23.344  0.00  0.00    -0.120 N 
ATOM     12  C   UNL d   1     -38.924  15.011  22.227  0.00  0.00     0.058 A 
ENDBRANCH   1   7
BRANCH   2  13
ATOM     13  C   UNL d   1     -40.319  15.040  18.641  0.00  0.00     0.000 A 
ATOM     14  C   UNL d   1     -40.287  14.443  18.073  0.00  0.00     0.000 A 
ATOM     15  C   UNL d   1     -40.565  14.593  17.323  0.00  0.00     0.000 A 
ATOM     16  C   UNL d   1     -40.877  15.332  17.126  0.00  0.00     0.000 A 
ATOM     17  C   UNL d   1     -40.906  15.920  17.696  0.00  0.00     0.000 A 
ATOM     18  C   UNL d   1     -40.627  15.775  18.456  0.00  0.00     0.000 A 
ENDBRANCH   2  13
TORSDOF 2
ENDMDL
