MODEL 1
REMARK VINA RESULT:      -4.8      0.000      0.000
REMARK  3 active torsions:
REMARK  status: ('A' for Active; 'I' for Inactive)
REMARK       I    between atoms: C_2  and  N_1 
REMARK    1  A    between atoms: C_3  and  C_2 
REMARK    2  A    between atoms: S_5  and  C_3 
REMARK    3  A    between atoms: C_7  and  S_5 
ROOT
ATOM      1  C   UNL d   1      57.070  -0.454  31.633  0.00  0.00     0.125 C 
ENDROOT
BRANCH   1   2
ATOM      2  C   UNL d   1      57.420  -0.851  30.999  0.00  0.00     0.259 C 
ATOM      3  N   UNL d   1      58.005  -0.474  30.543  0.00  0.00    -0.268 N 
ATOM      4  C   UNL d   1      58.360  -0.863  29.909  0.00  0.00     0.110 A 
ATOM      5  C   UNL d   1      58.229   0.298  30.733  0.00  0.00     0.110 A 
ATOM      6  C   UNL d   1      58.940  -0.480  29.463  0.00  0.00     0.142 A 
ATOM      7  O   UNL d   1      59.164   0.291  29.653  0.00  0.00    -0.300 OA
ATOM      8  C   UNL d   1      58.809   0.679  30.287  0.00  0.00     0.142 A 
ATOM      9  O   UNL d   1      57.193  -1.625  30.811  0.00  0.00    -0.267 OA
ENDBRANCH   1   2
BRANCH   1  10
ATOM     10  S   UNL d   1      56.679  -0.887  32.207  0.00  0.00    -0.095 SA
BRANCH  10  11
ATOM     11  C   UNL d   1      56.276  -0.496  32.812  0.00  0.00     0.029 A 
ATOM     12  C   UNL d   1      56.678   0.035  33.298  0.00  0.00     0.006 A 
ATOM     13  C   UNL d   1      56.276   0.426  33.903  0.00  0.00     0.001 A 
ATOM     14  C   UNL d   1      55.471   0.285  34.021  0.00  0.00     0.000 A 
ATOM     15  C   UNL d   1      55.070  -0.246  33.534  0.00  0.00     0.001 A 
ATOM     16  C   UNL d   1      55.080   0.682  34.629  0.00  0.00     0.000 C 
ATOM     17  C   UNL d   1      55.472  -0.637  32.929  0.00  0.00     0.006 A 
ENDBRANCH  10  11
ENDBRANCH   1  10
TORSDOF 3
ENDMDL
MODEL 2
REMARK VINA RESULT:      -3.6      1.394      4.308
REMARK  3 active torsions:
REMARK  status: ('A' for Active; 'I' for Inactive)
REMARK       I    between atoms: C_2  and  N_1 
REMARK    1  A    between atoms: C_3  and  C_2 
REMARK    2  A    between atoms: S_5  and  C_3 
REMARK    3  A    between atoms: C_7  and  S_5 
ROOT
ATOM      1  C   UNL d   1      57.604  -0.417  31.024  0.00  0.00     0.125 C 
ENDROOT
BRANCH   1   2
ATOM      2  C   UNL d   1      57.064  -0.817  31.503  0.00  0.00     0.259 C 
ATOM      3  N   UNL d   1      56.771  -0.457  32.193  0.00  0.00    -0.268 N 
ATOM      4  C   UNL d   1      56.232  -0.849  32.678  0.00  0.00     0.110 A 
ATOM      5  C   UNL d   1      57.028   0.303  32.391  0.00  0.00     0.110 A 
ATOM      6  C   UNL d   1      55.948  -0.482  33.361  0.00  0.00     0.142 A 
ATOM      7  O   UNL d   1      56.204   0.276  33.558  0.00  0.00    -0.300 OA
ATOM      8  C   UNL d   1      56.744   0.668  33.074  0.00  0.00     0.142 A 
ATOM      9  O   UNL d   1      56.808  -1.580  31.302  0.00  0.00    -0.267 OA
ENDBRANCH   1   2
BRANCH   1  10
ATOM     10  S   UNL d   1      57.849  -0.763  30.324  0.00  0.00    -0.095 SA
BRANCH  10  11
ATOM     11  C   UNL d   1      58.433  -0.399  29.869  0.00  0.00     0.029 A 
ATOM     12  C   UNL d   1      59.180  -0.743  29.806  0.00  0.00     0.006 A 
ATOM     13  C   UNL d   1      59.764  -0.379  29.350  0.00  0.00     0.001 A 
ATOM     14  C   UNL d   1      59.599   0.328  28.958  0.00  0.00     0.000 A 
ATOM     15  C   UNL d   1      58.853   0.671  29.022  0.00  0.00     0.001 A 
ATOM     16  C   UNL d   1      60.192   0.682  28.506  0.00  0.00     0.000 C 
ATOM     17  C   UNL d   1      58.269   0.307  29.477  0.00  0.00     0.006 A 
ENDBRANCH  10  11
ENDBRANCH   1  10
TORSDOF 3
ENDMDL
MODEL 3
REMARK VINA RESULT:      -3.3      9.011      9.895
REMARK  3 active torsions:
REMARK  status: ('A' for Active; 'I' for Inactive)
REMARK       I    between atoms: C_2  and  N_1 
REMARK    1  A    between atoms: C_3  and  C_2 
REMARK    2  A    between atoms: S_5  and  C_3 
REMARK    3  A    between atoms: C_7  and  S_5 
ROOT
ATOM      1  C   UNL d   1      59.475  -9.080  33.992  0.00  0.00     0.125 C 
ENDROOT
BRANCH   1   2
ATOM      2  C   UNL d   1      60.084  -8.977  34.539  0.00  0.00     0.259 C 
ATOM      3  N   UNL d   1      60.025  -8.388  35.124  0.00  0.00    -0.268 N 
ATOM      4  C   UNL d   1      60.628  -8.277  35.674  0.00  0.00     0.110 A 
ATOM      5  C   UNL d   1      59.351  -7.911  35.148  0.00  0.00     0.110 A 
ATOM      6  C   UNL d   1      60.559  -7.690  36.250  0.00  0.00     0.142 A 
ATOM      7  O   UNL d   1      59.886  -7.214  36.274  0.00  0.00    -0.300 OA
ATOM      8  C   UNL d   1      59.283  -7.325  35.724  0.00  0.00     0.142 A 
ATOM      9  O   UNL d   1      60.759  -9.457  34.512  0.00  0.00    -0.267 OA
ENDBRANCH   1   2
BRANCH   1  10
ATOM     10  S   UNL d   1      59.476  -9.745  33.515  0.00  0.00    -0.095 SA
BRANCH  10  11
ATOM     11  C   UNL d   1      59.009  -9.763  32.835  0.00  0.00     0.029 A 
ATOM     12  C   UNL d   1      59.365  -9.800  32.091  0.00  0.00     0.006 A 
ATOM     13  C   UNL d   1      58.898  -9.818  31.412  0.00  0.00     0.001 A 
ATOM     14  C   UNL d   1      58.075  -9.799  31.476  0.00  0.00     0.000 A 
ATOM     15  C   UNL d   1      57.720  -9.763  32.220  0.00  0.00     0.001 A 
ATOM     16  C   UNL d   1      57.620  -9.818  30.789  0.00  0.00     0.000 C 
ATOM     17  C   UNL d   1      58.187  -9.745  32.899  0.00  0.00     0.006 A 
ENDBRANCH  10  11
ENDBRANCH   1  10
TORSDOF 3
ENDMDL
MODEL 4
REMARK VINA RESULT:      -3.0      1.913      4.409
REMARK  3 active torsions:
REMARK  status: ('A' for Active; 'I' for Inactive)
REMARK       I    between atoms: C_2  and  N_1 
REMARK    1  A    between atoms: C_3  and  C_2 
REMARK    2  A    between atoms: S_5  and  C_3 
REMARK    3  A    between atoms: C_7  and  S_5 
ROOT
ATOM      1  C   UNL d   1      57.088   0.402  32.571  0.00  0.00     0.125 C 
ENDROOT
BRANCH   1   2
ATOM      2  C   UNL d   1      56.959   0.520  33.377  0.00  0.00     0.259 C 
ATOM      3  N   UNL d   1      56.182   0.543  33.676  0.00  0.00    -0.268 N 
ATOM      4  C   UNL d   1      56.043   0.661  34.480  0.00  0.00     0.110 A 
ATOM      5  C   UNL d   1      55.547   0.446  33.157  0.00  0.00     0.110 A 
ATOM      6  C   UNL d   1      55.269   0.681  34.767  0.00  0.00     0.142 A 
ATOM      7  O   UNL d   1      54.635   0.584  34.248  0.00  0.00    -0.300 OA
ATOM      8  C   UNL d   1      54.774   0.467  33.444  0.00  0.00     0.142 A 
ATOM      9  O   UNL d   1      57.597   0.618  33.896  0.00  0.00    -0.267 OA
ENDBRANCH   1   2
BRANCH   1  10
ATOM     10  S   UNL d   1      57.779   0.681  32.233  0.00  0.00    -0.095 SA
BRANCH  10  11
ATOM     11  C   UNL d   1      58.002   0.423  31.482  0.00  0.00     0.029 A 
ATOM     12  C   UNL d   1      57.515  -0.095  31.063  0.00  0.00     0.006 A 
ATOM     13  C   UNL d   1      57.738  -0.354  30.312  0.00  0.00     0.001 A 
ATOM     14  C   UNL d   1      58.449  -0.095  29.981  0.00  0.00     0.000 A 
ATOM     15  C   UNL d   1      58.935   0.423  30.400  0.00  0.00     0.001 A 
ATOM     16  C   UNL d   1      58.660  -0.361  29.230  0.00  0.00     0.000 C 
ATOM     17  C   UNL d   1      58.711   0.682  31.151  0.00  0.00     0.006 A 
ENDBRANCH  10  11
ENDBRANCH   1  10
TORSDOF 3
ENDMDL
MODEL 5
REMARK VINA RESULT:      -2.3      9.700      9.914
REMARK  3 active torsions:
REMARK  status: ('A' for Active; 'I' for Inactive)
REMARK       I    between atoms: C_2  and  N_1 
REMARK    1  A    between atoms: C_3  and  C_2 
REMARK    2  A    between atoms: S_5  and  C_3 
REMARK    3  A    between atoms: C_7  and  S_5 
ROOT
ATOM      1  C   UNL d   1      58.391  -9.818  31.646  0.00  0.00     0.125 C 
ENDROOT
BRANCH   1   2
ATOM      2  C   UNL d   1      57.703  -9.812  31.189  0.00  0.00     0.259 C 
ATOM      3  N   UNL d   1      57.754  -9.811  30.359  0.00  0.00    -0.268 N 
ATOM      4  C   UNL d   1      57.073  -9.804  29.895  0.00  0.00     0.110 A 
ATOM      5  C   UNL d   1      58.498  -9.817  30.000  0.00  0.00     0.110 A 
ATOM      6  C   UNL d   1      57.134  -9.804  29.071  0.00  0.00     0.142 A 
ATOM      7  O   UNL d   1      57.877  -9.809  28.714  0.00  0.00    -0.300 OA
ATOM      8  C   UNL d   1      58.558  -9.816  29.178  0.00  0.00     0.142 A 
ATOM      9  O   UNL d   1      56.958  -9.806  31.552  0.00  0.00    -0.267 OA
ENDBRANCH   1   2
BRANCH   1  10
ATOM     10  S   UNL d   1      58.332  -9.719  32.456  0.00  0.00    -0.095 SA
BRANCH  10  11
ATOM     11  C   UNL d   1      59.017  -9.653  32.912  0.00  0.00     0.029 A 
ATOM     12  C   UNL d   1      58.960  -9.494  33.719  0.00  0.00     0.006 A 
ATOM     13  C   UNL d   1      59.644  -9.429  34.175  0.00  0.00     0.001 A 
ATOM     14  C   UNL d   1      60.385  -9.522  33.823  0.00  0.00     0.000 A 
ATOM     15  C   UNL d   1      60.441  -9.680  33.016  0.00  0.00     0.001 A 
ATOM     16  C   UNL d   1      61.061  -9.454  34.290  0.00  0.00     0.000 C 
ATOM     17  C   UNL d   1      59.756  -9.746  32.560  0.00  0.00     0.006 A 
ENDBRANCH  10  11
ENDBRANCH   1  10
TORSDOF 3
ENDMDL
MODEL 6
REMARK VINA RESULT:      -2.1      9.501      9.855
REMARK  3 active torsions:
REMARK  status: ('A' for Active; 'I' for Inactive)
REMARK       I    between atoms: C_2  and  N_1 
REMARK    1  A    between atoms: C_3  and  C_2 
REMARK    2  A    between atoms: S_5  and  C_3 
REMARK    3  A    between atoms: C_7  and  S_5 
ROOT
ATOM      1  C   UNL d   1      59.556  -9.716  33.042  0.00  0.00     0.125 C 
ENDROOT
BRANCH   1   2
ATOM      2  C   UNL d   1      59.017  -9.759  32.418  0.00  0.00     0.259 C 
ATOM      3  N   UNL d   1      59.290  -9.768  31.631  0.00  0.00    -0.268 N 
ATOM      4  C   UNL d   1      58.760  -9.810  31.002  0.00  0.00     0.110 A 
ATOM      5  C   UNL d   1      60.102  -9.733  31.486  0.00  0.00     0.110 A 
ATOM      6  C   UNL d   1      59.041  -9.818  30.226  0.00  0.00     0.142 A 
ATOM      7  O   UNL d   1      59.852  -9.783  30.081  0.00  0.00    -0.300 OA
ATOM      8  C   UNL d   1      60.382  -9.741  30.710  0.00  0.00     0.142 A 
ATOM      9  O   UNL d   1      58.203  -9.794  32.567  0.00  0.00    -0.267 OA
ENDBRANCH   1   2
BRANCH   1  10
ATOM     10  S   UNL d   1      59.285  -9.811  33.808  0.00  0.00    -0.095 SA
BRANCH  10  11
ATOM     11  C   UNL d   1      59.695  -9.462  34.434  0.00  0.00     0.029 A 
ATOM     12  C   UNL d   1      59.417  -8.761  34.768  0.00  0.00     0.006 A 
ATOM     13  C   UNL d   1      59.827  -8.412  35.394  0.00  0.00     0.001 A 
ATOM     14  C   UNL d   1      60.514  -8.765  35.684  0.00  0.00     0.000 A 
ATOM     15  C   UNL d   1      60.791  -9.466  35.350  0.00  0.00     0.001 A 
ATOM     16  C   UNL d   1      60.914  -8.406  36.310  0.00  0.00     0.000 C 
ATOM     17  C   UNL d   1      60.381  -9.815  34.724  0.00  0.00     0.006 A 
ENDBRANCH  10  11
ENDBRANCH   1  10
TORSDOF 3
ENDMDL
