MODEL 1
REMARK VINA RESULT:      73.9      0.000      0.000
REMARK  6 active torsions:
REMARK  status: ('A' for Active; 'I' for Inactive)
REMARK    1  A    between atoms: C_13  and  C_4 
REMARK    2  A    between atoms: C_20  and  C_7 
REMARK    3  A    between atoms: C_8  and  C_12 
REMARK       I    between atoms: N_9  and  C_8 
REMARK    4  A    between atoms: C_11  and  N_9 
REMARK       I    between atoms: C_12  and  N_19 
REMARK    5  A    between atoms: N_19  and  C_23 
REMARK    6  A    between atoms: C_23  and  C_20 
ROOT
ATOM      1  C   UNL d   1     -55.083-101.745 -41.025  0.00  0.00     0.041 C 
ENDROOT
BRANCH   1   2
ATOM      2  C   UNL d   1     -55.065-101.883 -41.838  0.00  0.00     0.093 A 
ATOM      3  N   UNL d   1     -55.394-101.407 -42.421  0.00  0.00    -0.205 N 
ATOM      4  C   UNL d   1     -55.247-101.750 -43.159  0.00  0.00     0.197 A 
ATOM      5  N   UNL d   1     -55.821-100.704 -42.551  0.00  0.00    -0.144 NA
ATOM      6  N   UNL d   1     -55.581-101.265 -43.739  0.00  0.00    -0.200 NA
ATOM      7  S   UNL d   1     -54.824-102.446 -43.030  0.00  0.00    -0.046 SA
ATOM      8  C   UNL d   1     -55.935-100.621 -43.367  0.00  0.00     0.184 A 
ATOM      9  C   UNL d   1     -54.711-102.528 -42.214  0.00  0.00     0.058 A 
BRANCH   8  10
ATOM     10  C   UNL d   1     -56.331-100.004 -43.744  0.00  0.00     0.038 A 
ATOM     11  C   UNL d   1     -55.924 -99.507 -44.256  0.00  0.00     0.003 A 
ATOM     12  C   UNL d   1     -55.124 -99.626 -44.393  0.00  0.00     0.000 C 
ATOM     13  C   UNL d   1     -56.323 -98.887 -44.634  0.00  0.00     0.000 A 
ATOM     14  C   UNL d   1     -57.132 -98.774 -44.489  0.00  0.00     0.000 A 
ATOM     15  C   UNL d   1     -57.539 -99.271 -43.977  0.00  0.00     0.000 A 
ATOM     16  C   UNL d   1     -57.139 -99.891 -43.599  0.00  0.00     0.003 A 
ENDBRANCH   8  10
ENDBRANCH   1   2
BRANCH   1  17
ATOM     17  C   UNL d   1     -55.066-102.377 -40.498  0.00  0.00     0.104 C 
BRANCH  17  18
ATOM     18  N   UNL d   1     -55.035-102.239 -39.694  0.00  0.00    -0.202 NA
ATOM     19  C   UNL d   1     -55.041-101.468 -39.407  0.00  0.00     0.337 C 
ATOM     20  O   UNL d   1     -55.078-100.835 -39.934  0.00  0.00    -0.260 OA
BRANCH  19  21
ATOM     21  C   UNL d   1     -55.009-101.330 -38.602  0.00  0.00     0.337 C 
ATOM     22  N   UNL d   1     -55.119-101.948 -38.060  0.00  0.00    -0.204 NA
ATOM     23  O   UNL d   1     -54.864-100.556 -38.314  0.00  0.00    -0.260 OA
BRANCH  22  24
ATOM     24  C   UNL d   1     -55.088-101.809 -37.248  0.00  0.00     0.085 A 
ATOM     25  C   UNL d   1     -54.892-101.048 -36.968  0.00  0.00     0.018 A 
ATOM     26  C   UNL d   1     -54.855-100.887 -36.171  0.00  0.00     0.002 A 
ATOM     27  C   UNL d   1     -54.732-100.444 -37.501  0.00  0.00     0.002 C 
ATOM     28  C   UNL d   1     -55.016-101.496 -35.617  0.00  0.00     0.000 A 
ATOM     29  C   UNL d   1     -55.213-102.265 -35.899  0.00  0.00     0.002 A 
ATOM     30  C   UNL d   1     -55.246-102.410 -36.720  0.00  0.00     0.019 A 
ATOM     31  C   UNL d   1     -55.372-102.866 -35.368  0.00  0.00     0.000 C 
ENDBRANCH  22  24
ENDBRANCH  19  21
ENDBRANCH  17  18
ENDBRANCH   1  17
TORSDOF 6
ENDMDL
