MODEL 1
REMARK VINA RESULT:      -6.7      0.000      0.000
REMARK  4 active torsions:
REMARK  status: ('A' for Active; 'I' for Inactive)
REMARK    1  A    between atoms: N_7  and  C_1 
REMARK    2  A    between atoms: C_8  and  C_4 
REMARK    3  A    between atoms: C_10  and  N_7 
REMARK    4  A    between atoms: C_12  and  C_8 
ROOT
ATOM      1  C   UNL d   1     -48.263  12.634  23.457  0.00  0.00     0.184 A 
ATOM      2  N   UNL d   1     -48.412  13.440  23.323  0.00  0.00    -0.129 NA
ATOM      3  N   UNL d   1     -49.190  13.707  23.245  0.00  0.00    -0.147 NA
ATOM      4  C   UNL d   1     -49.815  13.184  23.299  0.00  0.00     0.103 A 
ATOM      5  C   UNL d   1     -48.897  12.114  23.510  0.00  0.00     0.039 A 
ATOM      6  C   UNL d   1     -49.676  12.382  23.432  0.00  0.00     0.022 A 
ATOM      7  C   UNL d   1     -48.739  11.305  23.645  0.00  0.00     0.003 A 
ATOM      8  C   UNL d   1     -50.305  11.844  23.488  0.00  0.00     0.002 A 
ATOM      9  C   UNL d   1     -50.152  11.053  23.620  0.00  0.00     0.000 A 
ATOM     10  C   UNL d   1     -49.373  10.785  23.698  0.00  0.00     0.000 A 
ENDROOT
BRANCH   1  11
ATOM     11  N   UNL d   1     -47.494  12.369  23.534  0.00  0.00    -0.225 NA
BRANCH  11  12
ATOM     12  C   UNL d   1     -46.889  12.731  23.121  0.00  0.00     0.083 A 
ATOM     13  C   UNL d   1     -46.442  13.324  23.474  0.00  0.00     0.020 A 
ATOM     14  C   UNL d   1     -45.840  13.682  23.060  0.00  0.00     0.013 A 
ATOM     15  C   UNL d   1     -45.666  13.465  22.288  0.00  0.00     0.058 A 
ATOM     16  C   UNL d   1     -46.116  12.869  21.933  0.00  0.00     0.013 A 
ATOM     17 CL   UNL d   1     -45.073  13.813  21.867  0.00  0.00    -0.082 Cl
ATOM     18  C   UNL d   1     -46.729  12.499  22.346  0.00  0.00     0.020 A 
ENDBRANCH  11  12
ENDBRANCH   1  11
BRANCH   4  19
ATOM     19  C   UNL d   1     -50.593  13.452  23.221  0.00  0.00     0.021 C 
BRANCH  19  20
ATOM     20  C   UNL d   1     -50.741  14.255  23.073  0.00  0.00     0.005 A 
ATOM     21  C   UNL d   1     -50.857  14.512  22.307  0.00  0.00     0.021 A 
ATOM     22  C   UNL d   1     -51.002  15.308  22.165  0.00  0.00     0.099 A 
ATOM     23  N   UNL d   1     -51.031  15.840  22.791  0.00  0.00    -0.242 NA
ATOM     24  C   UNL d   1     -50.914  15.579  23.561  0.00  0.00     0.099 A 
ATOM     25  C   UNL d   1     -50.767  14.774  23.697  0.00  0.00     0.021 A 
ENDBRANCH  19  20
ENDBRANCH   4  19
TORSDOF 4
ENDMDL
MODEL 2
REMARK VINA RESULT:      -5.8      9.075     10.582
REMARK  4 active torsions:
REMARK  status: ('A' for Active; 'I' for Inactive)
REMARK    1  A    between atoms: N_7  and  C_1 
REMARK    2  A    between atoms: C_8  and  C_4 
REMARK    3  A    between atoms: C_10  and  N_7 
REMARK    4  A    between atoms: C_12  and  C_8 
ROOT
ATOM      1  C   UNL d   1     -39.502  14.854  19.292  0.00  0.00     0.184 A 
ATOM      2  N   UNL d   1     -38.904  14.484  19.734  0.00  0.00    -0.129 NA
ATOM      3  N   UNL d   1     -38.950  14.471  20.559  0.00  0.00    -0.147 NA
ATOM      4  C   UNL d   1     -39.581  14.819  20.944  0.00  0.00     0.103 A 
ATOM      5  C   UNL d   1     -40.133  15.202  19.687  0.00  0.00     0.039 A 
ATOM      6  C   UNL d   1     -40.179  15.189  20.513  0.00  0.00     0.022 A 
ATOM      7  C   UNL d   1     -40.730  15.572  19.235  0.00  0.00     0.003 A 
ATOM      8  C   UNL d   1     -40.824  15.545  20.896  0.00  0.00     0.002 A 
ATOM      9  C   UNL d   1     -41.408  15.907  20.455  0.00  0.00     0.000 A 
ATOM     10  C   UNL d   1     -41.361  15.920  19.629  0.00  0.00     0.000 A 
ENDROOT
BRANCH   1  11
ATOM     11  N   UNL d   1     -39.456  14.867  18.476  0.00  0.00    -0.225 NA
BRANCH  11  12
ATOM     12  C   UNL d   1     -39.081  14.263  18.074  0.00  0.00     0.083 A 
ATOM     13  C   UNL d   1     -39.430  13.520  18.020  0.00  0.00     0.020 A 
ATOM     14  C   UNL d   1     -39.054  12.921  17.618  0.00  0.00     0.013 A 
ATOM     15  C   UNL d   1     -38.325  13.040  17.261  0.00  0.00     0.058 A 
ATOM     16  C   UNL d   1     -37.974  13.786  17.316  0.00  0.00     0.013 A 
ATOM     17 CL   UNL d   1     -37.942  12.454  16.861  0.00  0.00    -0.082 Cl
ATOM     18  C   UNL d   1     -38.348  14.401  17.722  0.00  0.00     0.020 A 
ENDBRANCH  11  12
ENDBRANCH   1  11
BRANCH   4  19
ATOM     19  C   UNL d   1     -39.627  14.806  21.770  0.00  0.00     0.021 C 
BRANCH  19  20
ATOM     20  C   UNL d   1     -39.093  14.345  22.206  0.00  0.00     0.005 A 
ATOM     21  C   UNL d   1     -39.186  13.534  22.234  0.00  0.00     0.021 A 
ATOM     22  C   UNL d   1     -38.654  13.082  22.667  0.00  0.00     0.099 A 
ATOM     23  N   UNL d   1     -38.034  13.444  23.068  0.00  0.00    -0.242 NA
ATOM     24  C   UNL d   1     -37.943  14.260  23.038  0.00  0.00     0.099 A 
ATOM     25  C   UNL d   1     -38.483  14.711  22.598  0.00  0.00     0.021 A 
ENDBRANCH  19  20
ENDBRANCH   4  19
TORSDOF 4
ENDMDL
MODEL 3
REMARK VINA RESULT:      -5.6      1.683      4.184
REMARK  4 active torsions:
REMARK  status: ('A' for Active; 'I' for Inactive)
REMARK    1  A    between atoms: N_7  and  C_1 
REMARK    2  A    between atoms: C_8  and  C_4 
REMARK    3  A    between atoms: C_10  and  N_7 
REMARK    4  A    between atoms: C_12  and  C_8 
ROOT
ATOM      1  C   UNL d   1     -48.741  13.008  22.590  0.00  0.00     0.184 A 
ATOM      2  N   UNL d   1     -48.150  13.565  22.416  0.00  0.00    -0.129 NA
ATOM      3  N   UNL d   1     -47.364  13.407  22.614  0.00  0.00    -0.147 NA
ATOM      4  C   UNL d   1     -47.162  12.706  22.981  0.00  0.00     0.103 A 
ATOM      5  C   UNL d   1     -48.530  12.304  22.958  0.00  0.00     0.039 A 
ATOM      6  C   UNL d   1     -47.743  12.146  23.157  0.00  0.00     0.022 A 
ATOM      7  C   UNL d   1     -49.130  11.749  23.129  0.00  0.00     0.003 A 
ATOM      8  C   UNL d   1     -47.547  11.431  23.529  0.00  0.00     0.002 A 
ATOM      9  C   UNL d   1     -48.132  10.887  23.697  0.00  0.00     0.000 A 
ATOM     10  C   UNL d   1     -48.919  11.046  23.498  0.00  0.00     0.000 A 
ENDROOT
BRANCH   1  11
ATOM     11  N   UNL d   1     -49.518  13.164  22.393  0.00  0.00    -0.225 NA
BRANCH  11  12
ATOM     12  C   UNL d   1     -49.877  13.854  22.645  0.00  0.00     0.083 A 
ATOM     13  C   UNL d   1     -49.795  14.547  22.211  0.00  0.00     0.020 A 
ATOM     14  C   UNL d   1     -50.153  15.232  22.465  0.00  0.00     0.013 A 
ATOM     15  C   UNL d   1     -50.602  15.249  23.151  0.00  0.00     0.058 A 
ATOM     16  C   UNL d   1     -50.685  14.551  23.587  0.00  0.00     0.013 A 
ATOM     17 CL   UNL d   1     -50.962  15.921  23.413  0.00  0.00    -0.082 Cl
ATOM     18  C   UNL d   1     -50.324  13.851  23.338  0.00  0.00     0.020 A 
ENDBRANCH  11  12
ENDBRANCH   1  11
BRANCH   4  19
ATOM     19  C   UNL d   1     -46.375  12.547  23.180  0.00  0.00     0.021 C 
BRANCH  19  20
ATOM     20  C   UNL d   1     -45.761  12.879  22.730  0.00  0.00     0.005 A 
ATOM     21  C   UNL d   1     -45.235  12.391  22.341  0.00  0.00     0.021 A 
ATOM     22  C   UNL d   1     -44.629  12.724  21.898  0.00  0.00     0.099 A 
ATOM     23  N   UNL d   1     -44.554  13.541  21.847  0.00  0.00    -0.242 NA
ATOM     24  C   UNL d   1     -45.085  14.029  22.239  0.00  0.00     0.099 A 
ATOM     25  C   UNL d   1     -45.696  13.687  22.686  0.00  0.00     0.021 A 
ENDBRANCH  19  20
ENDBRANCH   4  19
TORSDOF 4
ENDMDL
MODEL 4
REMARK VINA RESULT:      -4.9      2.084      4.827
REMARK  4 active torsions:
REMARK  status: ('A' for Active; 'I' for Inactive)
REMARK    1  A    between atoms: N_7  and  C_1 
REMARK    2  A    between atoms: C_8  and  C_4 
REMARK    3  A    between atoms: C_10  and  N_7 
REMARK    4  A    between atoms: C_12  and  C_8 
ROOT
ATOM      1  C   UNL d   1     -48.324  13.484  22.258  0.00  0.00     0.184 A 
ATOM      2  N   UNL d   1     -47.857  12.806  22.371  0.00  0.00    -0.129 NA
ATOM      3  N   UNL d   1     -47.062  12.884  22.582  0.00  0.00    -0.147 NA
ATOM      4  C   UNL d   1     -46.731  13.624  22.682  0.00  0.00     0.103 A 
ATOM      5  C   UNL d   1     -47.983  14.224  22.360  0.00  0.00     0.039 A 
ATOM      6  C   UNL d   1     -47.188  14.303  22.572  0.00  0.00     0.022 A 
ATOM      7  C   UNL d   1     -48.460  14.901  22.244  0.00  0.00     0.003 A 
ATOM      8  C   UNL d   1     -46.859  15.059  22.671  0.00  0.00     0.002 A 
ATOM      9  C   UNL d   1     -47.324  15.720  22.558  0.00  0.00     0.000 A 
ATOM     10  C   UNL d   1     -48.119  15.642  22.346  0.00  0.00     0.000 A 
ENDROOT
BRANCH   1  11
ATOM     11  N   UNL d   1     -49.109  13.406  22.048  0.00  0.00    -0.225 NA
BRANCH  11  12
ATOM     12  C   UNL d   1     -49.597  12.894  22.457  0.00  0.00     0.083 A 
ATOM     13  C   UNL d   1     -49.886  12.216  22.092  0.00  0.00     0.020 A 
ATOM     14  C   UNL d   1     -50.372  11.708  22.503  0.00  0.00     0.013 A 
ATOM     15  C   UNL d   1     -50.583  11.856  23.281  0.00  0.00     0.058 A 
ATOM     16  C   UNL d   1     -50.292  12.538  23.648  0.00  0.00     0.013 A 
ATOM     17 CL   UNL d   1     -51.064  11.360  23.698  0.00  0.00    -0.082 Cl
ATOM     18  C   UNL d   1     -49.799  13.060  23.239  0.00  0.00     0.020 A 
ENDBRANCH  11  12
ENDBRANCH   1  11
BRANCH   4  19
ATOM     19  C   UNL d   1     -45.936  13.703  22.894  0.00  0.00     0.021 C 
BRANCH  19  20
ATOM     20  C   UNL d   1     -45.375  13.166  22.600  0.00  0.00     0.005 A 
ATOM     21  C   UNL d   1     -45.258  12.453  22.980  0.00  0.00     0.021 A 
ATOM     22  C   UNL d   1     -44.702  11.925  22.685  0.00  0.00     0.099 A 
ATOM     23  N   UNL d   1     -44.268  12.114  22.013  0.00  0.00    -0.242 NA
ATOM     24  C   UNL d   1     -44.388  12.833  21.633  0.00  0.00     0.099 A 
ATOM     25  C   UNL d   1     -44.951  13.362  21.936  0.00  0.00     0.021 A 
ENDBRANCH  19  20
ENDBRANCH   4  19
TORSDOF 4
ENDMDL
MODEL 5
REMARK VINA RESULT:      -4.7      9.677     10.761
REMARK  4 active torsions:
REMARK  status: ('A' for Active; 'I' for Inactive)
REMARK    1  A    between atoms: N_7  and  C_1 
REMARK    2  A    between atoms: C_8  and  C_4 
REMARK    3  A    between atoms: C_10  and  N_7 
REMARK    4  A    between atoms: C_12  and  C_8 
ROOT
ATOM      1  C   UNL d   1     -38.402  13.499  19.667  0.00  0.00     0.184 A 
ATOM      2  N   UNL d   1     -38.779  14.229  19.547  0.00  0.00    -0.129 NA
ATOM      3  N   UNL d   1     -39.105  14.409  18.810  0.00  0.00    -0.147 NA
ATOM      4  C   UNL d   1     -39.060  13.872  18.196  0.00  0.00     0.103 A 
ATOM      5  C   UNL d   1     -38.361  12.964  19.044  0.00  0.00     0.039 A 
ATOM      6  C   UNL d   1     -38.688  13.144  18.305  0.00  0.00     0.022 A 
ATOM      7  C   UNL d   1     -37.980  12.232  19.172  0.00  0.00     0.003 A 
ATOM      8  C   UNL d   1     -38.638  12.593  17.687  0.00  0.00     0.002 A 
ATOM      9  C   UNL d   1     -38.266  11.877  17.811  0.00  0.00     0.000 A 
ATOM     10  C   UNL d   1     -37.940  11.697  18.549  0.00  0.00     0.000 A 
ENDROOT
BRANCH   1  11
ATOM     11  N   UNL d   1     -38.079  13.321  20.396  0.00  0.00    -0.225 NA
BRANCH  11  12
ATOM     12  C   UNL d   1     -38.391  13.649  21.076  0.00  0.00     0.083 A 
ATOM     13  C   UNL d   1     -38.176  14.407  21.309  0.00  0.00     0.020 A 
ATOM     14  C   UNL d   1     -38.489  14.730  21.987  0.00  0.00     0.013 A 
ATOM     15  C   UNL d   1     -39.021  14.313  22.452  0.00  0.00     0.058 A 
ATOM     16  C   UNL d   1     -39.237  13.550  22.218  0.00  0.00     0.013 A 
ATOM     17 CL   UNL d   1     -39.337  14.622  23.125  0.00  0.00    -0.082 Cl
ATOM     18  C   UNL d   1     -38.925  13.213  21.530  0.00  0.00     0.020 A 
ENDBRANCH  11  12
ENDBRANCH   1  11
BRANCH   4  19
ATOM     19  C   UNL d   1     -39.386  14.052  17.458  0.00  0.00     0.021 C 
BRANCH  19  20
ATOM     20  C   UNL d   1     -39.977  14.632  17.397  0.00  0.00     0.005 A 
ATOM     21  C   UNL d   1     -40.719  14.488  17.706  0.00  0.00     0.021 A 
ATOM     22  C   UNL d   1     -41.301  15.064  17.644  0.00  0.00     0.099 A 
ATOM     23  N   UNL d   1     -41.136  15.780  17.274  0.00  0.00    -0.242 NA
ATOM     24  C   UNL d   1     -40.388  15.922  16.965  0.00  0.00     0.099 A 
ATOM     25  C   UNL d   1     -39.805  15.335  17.030  0.00  0.00     0.021 A 
ENDBRANCH  19  20
ENDBRANCH   4  19
TORSDOF 4
ENDMDL
MODEL 6
REMARK VINA RESULT:      -3.9      1.755      2.348
REMARK  4 active torsions:
REMARK  status: ('A' for Active; 'I' for Inactive)
REMARK    1  A    between atoms: N_7  and  C_1 
REMARK    2  A    between atoms: C_8  and  C_4 
REMARK    3  A    between atoms: C_10  and  N_7 
REMARK    4  A    between atoms: C_12  and  C_8 
ROOT
ATOM      1  C   UNL d   1     -46.082  12.326  23.134  0.00  0.00     0.184 A 
ATOM      2  N   UNL d   1     -46.130  13.146  23.009  0.00  0.00    -0.129 NA
ATOM      3  N   UNL d   1     -46.859  13.530  23.073  0.00  0.00    -0.147 NA
ATOM      4  C   UNL d   1     -47.534  13.110  23.259  0.00  0.00     0.103 A 
ATOM      5  C   UNL d   1     -46.766  11.910  23.322  0.00  0.00     0.039 A 
ATOM      6  C   UNL d   1     -47.495  12.295  23.386  0.00  0.00     0.022 A 
ATOM      7  C   UNL d   1     -46.709  11.086  23.446  0.00  0.00     0.003 A 
ATOM      8  C   UNL d   1     -48.176  11.860  23.576  0.00  0.00     0.002 A 
ATOM      9  C   UNL d   1     -48.122  11.055  23.698  0.00  0.00     0.000 A 
ATOM     10  C   UNL d   1     -47.393  10.670  23.634  0.00  0.00     0.000 A 
ENDROOT
BRANCH   1  11
ATOM     11  N   UNL d   1     -45.362  11.946  23.071  0.00  0.00    -0.225 NA
BRANCH  11  12
ATOM     12  C   UNL d   1     -44.791  12.225  22.557  0.00  0.00     0.083 A 
ATOM     13  C   UNL d   1     -44.029  11.918  22.575  0.00  0.00     0.020 A 
ATOM     14  C   UNL d   1     -43.464  12.199  22.063  0.00  0.00     0.013 A 
ATOM     15  C   UNL d   1     -43.636  12.789  21.520  0.00  0.00     0.058 A 
ATOM     16  C   UNL d   1     -44.403  13.099  21.501  0.00  0.00     0.013 A 
ATOM     17 CL   UNL d   1     -43.084  13.076  21.007  0.00  0.00    -0.082 Cl
ATOM     18  C   UNL d   1     -44.984  12.820  22.018  0.00  0.00     0.020 A 
ENDBRANCH  11  12
ENDBRANCH   1  11
BRANCH   4  19
ATOM     19  C   UNL d   1     -48.263  13.495  23.324  0.00  0.00     0.021 C 
BRANCH  19  20
ATOM     20  C   UNL d   1     -48.468  14.084  22.777  0.00  0.00     0.005 A 
ATOM     21  C   UNL d   1     -48.329  14.869  22.956  0.00  0.00     0.021 A 
ATOM     22  C   UNL d   1     -48.534  15.449  22.412  0.00  0.00     0.099 A 
ATOM     23  N   UNL d   1     -48.876  15.240  21.694  0.00  0.00    -0.242 NA
ATOM     24  C   UNL d   1     -49.015  14.450  21.517  0.00  0.00     0.099 A 
ATOM     25  C   UNL d   1     -48.805  13.868  22.071  0.00  0.00     0.021 A 
ENDBRANCH  19  20
ENDBRANCH   4  19
TORSDOF 4
ENDMDL
