MODEL 1
REMARK VINA RESULT:      -9.5      0.000      0.000
REMARK  5 active torsions:
REMARK  status: ('A' for Active; 'I' for Inactive)
REMARK    1  A    between atoms: C_2  and  S_1 
REMARK    2  A    between atoms: N_4  and  S_1 
REMARK    3  A    between atoms: C_3  and  N_5 
REMARK    4  A    between atoms: O_26  and  C_14 
REMARK    5  A    between atoms: O_27  and  C_24 
ROOT
ATOM      1  N   UNL d   1      50.950  34.234  53.134  0.00  0.00    -0.226 N 
ATOM      2  N   UNL d   1      52.408  33.592  53.534  0.00  0.00    -0.319 N 
ATOM      3  C   UNL d   1      50.993  33.470  53.433  0.00  0.00     0.110 A 
ATOM      4  C   UNL d   1      51.633  34.680  53.034  0.00  0.00     0.110 A 
ATOM      5  C   UNL d   1      52.365  34.366  53.231  0.00  0.00     0.096 A 
ATOM      6  C   UNL d   1      51.730  33.146  53.635  0.00  0.00     0.096 A 
ENDROOT
BRANCH   1   7
ATOM      7  S   UNL d   1      50.217  34.557  52.934  0.00  0.00     0.273 S 
ATOM      8  O   UNL d   1      50.569  35.302  52.901  0.00  0.00    -0.200 OA
ATOM      9  O   UNL d   1      49.859  33.814  52.964  0.00  0.00    -0.200 OA
BRANCH   7  10
ATOM     10  C   UNL d   1      49.495  34.902  52.732  0.00  0.00     0.128 A 
ATOM     11  C   UNL d   1      49.090  35.337  53.292  0.00  0.00     0.039 A 
ATOM     12  C   UNL d   1      48.367  35.686  53.102  0.00  0.00     0.095 A 
ATOM     13  C   UNL d   1      48.054  35.595  52.342  0.00  0.00     0.026 A 
ATOM     14  C   UNL d   1      48.468  35.152  51.776  0.00  0.00     0.027 A 
ATOM     15  C   UNL d   1      49.191  34.806  51.974  0.00  0.00     0.106 A 
BRANCH  12  16
ATOM     16  O   UNL d   1      47.954  36.125  53.660  0.00  0.00    -0.328 OA
ATOM     17  C   UNL d   1      47.171  36.345  53.510  0.00  0.00     0.181 C 
ENDBRANCH  12  16
BRANCH  15  18
ATOM     18  O   UNL d   1      49.607  34.366  51.416  0.00  0.00    -0.327 OA
ATOM     19  C   UNL d   1      49.270  34.227  50.674  0.00  0.00     0.181 C 
ENDBRANCH  15  18
ENDBRANCH   7  10
ENDBRANCH   1   7
BRANCH   2  20
ATOM     20  C   UNL d   1      53.146  33.280  53.731  0.00  0.00     0.107 A 
ATOM     21  C   UNL d   1      53.383  33.604  54.379  0.00  0.00    -0.002 A 
ATOM     22  C   UNL d   1      54.099  33.304  54.573  0.00  0.00    -0.006 A 
ATOM     23  C   UNL d   1      54.321  32.793  54.058  0.00  0.00    -0.022 A 
ATOM     24  C   UNL d   1      54.728  33.418  55.266  0.00  0.00    -0.001 A 
ATOM     25  C   UNL d   1      54.142  32.430  53.405  0.00  0.00     0.046 A 
ATOM     26  C   UNL d   1      53.404  32.735  53.198  0.00  0.00     0.038 A 
ATOM     27  C   UNL d   1      54.761  32.493  54.018  0.00  0.00    -0.022 A 
ATOM     28  C   UNL d   1      54.510  33.034  54.552  0.00  0.00    -0.006 A 
ATOM     29  C   UNL d   1      53.750  33.357  54.350  0.00  0.00    -0.002 A 
ENDBRANCH   2  20
TORSDOF 5
ENDMDL
MODEL 2
REMARK VINA RESULT:      -9.3      1.460      5.299
REMARK  5 active torsions:
REMARK  status: ('A' for Active; 'I' for Inactive)
REMARK    1  A    between atoms: C_2  and  S_1 
REMARK    2  A    between atoms: N_4  and  S_1 
REMARK    3  A    between atoms: C_3  and  N_5 
REMARK    4  A    between atoms: O_26  and  C_14 
REMARK    5  A    between atoms: O_27  and  C_24 
ROOT
ATOM      1  N   UNL d   1      51.461  33.830  52.919  0.00  0.00    -0.226 N 
ATOM      2  N   UNL d   1      50.059  34.359  52.245  0.00  0.00    -0.319 N 
ATOM      3  C   UNL d   1      50.754  33.756  53.332  0.00  0.00     0.110 A 
ATOM      4  C   UNL d   1      51.471  34.168  52.171  0.00  0.00     0.110 A 
ATOM      5  C   UNL d   1      50.774  34.435  51.828  0.00  0.00     0.096 A 
ATOM      6  C   UNL d   1      50.046  34.023  52.992  0.00  0.00     0.096 A 
ENDROOT
BRANCH   1   7
ATOM      7  S   UNL d   1      52.165  33.564  53.258  0.00  0.00     0.273 S 
ATOM      8  O   UNL d   1      51.746  33.365  53.940  0.00  0.00    -0.200 OA
ATOM      9  O   UNL d   1      52.591  33.761  52.579  0.00  0.00    -0.200 OA
BRANCH   7  10
ATOM     10  C   UNL d   1      52.856  33.292  53.617  0.00  0.00     0.128 A 
ATOM     11  C   UNL d   1      53.287  33.800  54.091  0.00  0.00     0.039 A 
ATOM     12  C   UNL d   1      53.980  33.539  54.456  0.00  0.00     0.095 A 
ATOM     13  C   UNL d   1      54.237  32.762  54.339  0.00  0.00     0.026 A 
ATOM     14  C   UNL d   1      53.798  32.250  53.858  0.00  0.00     0.027 A 
ATOM     15  C   UNL d   1      53.106  32.518  53.497  0.00  0.00     0.106 A 
BRANCH  12  16
ATOM     16  O   UNL d   1      54.417  34.045  54.933  0.00  0.00    -0.328 OA
ATOM     17  C   UNL d   1      55.146  33.794  55.234  0.00  0.00     0.181 C 
ENDBRANCH  12  16
BRANCH  15  18
ATOM     18  O   UNL d   1      52.665  32.014  53.017  0.00  0.00    -0.327 OA
ATOM     19  C   UNL d   1      52.884  31.219  52.954  0.00  0.00     0.181 C 
ENDBRANCH  15  18
ENDBRANCH   7  10
ENDBRANCH   1   7
BRANCH   2  20
ATOM     20  C   UNL d   1      49.361  34.628  51.897  0.00  0.00     0.107 A 
ATOM     21  C   UNL d   1      49.016  35.106  52.379  0.00  0.00    -0.002 A 
ATOM     22  C   UNL d   1      48.338  35.370  52.045  0.00  0.00    -0.006 A 
ATOM     23  C   UNL d   1      48.247  35.066  51.356  0.00  0.00    -0.022 A 
ATOM     24  C   UNL d   1      47.634  35.950  52.281  0.00  0.00    -0.001 A 
ATOM     25  C   UNL d   1      48.542  34.596  50.825  0.00  0.00     0.046 A 
ATOM     26  C   UNL d   1      49.243  34.320  51.163  0.00  0.00     0.038 A 
ATOM     27  C   UNL d   1      47.865  35.121  50.988  0.00  0.00    -0.022 A 
ATOM     28  C   UNL d   1      47.977  35.432  51.717  0.00  0.00    -0.006 A 
ATOM     29  C   UNL d   1      48.695  35.155  52.077  0.00  0.00    -0.002 A 
ENDBRANCH   2  20
TORSDOF 5
ENDMDL
MODEL 3
REMARK VINA RESULT:      -8.6      1.356      5.509
REMARK  5 active torsions:
REMARK  status: ('A' for Active; 'I' for Inactive)
REMARK    1  A    between atoms: C_2  and  S_1 
REMARK    2  A    between atoms: N_4  and  S_1 
REMARK    3  A    between atoms: C_3  and  N_5 
REMARK    4  A    between atoms: O_26  and  C_14 
REMARK    5  A    between atoms: O_27  and  C_24 
ROOT
ATOM      1  N   UNL d   1      50.661  34.172  52.724  0.00  0.00    -0.226 N 
ATOM      2  N   UNL d   1      49.230  34.915  52.406  0.00  0.00    -0.319 N 
ATOM      3  C   UNL d   1      50.215  34.485  53.341  0.00  0.00     0.110 A 
ATOM      4  C   UNL d   1      50.394  34.229  51.950  0.00  0.00     0.110 A 
ATOM      5  C   UNL d   1      49.680  34.599  51.783  0.00  0.00     0.096 A 
ATOM      6  C   UNL d   1      49.493  34.860  53.180  0.00  0.00     0.096 A 
ENDROOT
BRANCH   1   7
ATOM      7  S   UNL d   1      51.379  33.799  52.884  0.00  0.00     0.273 S 
ATOM      8  O   UNL d   1      51.033  33.443  53.542  0.00  0.00    -0.200 OA
ATOM      9  O   UNL d   1      51.733  34.152  52.227  0.00  0.00    -0.200 OA
BRANCH   7  10
ATOM     10  C   UNL d   1      52.087  33.415  53.064  0.00  0.00     0.128 A 
ATOM     11  C   UNL d   1      52.190  32.638  52.832  0.00  0.00     0.039 A 
ATOM     12  C   UNL d   1      52.894  32.244  53.007  0.00  0.00     0.095 A 
ATOM     13  C   UNL d   1      53.495  32.639  53.417  0.00  0.00     0.026 A 
ATOM     14  C   UNL d   1      53.386  33.427  53.650  0.00  0.00     0.027 A 
ATOM     15  C   UNL d   1      52.680  33.814  53.472  0.00  0.00     0.106 A 
BRANCH  12  16
ATOM     16  O   UNL d   1      53.005  31.463  52.777  0.00  0.00    -0.328 OA
ATOM     17  C   UNL d   1      53.423  30.947  53.270  0.00  0.00     0.181 C 
ENDBRANCH  12  16
BRANCH  15  18
ATOM     18  O   UNL d   1      52.566  34.597  53.701  0.00  0.00    -0.327 OA
ATOM     19  C   UNL d   1      53.160  34.987  54.122  0.00  0.00     0.181 C 
ENDBRANCH  15  18
ENDBRANCH   7  10
ENDBRANCH   1   7
BRANCH   2  20
ATOM     20  C   UNL d   1      48.513  35.286  52.235  0.00  0.00     0.107 A 
ATOM     21  C   UNL d   1      48.324  35.735  52.820  0.00  0.00    -0.002 A 
ATOM     22  C   UNL d   1      47.629  36.097  52.658  0.00  0.00    -0.006 A 
ATOM     23  C   UNL d   1      47.373  35.884  51.976  0.00  0.00    -0.022 A 
ATOM     24  C   UNL d   1      47.055  36.709  53.087  0.00  0.00    -0.001 A 
ATOM     25  C   UNL d   1      47.504  35.453  51.354  0.00  0.00     0.046 A 
ATOM     26  C   UNL d   1      48.221  35.076  51.515  0.00  0.00     0.038 A 
ATOM     27  C   UNL d   1      46.935  36.016  51.701  0.00  0.00    -0.022 A 
ATOM     28  C   UNL d   1      47.221  36.229  52.418  0.00  0.00    -0.006 A 
ATOM     29  C   UNL d   1      47.959  35.848  52.596  0.00  0.00    -0.002 A 
ENDBRANCH   2  20
TORSDOF 5
ENDMDL
