MODEL 1
REMARK VINA RESULT:      29.8      0.000      0.000
REMARK  3 active torsions:
REMARK  status: ('A' for Active; 'I' for Inactive)
REMARK    1  A    between atoms: S_10  and  C_3 
REMARK    2  A    between atoms: C_14  and  S_10 
REMARK    3  A    between atoms: C_16  and  C_14 
ROOT
ATOM      1  C   UNL d   1      14.071  13.571  -2.316  0.00  0.00     0.155 A 
ATOM      2  C   UNL d   1      13.961  12.762  -2.189  0.00  0.00     0.107 A 
ATOM      3  C   UNL d   1      13.252  12.672  -3.420  0.00  0.00     0.182 A 
ATOM      4  N   UNL d   1      13.359  13.472  -3.549  0.00  0.00    -0.250 N 
ATOM      5  N   UNL d   1      13.548  12.309  -2.746  0.00  0.00    -0.220 NA
ATOM      6  C   UNL d   1      13.773  13.926  -2.991  0.00  0.00     0.285 A 
ATOM      7  N   UNL d   1      14.495  13.876  -1.679  0.00  0.00    -0.239 NA
ATOM      8  C   UNL d   1      14.315  12.560  -1.476  0.00  0.00     0.037 A 
ATOM      9  C   UNL d   1      14.649  13.253  -1.155  0.00  0.00     0.083 A 
ATOM     10  O   UNL d   1      13.879  14.738  -3.126  0.00  0.00    -0.265 OA
ATOM     11  C   UNL d   1      13.057  13.830  -4.233  0.00  0.00     0.104 C 
ATOM     12  C   UNL d   1      14.382  11.849  -1.071  0.00  0.00     0.003 A 
ATOM     13  C   UNL d   1      15.047  13.224  -0.432  0.00  0.00     0.019 A 
ATOM     14  C   UNL d   1      14.781  11.821  -0.348  0.00  0.00     0.000 A 
ATOM     15  C   UNL d   1      15.110  12.505  -0.032  0.00  0.00     0.002 A 
ENDROOT
BRANCH   3  16
ATOM     16  S   UNL d   1      12.840  12.224  -3.977  0.00  0.00    -0.050 SA
BRANCH  16  17
ATOM     17  C   UNL d   1      13.229  11.929  -4.643  0.00  0.00     0.032 C 
ATOM     18  C   UNL d   1      14.038  11.786  -4.618  0.00  0.00     0.007 C 
BRANCH  17  19
ATOM     19  C   UNL d   1      12.799  11.781  -5.330  0.00  0.00     0.007 C 
ATOM     20  C   UNL d   1      13.177  11.791  -6.066  0.00  0.00     0.001 C 
ENDBRANCH  17  19
ENDBRANCH  16  17
ENDBRANCH   3  16
TORSDOF 3
ENDMDL
