MODEL 1
REMARK VINA RESULT:      37.0      0.000      0.000
REMARK  3 active torsions:
REMARK  status: ('A' for Active; 'I' for Inactive)
REMARK    1  A    between atoms: S_10  and  C_2 
REMARK    2  A    between atoms: C_9  and  C_4 
REMARK    3  A    between atoms: C_17  and  C_12 
ROOT
ATOM      1  C   UNL d   1      60.463  49.658  51.720  0.00  0.00     0.092 A 
ATOM      2  C   UNL d   1      61.260  49.658  51.866  0.00  0.00     0.119 A 
ATOM      3  N   UNL d   1      61.796  49.642  51.230  0.00  0.00    -0.201 NA
ATOM      4  C   UNL d   1      60.187  49.643  50.935  0.00  0.00     0.016 A 
ATOM      5  C   UNL d   1      61.518  49.626  50.456  0.00  0.00     0.280 A 
ATOM      6  C   UNL d   1      59.928  49.674  52.351  0.00  0.00     0.103 C 
ATOM      7  N   UNL d   1      59.397  49.690  52.987  0.00  0.00    -0.191 NA
ATOM      8  C   UNL d   1      60.721  49.627  50.310  0.00  0.00     0.063 A 
ATOM      9  O   UNL d   1      62.054  49.611  49.825  0.00  0.00    -0.265 OA
ENDROOT
BRANCH   2  10
ATOM     10  S   UNL d   1      61.537  49.673  52.645  0.00  0.00    -0.093 SA
ATOM     11  C   UNL d   1      62.354  49.673  52.800  0.00  0.00     0.076 C 
ENDBRANCH   2  10
BRANCH   4  12
ATOM     12  C   UNL d   1      59.380  49.643  50.788  0.00  0.00     0.001 A 
ATOM     13  C   UNL d   1      59.123  49.630  50.017  0.00  0.00     0.000 A 
ATOM     14  C   UNL d   1      58.308  49.630  49.857  0.00  0.00     0.000 A 
ATOM     15  C   UNL d   1      57.773  49.644  50.462  0.00  0.00     0.000 A 
ATOM     16  C   UNL d   1      58.039  49.657  51.239  0.00  0.00     0.000 A 
ATOM     17  C   UNL d   1      58.858  49.657  51.406  0.00  0.00     0.000 A 
BRANCH  15  18
ATOM     18  C   UNL d   1      56.870  49.644  50.296  0.00  0.00     0.000 C 
ATOM     19  C   UNL d   1      56.036  49.639  51.014  0.00  0.00     0.000 C 
ATOM     20  C   UNL d   1      56.347  49.651  49.226  0.00  0.00     0.000 C 
ENDBRANCH  15  18
ENDBRANCH   4  12
TORSDOF 3
ENDMDL
