MODEL 1
REMARK VINA RESULT:      56.0      0.000      0.000
REMARK  5 active torsions:
REMARK  status: ('A' for Active; 'I' for Inactive)
REMARK    1  A    between atoms: C_17  and  N_5 
REMARK    2  A    between atoms: S_14  and  C_6 
REMARK    3  A    between atoms: C_11  and  C_18 
REMARK    4  A    between atoms: C_18  and  S_14 
REMARK    5  A    between atoms: C_19  and  C_17 
ROOT
ATOM      1  C   UNL d   1     -51.885  24.871  33.333  0.00  0.00     0.081 A 
ATOM      2  C   UNL d   1     -52.037  25.686  33.350  0.00  0.00     0.117 A 
ATOM      3  N   UNL d   1     -51.409  26.223  33.359  0.00  0.00    -0.215 NA
ATOM      4  C   UNL d   1     -51.110  24.591  33.325  0.00  0.00     0.268 A 
ATOM      5  N   UNL d   1     -50.473  25.129  33.333  0.00  0.00    -0.253 N 
ATOM      6  C   UNL d   1     -50.628  25.944  33.350  0.00  0.00     0.182 A 
ATOM      7  S   UNL d   1     -52.850  25.790  33.356  0.00  0.00    -0.068 SA
ATOM      8  C   UNL d   1     -52.610  24.474  33.329  0.00  0.00     0.013 A 
ATOM      9  C   UNL d   1     -53.205  25.041  33.342  0.00  0.00     0.031 A 
ATOM     10  O   UNL d   1     -50.959  23.789  33.308  0.00  0.00    -0.267 OA
ATOM     11  C   UNL d   1     -52.676  23.656  33.312  0.00  0.00     0.001 A 
ATOM     12  C   UNL d   1     -54.023  24.931  33.343  0.00  0.00     0.006 A 
ATOM     13  C   UNL d   1     -53.360  23.193  33.306  0.00  0.00     0.000 A 
ATOM     14  C   UNL d   1     -54.442  24.223  33.331  0.00  0.00     0.001 A 
ATOM     15  C   UNL d   1     -54.153  23.447  33.314  0.00  0.00     0.000 A 
ENDROOT
BRANCH   6  16
ATOM     16  S   UNL d   1     -49.995  26.481  33.358  0.00  0.00    -0.048 SA
BRANCH  16  17
ATOM     17  C   UNL d   1     -50.141  27.288  33.306  0.00  0.00     0.058 C 
BRANCH  17  18
ATOM     18  C   UNL d   1     -49.674  27.821  33.733  0.00  0.00     0.095 A 
ATOM     19  N   UNL d   1     -49.314  27.680  34.445  0.00  0.00    -0.238 NA
ATOM     20  C   UNL d   1     -48.912  28.360  34.661  0.00  0.00     0.111 A 
ATOM     21  C   UNL d   1     -48.470  28.479  35.333  0.00  0.00     0.028 C 
ATOM     22  S   UNL d   1     -49.028  28.913  34.082  0.00  0.00    -0.066 SA
ATOM     23  C   UNL d   1     -49.496  28.584  33.510  0.00  0.00     0.057 A 
ENDBRANCH  17  18
ENDBRANCH  16  17
ENDBRANCH   6  16
BRANCH   5  24
ATOM     24  C   UNL d   1     -49.698  24.863  33.324  0.00  0.00     0.085 C 
BRANCH  24  25
ATOM     25  C   UNL d   1     -49.546  24.039  33.351  0.00  0.00     0.019 C 
ATOM     26  C   UNL d   1     -48.922  23.747  33.804  0.00  0.00     0.002 C 
ENDBRANCH  24  25
ENDBRANCH   5  24
TORSDOF 5
ENDMDL
