MODEL 1
REMARK VINA RESULT:      10.2      0.000      0.000
REMARK  5 active torsions:
REMARK  status: ('A' for Active; 'I' for Inactive)
REMARK    1  A    between atoms: N_7  and  C_1 
REMARK    2  A    between atoms: C_12  and  C_2 
REMARK       I    between atoms: C_8  and  N_7 
REMARK    3  A    between atoms: C_10  and  C_8 
REMARK    4  A    between atoms: N_9  and  C_16 
REMARK    5  A    between atoms: C_16  and  C_10 
ROOT
ATOM      1  C   UNL d   1     -42.159-123.149 -50.745  0.00  0.00     0.142 A 
ATOM      2  C   UNL d   1     -42.530-122.915 -50.043  0.00  0.00     0.024 A 
ATOM      3  C   UNL d   1     -41.484-123.589 -50.728  0.00  0.00     0.297 A 
ATOM      4  C   UNL d   1     -42.195-123.141 -49.324  0.00  0.00     0.020 A 
ATOM      5  N   UNL d   1     -41.145-123.818 -50.008  0.00  0.00    -0.207 NA
ATOM      6  C   UNL d   1     -41.505-123.590 -49.307  0.00  0.00     0.085 A 
ATOM      7  C   UNL d   1     -42.562-122.909 -48.622  0.00  0.00     0.008 A 
ATOM      8  O   UNL d   1     -41.123-123.817 -51.441  0.00  0.00    -0.264 OA
ATOM      9  C   UNL d   1     -41.177-123.812 -48.587  0.00  0.00     0.020 A 
ATOM     10  C   UNL d   1     -42.224-123.137 -47.896  0.00  0.00     0.035 A 
ATOM     11  C   UNL d   1     -41.549-123.577 -47.879  0.00  0.00     0.008 A 
ATOM     12 BR   UNL d   1     -42.577-122.915 -47.181  0.00  0.00    -0.049 Br
ENDROOT
BRANCH   1  13
ATOM     13  N   UNL d   1     -42.480-122.933 -51.475  0.00  0.00    -0.203 NA
ATOM     14  C   UNL d   1     -42.019-122.568 -52.052  0.00  0.00     0.281 C 
ATOM     15  O   UNL d   1     -41.286-122.212 -52.434  0.00  0.00    -0.265 OA
BRANCH  14  16
ATOM     16  C   UNL d   1     -42.338-122.354 -52.778  0.00  0.00     0.082 C 
BRANCH  16  17
ATOM     17  C   UNL d   1     -41.876-122.034 -53.374  0.00  0.00     0.085 C 
BRANCH  17  18
ATOM     18  N   UNL d   1     -42.122-122.018 -54.155  0.00  0.00    -0.299 N 
ATOM     19  C   UNL d   1     -42.796-121.608 -54.394  0.00  0.00     0.107 A 
ATOM     20  C   UNL d   1     -43.028-121.602 -55.175  0.00  0.00     0.142 A 
ATOM     21  O   UNL d   1     -42.580-122.016 -55.747  0.00  0.00    -0.300 OA
ATOM     22  C   UNL d   1     -41.927-122.414 -55.519  0.00  0.00     0.142 A 
ATOM     23  C   UNL d   1     -41.674-122.432 -54.728  0.00  0.00     0.107 A 
ENDBRANCH  17  18
ENDBRANCH  16  17
ENDBRANCH  14  16
ENDBRANCH   1  13
BRANCH   2  24
ATOM     24  C   UNL d   1     -43.211-122.471 -50.060  0.00  0.00     0.002 A 
ATOM     25  C   UNL d   1     -43.951-122.836 -50.083  0.00  0.00     0.000 A 
ATOM     26  C   UNL d   1     -44.643-122.385 -50.101  0.00  0.00     0.000 A 
ATOM     27  C   UNL d   1     -44.590-121.572 -50.095  0.00  0.00     0.000 A 
ATOM     28  C   UNL d   1     -43.875-121.190 -50.073  0.00  0.00     0.000 A 
ATOM     29  C   UNL d   1     -43.175-121.646 -50.055  0.00  0.00     0.000 A 
ENDBRANCH   2  24
TORSDOF 5
ENDMDL
