MODEL 1
REMARK VINA RESULT:      17.8      0.000      0.000
REMARK  5 active torsions:
REMARK  status: ('A' for Active; 'I' for Inactive)
REMARK       I    between atoms: C_3  and  N_1 
REMARK    1  A    between atoms: S_7  and  C_2 
REMARK    2  A    between atoms: C_6  and  C_3 
REMARK    3  A    between atoms: N_4  and  C_8 
REMARK    4  A    between atoms: C_17  and  S_7 
REMARK    5  A    between atoms: C_18  and  C_17 
ROOT
ATOM      1  N   UNL d   1      45.989 -17.501  43.535  0.00  0.00    -0.251 N 
ATOM      2  C   UNL d   1      45.841 -16.737  43.820  0.00  0.00     0.182 A 
ATOM      3  C   UNL d   1      46.298 -18.132  43.966  0.00  0.00     0.266 C 
ATOM      4  N   UNL d   1      45.536 -16.293  43.201  0.00  0.00    -0.219 NA
ATOM      5  O   UNL d   1      46.493 -18.037  44.764  0.00  0.00    -0.267 OA
ATOM      6  C   UNL d   1      45.771 -17.523  42.731  0.00  0.00     0.106 A 
ATOM      7  C   UNL d   1      45.490 -16.769  42.529  0.00  0.00     0.120 A 
ENDROOT
BRANCH   2   8
ATOM      8  S   UNL d   1      45.981 -16.481  44.590  0.00  0.00    -0.049 SA
BRANCH   8   9
ATOM      9  C   UNL d   1      45.456 -15.967  44.950  0.00  0.00     0.038 C 
BRANCH   9  10
ATOM     10  C   UNL d   1      45.533 -15.158  44.840  0.00  0.00     0.007 A 
ATOM     11  C   UNL d   1      44.854 -14.682  44.788  0.00  0.00     0.002 A 
ATOM     12  C   UNL d   1      44.933 -13.865  44.678  0.00  0.00     0.024 A 
ATOM     13  C   UNL d   1      45.682 -13.533  44.621  0.00  0.00     0.127 A 
ATOM     14  C   UNL d   1      46.355 -13.999  44.672  0.00  0.00     0.024 A 
ATOM     15  C   UNL d   1      46.277 -14.813  44.782  0.00  0.00     0.002 A 
BRANCH  13  16
ATOM     16  N   UNL d   1      45.753 -12.714  44.510  0.00  0.00    -0.114 N 
ATOM     17  O   UNL d   1      46.323 -12.276  44.947  0.00  0.00    -0.532 OA
ATOM     18  O   UNL d   1      45.264 -12.313  43.968  0.00  0.00    -0.532 OA
ENDBRANCH  13  16
ENDBRANCH   9  10
ENDBRANCH   8   9
ENDBRANCH   2   8
BRANCH   3  19
ATOM     19  C   UNL d   1      46.415 -18.868  43.599  0.00  0.00     0.057 A 
ATOM     20  C   UNL d   1      46.469 -18.908  42.772  0.00  0.00     0.005 A 
ATOM     21  C   UNL d   1      46.585 -19.644  42.421  0.00  0.00     0.000 A 
ATOM     22  C   UNL d   1      46.639 -19.687  41.595  0.00  0.00     0.000 C 
ATOM     23  C   UNL d   1      46.646 -20.329  42.883  0.00  0.00     0.000 A 
ATOM     24  C   UNL d   1      46.592 -20.282  43.700  0.00  0.00     0.000 A 
ATOM     25  C   UNL d   1      46.476 -19.550  44.059  0.00  0.00     0.005 A 
ENDBRANCH   3  19
TORSDOF 5
ENDMDL
