MODEL 1
REMARK VINA RESULT:      -7.8      0.000      0.000
REMARK  6 active torsions:
REMARK  status: ('A' for Active; 'I' for Inactive)
REMARK    1  A    between atoms: N_2  and  S_1 
REMARK    2  A    between atoms: C_3  and  S_1 
REMARK    3  A    between atoms: C_6  and  N_2 
REMARK    4  A    between atoms: C_12  and  C_6 
REMARK    5  A    between atoms: O_10  and  C_11 
REMARK    6  A    between atoms: C_15  and  O_10 
ROOT
ATOM      1  C   UNL d   1     -48.310  11.635  23.154  0.00  0.00     0.105 A 
ATOM      2  C   UNL d   1     -48.535  11.546  22.363  0.00  0.00     0.015 A 
ATOM      3  C   UNL d   1     -48.844  11.969  23.697  0.00  0.00     0.015 A 
ATOM      4  C   UNL d   1     -49.804  12.112  22.652  0.00  0.00     0.100 A 
ATOM      5  C   UNL d   1     -49.590  12.207  23.444  0.00  0.00     0.025 A 
ATOM      6  C   UNL d   1     -49.280  11.784  22.114  0.00  0.00     0.025 A 
ENDROOT
BRANCH   1   7
ATOM      7  S   UNL d   1     -47.563  11.398  23.411  0.00  0.00     0.285 S 
ATOM      8  O   UNL d   1     -47.887  10.697  23.695  0.00  0.00    -0.198 OA
ATOM      9  O   UNL d   1     -46.819  11.159  23.668  0.00  0.00    -0.198 OA
BRANCH   7  10
ATOM     10  N   UNL d   1     -47.235  12.107  23.124  0.00  0.00    -0.155 NA
BRANCH  10  11
ATOM     11  C   UNL d   1     -46.458  12.311  23.329  0.00  0.00     0.137 C 
BRANCH  11  12
ATOM     12  C   UNL d   1     -46.097  12.960  22.960  0.00  0.00     0.120 A 
ATOM     13  O   UNL d   1     -45.465  12.941  22.425  0.00  0.00    -0.304 OA
ATOM     14  C   UNL d   1     -45.295  13.718  22.207  0.00  0.00     0.123 A 
ATOM     15  C   UNL d   1     -45.812  14.216  22.601  0.00  0.00     0.029 A 
ATOM     16  C   UNL d   1     -46.309  13.752  23.067  0.00  0.00     0.028 A 
ENDBRANCH  11  12
ENDBRANCH  10  11
ENDBRANCH   7  10
ENDBRANCH   1   7
BRANCH   4  17
ATOM     17  O   UNL d   1     -50.559  12.353  22.395  0.00  0.00    -0.307 OA
BRANCH  17  18
ATOM     18  C   UNL d   1     -50.721  13.161  22.302  0.00  0.00     0.100 A 
ATOM     19  C   UNL d   1     -50.904  13.634  22.959  0.00  0.00     0.025 A 
ATOM     20  C   UNL d   1     -51.064  14.437  22.858  0.00  0.00     0.002 A 
ATOM     21  C   UNL d   1     -51.044  14.769  22.103  0.00  0.00     0.000 A 
ATOM     22  C   UNL d   1     -50.861  14.295  21.446  0.00  0.00     0.002 A 
ATOM     23  C   UNL d   1     -50.700  13.492  21.546  0.00  0.00     0.025 A 
ENDBRANCH  17  18
ENDBRANCH   4  17
TORSDOF 6
ENDMDL
MODEL 2
REMARK VINA RESULT:      -7.1      1.485      2.453
REMARK  6 active torsions:
REMARK  status: ('A' for Active; 'I' for Inactive)
REMARK    1  A    between atoms: N_2  and  S_1 
REMARK    2  A    between atoms: C_3  and  S_1 
REMARK    3  A    between atoms: C_6  and  N_2 
REMARK    4  A    between atoms: C_12  and  C_6 
REMARK    5  A    between atoms: O_10  and  C_11 
REMARK    6  A    between atoms: C_15  and  O_10 
ROOT
ATOM      1  C   UNL d   1     -46.872  13.208  22.726  0.00  0.00     0.105 A 
ATOM      2  C   UNL d   1     -47.053  12.727  23.374  0.00  0.00     0.015 A 
ATOM      3  C   UNL d   1     -47.318  13.139  22.026  0.00  0.00     0.015 A 
ATOM      4  C   UNL d   1     -48.106  12.120  22.639  0.00  0.00     0.100 A 
ATOM      5  C   UNL d   1     -47.934  12.595  21.985  0.00  0.00     0.025 A 
ATOM      6  C   UNL d   1     -47.668  12.185  23.329  0.00  0.00     0.025 A 
ENDROOT
BRANCH   1   7
ATOM      7  S   UNL d   1     -46.255  13.754  22.763  0.00  0.00     0.285 S 
ATOM      8  O   UNL d   1     -46.780  14.322  23.045  0.00  0.00    -0.198 OA
ATOM      9  O   UNL d   1     -45.642  14.302  22.802  0.00  0.00    -0.198 OA
BRANCH   7  10
ATOM     10  N   UNL d   1     -45.724  13.181  22.478  0.00  0.00    -0.155 NA
BRANCH  10  11
ATOM     11  C   UNL d   1     -45.037  13.420  22.080  0.00  0.00     0.137 C 
BRANCH  11  12
ATOM     12  C   UNL d   1     -44.401  12.894  22.014  0.00  0.00     0.120 A 
ATOM     13  O   UNL d   1     -44.284  12.196  22.445  0.00  0.00    -0.304 OA
ATOM     14  C   UNL d   1     -43.577  11.857  22.190  0.00  0.00     0.123 A 
ATOM     15  C   UNL d   1     -43.255  12.335  21.609  0.00  0.00     0.029 A 
ATOM     16  C   UNL d   1     -43.761  12.977  21.497  0.00  0.00     0.028 A 
ENDBRANCH  11  12
ENDBRANCH  10  11
ENDBRANCH   7  10
ENDBRANCH   1   7
BRANCH   4  17
ATOM     17  O   UNL d   1     -48.729  11.569  22.597  0.00  0.00    -0.307 OA
BRANCH  17  18
ATOM     18  C   UNL d   1     -49.501  11.811  22.780  0.00  0.00     0.100 A 
ATOM     19  C   UNL d   1     -49.832  11.642  23.523  0.00  0.00     0.025 A 
ATOM     20  C   UNL d   1     -50.601  11.885  23.697  0.00  0.00     0.002 A 
ATOM     21  C   UNL d   1     -51.040  12.295  23.132  0.00  0.00     0.000 A 
ATOM     22  C   UNL d   1     -50.709  12.464  22.389  0.00  0.00     0.002 A 
ATOM     23  C   UNL d   1     -49.940  12.221  22.214  0.00  0.00     0.025 A 
ENDBRANCH  17  18
ENDBRANCH   4  17
TORSDOF 6
ENDMDL
MODEL 3
REMARK VINA RESULT:      -7.1      1.219      4.066
REMARK  6 active torsions:
REMARK  status: ('A' for Active; 'I' for Inactive)
REMARK    1  A    between atoms: N_2  and  S_1 
REMARK    2  A    between atoms: C_3  and  S_1 
REMARK    3  A    between atoms: C_6  and  N_2 
REMARK    4  A    between atoms: C_12  and  C_6 
REMARK    5  A    between atoms: O_10  and  C_11 
REMARK    6  A    between atoms: C_15  and  O_10 
ROOT
ATOM      1  C   UNL d   1     -49.408  12.149  22.903  0.00  0.00     0.105 A 
ATOM      2  C   UNL d   1     -48.946  12.155  22.217  0.00  0.00     0.015 A 
ATOM      3  C   UNL d   1     -49.037  12.125  23.648  0.00  0.00     0.015 A 
ATOM      4  C   UNL d   1     -47.764  12.112  23.003  0.00  0.00     0.100 A 
ATOM      5  C   UNL d   1     -48.216  12.106  23.695  0.00  0.00     0.025 A 
ATOM      6  C   UNL d   1     -48.127  12.137  22.268  0.00  0.00     0.025 A 
ENDROOT
BRANCH   1   7
ATOM      7  S   UNL d   1     -50.232  12.168  22.859  0.00  0.00     0.285 S 
ATOM      8  O   UNL d   1     -50.241  11.351  22.765  0.00  0.00    -0.198 OA
ATOM      9  O   UNL d   1     -51.053  12.183  22.815  0.00  0.00    -0.198 OA
BRANCH   7  10
ATOM     10  N   UNL d   1     -50.222  12.994  22.955  0.00  0.00    -0.155 NA
BRANCH  10  11
ATOM     11  C   UNL d   1     -50.909  13.433  22.801  0.00  0.00     0.137 C 
BRANCH  11  12
ATOM     12  C   UNL d   1     -50.915  14.247  22.953  0.00  0.00     0.120 A 
ATOM     13  O   UNL d   1     -50.962  14.616  23.693  0.00  0.00    -0.304 OA
ATOM     14  C   UNL d   1     -50.950  15.431  23.571  0.00  0.00     0.123 A 
ATOM     15  C   UNL d   1     -50.895  15.571  22.766  0.00  0.00     0.029 A 
ATOM     16  C   UNL d   1     -50.873  14.843  22.381  0.00  0.00     0.028 A 
ENDBRANCH  11  12
ENDBRANCH  10  11
ENDBRANCH   7  10
ENDBRANCH   1   7
BRANCH   4  17
ATOM     17  O   UNL d   1     -46.934  12.093  23.050  0.00  0.00    -0.307 OA
BRANCH  17  18
ATOM     18  C   UNL d   1     -46.495  12.758  22.817  0.00  0.00     0.100 A 
ATOM     19  C   UNL d   1     -46.615  13.493  23.184  0.00  0.00     0.025 A 
ATOM     20  C   UNL d   1     -46.175  14.150  22.947  0.00  0.00     0.002 A 
ATOM     21  C   UNL d   1     -45.616  14.074  22.345  0.00  0.00     0.000 A 
ATOM     22  C   UNL d   1     -45.497  13.339  21.978  0.00  0.00     0.002 A 
ATOM     23  C   UNL d   1     -45.936  12.681  22.214  0.00  0.00     0.025 A 
ENDBRANCH  17  18
ENDBRANCH   4  17
TORSDOF 6
ENDMDL
MODEL 4
REMARK VINA RESULT:      -6.8      1.648      2.194
REMARK  6 active torsions:
REMARK  status: ('A' for Active; 'I' for Inactive)
REMARK    1  A    between atoms: N_2  and  S_1 
REMARK    2  A    between atoms: C_3  and  S_1 
REMARK    3  A    between atoms: C_6  and  N_2 
REMARK    4  A    between atoms: C_12  and  C_6 
REMARK    5  A    between atoms: O_10  and  C_11 
REMARK    6  A    between atoms: C_15  and  O_10 
ROOT
ATOM      1  C   UNL d   1     -46.883  12.991  22.921  0.00  0.00     0.105 A 
ATOM      2  C   UNL d   1     -47.422  12.812  22.319  0.00  0.00     0.015 A 
ATOM      3  C   UNL d   1     -46.855  13.763  23.230  0.00  0.00     0.015 A 
ATOM      4  C   UNL d   1     -47.895  14.151  22.335  0.00  0.00     0.100 A 
ATOM      5  C   UNL d   1     -47.361  14.341  22.936  0.00  0.00     0.025 A 
ATOM      6  C   UNL d   1     -47.926  13.391  22.027  0.00  0.00     0.025 A 
ENDROOT
BRANCH   1   7
ATOM      7  S   UNL d   1     -46.374  12.414  23.218  0.00  0.00     0.285 S 
ATOM      8  O   UNL d   1     -46.979  12.132  23.698  0.00  0.00    -0.198 OA
ATOM      9  O   UNL d   1     -45.868  11.838  23.516  0.00  0.00    -0.198 OA
BRANCH   7  10
ATOM     10  N   UNL d   1     -45.761  12.699  22.733  0.00  0.00    -0.155 NA
BRANCH  10  11
ATOM     11  C   UNL d   1     -45.056  12.268  22.666  0.00  0.00     0.137 C 
BRANCH  11  12
ATOM     12  C   UNL d   1     -44.453  12.546  22.170  0.00  0.00     0.120 A 
ATOM     13  O   UNL d   1     -44.425  13.278  21.783  0.00  0.00    -0.304 OA
ATOM     14  C   UNL d   1     -43.722  13.309  21.353  0.00  0.00     0.123 A 
ATOM     15  C   UNL d   1     -43.316  12.608  21.470  0.00  0.00     0.029 A 
ATOM     16  C   UNL d   1     -43.764  12.134  21.974  0.00  0.00     0.028 A 
ENDBRANCH  11  12
ENDBRANCH  10  11
ENDBRANCH   7  10
ENDBRANCH   1   7
BRANCH   4  17
ATOM     17  O   UNL d   1     -48.408  14.735  22.037  0.00  0.00    -0.307 OA
BRANCH  17  18
ATOM     18  C   UNL d   1     -49.148  14.851  22.393  0.00  0.00     0.100 A 
ATOM     19  C   UNL d   1     -49.795  14.372  22.188  0.00  0.00     0.025 A 
ATOM     20  C   UNL d   1     -50.528  14.494  22.547  0.00  0.00     0.002 A 
ATOM     21  C   UNL d   1     -50.617  15.090  23.109  0.00  0.00     0.000 A 
ATOM     22  C   UNL d   1     -49.970  15.569  23.314  0.00  0.00     0.002 A 
ATOM     23  C   UNL d   1     -49.236  15.449  22.956  0.00  0.00     0.025 A 
ENDBRANCH  17  18
ENDBRANCH   4  17
TORSDOF 6
ENDMDL
MODEL 5
REMARK VINA RESULT:      -6.2      8.875     10.304
REMARK  6 active torsions:
REMARK  status: ('A' for Active; 'I' for Inactive)
REMARK    1  A    between atoms: N_2  and  S_1 
REMARK    2  A    between atoms: C_3  and  S_1 
REMARK    3  A    between atoms: C_6  and  N_2 
REMARK    4  A    between atoms: C_12  and  C_6 
REMARK    5  A    between atoms: O_10  and  C_11 
REMARK    6  A    between atoms: C_15  and  O_10 
ROOT
ATOM      1  C   UNL d   1     -40.407  15.033  18.913  0.00  0.00     0.105 A 
ATOM      2  C   UNL d   1     -40.814  14.503  19.401  0.00  0.00     0.015 A 
ATOM      3  C   UNL d   1     -39.920  15.615  19.255  0.00  0.00     0.015 A 
ATOM      4  C   UNL d   1     -40.260  15.125  20.551  0.00  0.00     0.100 A 
ATOM      5  C   UNL d   1     -39.849  15.659  20.074  0.00  0.00     0.025 A 
ATOM      6  C   UNL d   1     -40.741  14.550  20.217  0.00  0.00     0.025 A 
ENDROOT
BRANCH   1   7
ATOM      7  S   UNL d   1     -40.477  14.992  18.092  0.00  0.00     0.285 S 
ATOM      8  O   UNL d   1     -41.046  15.586  18.114  0.00  0.00    -0.198 OA
ATOM      9  O   UNL d   1     -40.548  14.953  17.273  0.00  0.00    -0.198 OA
BRANCH   7  10
ATOM     10  N   UNL d   1     -39.901  14.391  18.069  0.00  0.00    -0.155 NA
BRANCH  10  11
ATOM     11  C   UNL d   1     -39.651  14.090  17.338  0.00  0.00     0.137 C 
BRANCH  11  12
ATOM     12  C   UNL d   1     -39.076  13.494  17.318  0.00  0.00     0.120 A 
ATOM     13  O   UNL d   1     -39.127  12.741  17.659  0.00  0.00    -0.304 OA
ATOM     14  C   UNL d   1     -38.424  12.342  17.496  0.00  0.00     0.123 A 
ATOM     15  C   UNL d   1     -37.940  12.837  17.061  0.00  0.00     0.029 A 
ATOM     16  C   UNL d   1     -38.339  13.550  16.949  0.00  0.00     0.028 A 
ENDBRANCH  11  12
ENDBRANCH  10  11
ENDBRANCH   7  10
ENDBRANCH   1   7
BRANCH   4  17
ATOM     17  O   UNL d   1     -40.188  15.169  21.379  0.00  0.00    -0.307 OA
BRANCH  17  18
ATOM     18  C   UNL d   1     -39.565  14.774  21.757  0.00  0.00     0.100 A 
ATOM     19  C   UNL d   1     -39.603  13.955  21.893  0.00  0.00     0.025 A 
ATOM     20  C   UNL d   1     -38.979  13.568  22.269  0.00  0.00     0.002 A 
ATOM     21  C   UNL d   1     -38.317  13.996  22.512  0.00  0.00     0.000 A 
ATOM     22  C   UNL d   1     -38.279  14.815  22.376  0.00  0.00     0.002 A 
ATOM     23  C   UNL d   1     -38.902  15.202  22.000  0.00  0.00     0.025 A 
ENDBRANCH  17  18
ENDBRANCH   4  17
TORSDOF 6
ENDMDL
MODEL 6
REMARK VINA RESULT:      -5.8      8.866     10.260
REMARK  6 active torsions:
REMARK  status: ('A' for Active; 'I' for Inactive)
REMARK    1  A    between atoms: N_2  and  S_1 
REMARK    2  A    between atoms: C_3  and  S_1 
REMARK    3  A    between atoms: C_6  and  N_2 
REMARK    4  A    between atoms: C_12  and  C_6 
REMARK    5  A    between atoms: O_10  and  C_11 
REMARK    6  A    between atoms: C_15  and  O_10 
ROOT
ATOM      1  C   UNL d   1     -40.661  15.297  19.592  0.00  0.00     0.105 A 
ATOM      2  C   UNL d   1     -40.833  14.534  19.323  0.00  0.00     0.015 A 
ATOM      3  C   UNL d   1     -40.365  15.864  19.059  0.00  0.00     0.015 A 
ATOM      4  C   UNL d   1     -40.421  14.895  18.013  0.00  0.00     0.100 A 
ATOM      5  C   UNL d   1     -40.246  15.660  18.270  0.00  0.00     0.025 A 
ATOM      6  C   UNL d   1     -40.713  14.335  18.536  0.00  0.00     0.025 A 
ENDROOT
BRANCH   1   7
ATOM      7  S   UNL d   1     -40.779  15.505  20.381  0.00  0.00     0.285 S 
ATOM      8  O   UNL d   1     -41.455  15.922  20.167  0.00  0.00    -0.198 OA
ATOM      9  O   UNL d   1     -40.900  15.713  21.168  0.00  0.00    -0.198 OA
BRANCH   7  10
ATOM     10  N   UNL d   1     -40.096  15.083  20.599  0.00  0.00    -0.155 NA
BRANCH  10  11
ATOM     11  C   UNL d   1     -39.781  15.176  21.360  0.00  0.00     0.137 C 
BRANCH  11  12
ATOM     12  C   UNL d   1     -39.157  14.689  21.606  0.00  0.00     0.120 A 
ATOM     13  O   UNL d   1     -38.349  14.867  21.586  0.00  0.00    -0.304 OA
ATOM     14  C   UNL d   1     -37.939  14.217  21.885  0.00  0.00     0.123 A 
ATOM     15  C   UNL d   1     -38.483  13.640  22.089  0.00  0.00     0.029 A 
ATOM     16  C   UNL d   1     -39.237  13.928  21.918  0.00  0.00     0.028 A 
ENDBRANCH  11  12
ENDBRANCH  10  11
ENDBRANCH   7  10
ENDBRANCH   1   7
BRANCH   4  17
ATOM     17  O   UNL d   1     -40.300  14.689  17.215  0.00  0.00    -0.307 OA
BRANCH  17  18
ATOM     18  C   UNL d   1     -39.542  14.474  16.958  0.00  0.00     0.100 A 
ATOM     19  C   UNL d   1     -39.065  15.018  16.548  0.00  0.00     0.025 A 
ATOM     20  C   UNL d   1     -38.311  14.797  16.295  0.00  0.00     0.002 A 
ATOM     21  C   UNL d   1     -38.032  14.037  16.450  0.00  0.00     0.000 A 
ATOM     22  C   UNL d   1     -38.508  13.493  16.860  0.00  0.00     0.002 A 
ATOM     23  C   UNL d   1     -39.263  13.713  17.113  0.00  0.00     0.025 A 
ENDBRANCH  17  18
ENDBRANCH   4  17
TORSDOF 6
ENDMDL
MODEL 7
REMARK VINA RESULT:      -5.7      2.005      4.713
REMARK  6 active torsions:
REMARK  status: ('A' for Active; 'I' for Inactive)
REMARK    1  A    between atoms: N_2  and  S_1 
REMARK    2  A    between atoms: C_3  and  S_1 
REMARK    3  A    between atoms: C_6  and  N_2 
REMARK    4  A    between atoms: C_12  and  C_6 
REMARK    5  A    between atoms: O_10  and  C_11 
REMARK    6  A    between atoms: C_15  and  O_10 
ROOT
ATOM      1  C   UNL d   1     -49.226  14.940  22.420  0.00  0.00     0.105 A 
ATOM      2  C   UNL d   1     -48.843  15.024  23.148  0.00  0.00     0.015 A 
ATOM      3  C   UNL d   1     -48.777  14.801  21.733  0.00  0.00     0.015 A 
ATOM      4  C   UNL d   1     -47.585  14.834  22.516  0.00  0.00     0.100 A 
ATOM      5  C   UNL d   1     -47.957  14.748  21.784  0.00  0.00     0.025 A 
ATOM      6  C   UNL d   1     -48.025  14.972  23.195  0.00  0.00     0.025 A 
ENDROOT
BRANCH   1   7
ATOM      7  S   UNL d   1     -50.047  14.992  22.365  0.00  0.00     0.285 S 
ATOM      8  O   UNL d   1     -49.972  15.715  21.979  0.00  0.00    -0.198 OA
ATOM      9  O   UNL d   1     -50.867  15.047  22.309  0.00  0.00    -0.198 OA
BRANCH   7  10
ATOM     10  N   UNL d   1     -50.124  14.261  22.755  0.00  0.00    -0.155 NA
BRANCH  10  11
ATOM     11  C   UNL d   1     -50.825  13.826  22.677  0.00  0.00     0.137 C 
BRANCH  11  12
ATOM     12  C   UNL d   1     -50.845  13.036  22.928  0.00  0.00     0.120 A 
ATOM     13  O   UNL d   1     -50.651  12.366  22.481  0.00  0.00    -0.304 OA
ATOM     14  C   UNL d   1     -50.753  11.704  22.961  0.00  0.00     0.123 A 
ATOM     15  C   UNL d   1     -51.007  11.955  23.698  0.00  0.00     0.029 A 
ATOM     16  C   UNL d   1     -51.064  12.777  23.681  0.00  0.00     0.028 A 
ENDBRANCH  11  12
ENDBRANCH  10  11
ENDBRANCH   7  10
ENDBRANCH   1   7
BRANCH   4  17
ATOM     17  O   UNL d   1     -46.756  14.781  22.568  0.00  0.00    -0.307 OA
BRANCH  17  18
ATOM     18  C   UNL d   1     -46.399  14.039  22.667  0.00  0.00     0.100 A 
ATOM     19  C   UNL d   1     -46.632  13.536  23.286  0.00  0.00     0.025 A 
ATOM     20  C   UNL d   1     -46.272  12.800  23.377  0.00  0.00     0.002 A 
ATOM     21  C   UNL d   1     -45.680  12.563  22.854  0.00  0.00     0.000 A 
ATOM     22  C   UNL d   1     -45.447  13.066  22.235  0.00  0.00     0.002 A 
ATOM     23  C   UNL d   1     -45.807  13.803  22.142  0.00  0.00     0.025 A 
ENDBRANCH  17  18
ENDBRANCH   4  17
TORSDOF 6
ENDMDL
MODEL 8
REMARK VINA RESULT:      -5.6      1.730      4.536
REMARK  6 active torsions:
REMARK  status: ('A' for Active; 'I' for Inactive)
REMARK    1  A    between atoms: N_2  and  S_1 
REMARK    2  A    between atoms: C_3  and  S_1 
REMARK    3  A    between atoms: C_6  and  N_2 
REMARK    4  A    between atoms: C_12  and  C_6 
REMARK    5  A    between atoms: O_10  and  C_11 
REMARK    6  A    between atoms: C_15  and  O_10 
ROOT
ATOM      1  C   UNL d   1     -48.203  12.749  22.414  0.00  0.00     0.105 A 
ATOM      2  C   UNL d   1     -47.503  12.899  22.000  0.00  0.00     0.015 A 
ATOM      3  C   UNL d   1     -48.165  12.481  23.201  0.00  0.00     0.015 A 
ATOM      4  C   UNL d   1     -46.740  12.521  23.137  0.00  0.00     0.100 A 
ATOM      5  C   UNL d   1     -47.433  12.368  23.560  0.00  0.00     0.025 A 
ATOM      6  C   UNL d   1     -46.774  12.785  22.361  0.00  0.00     0.025 A 
ENDROOT
BRANCH   1   7
ATOM      7  S   UNL d   1     -48.938  12.861  22.057  0.00  0.00     0.285 S 
ATOM      8  O   UNL d   1     -48.840  12.157  21.642  0.00  0.00    -0.198 OA
ATOM      9  O   UNL d   1     -49.671  12.970  21.700  0.00  0.00    -0.198 OA
BRANCH   7  10
ATOM     10  N   UNL d   1     -49.037  13.572  22.477  0.00  0.00    -0.155 NA
BRANCH  10  11
ATOM     11  C   UNL d   1     -49.604  14.122  22.223  0.00  0.00     0.137 C 
BRANCH  11  12
ATOM     12  C   UNL d   1     -49.842  14.728  22.736  0.00  0.00     0.120 A 
ATOM     13  O   UNL d   1     -50.412  14.680  23.334  0.00  0.00    -0.304 OA
ATOM     14  C   UNL d   1     -50.461  15.418  23.697  0.00  0.00     0.123 A 
ATOM     15  C   UNL d   1     -49.929  15.922  23.332  0.00  0.00     0.029 A 
ATOM     16  C   UNL d   1     -49.544  15.500  22.738  0.00  0.00     0.028 A 
ENDBRANCH  11  12
ENDBRANCH  10  11
ENDBRANCH   7  10
ENDBRANCH   1   7
BRANCH   4  17
ATOM     17  O   UNL d   1     -46.000  12.407  23.499  0.00  0.00    -0.307 OA
BRANCH  17  18
ATOM     18  C   UNL d   1     -45.650  11.655  23.488  0.00  0.00     0.100 A 
ATOM     19  C   UNL d   1     -46.089  10.982  23.698  0.00  0.00     0.025 A 
ATOM     20  C   UNL d   1     -45.734  10.237  23.685  0.00  0.00     0.002 A 
ATOM     21  C   UNL d   1     -44.943  10.162  23.464  0.00  0.00     0.000 A 
ATOM     22  C   UNL d   1     -44.504  10.836  23.254  0.00  0.00     0.002 A 
ATOM     23  C   UNL d   1     -44.858  11.581  23.267  0.00  0.00     0.025 A 
ENDBRANCH  17  18
ENDBRANCH   4  17
TORSDOF 6
ENDMDL
MODEL 9
REMARK VINA RESULT:      -5.2      9.518     10.610
REMARK  6 active torsions:
REMARK  status: ('A' for Active; 'I' for Inactive)
REMARK    1  A    between atoms: N_2  and  S_1 
REMARK    2  A    between atoms: C_3  and  S_1 
REMARK    3  A    between atoms: C_6  and  N_2 
REMARK    4  A    between atoms: C_12  and  C_6 
REMARK    5  A    between atoms: O_10  and  C_11 
REMARK    6  A    between atoms: C_15  and  O_10 
ROOT
ATOM      1  C   UNL d   1     -38.990  15.108  19.265  0.00  0.00     0.105 A 
ATOM      2  C   UNL d   1     -39.217  14.429  19.679  0.00  0.00     0.015 A 
ATOM      3  C   UNL d   1     -39.051  15.852  19.632  0.00  0.00     0.015 A 
ATOM      4  C   UNL d   1     -39.560  15.222  20.806  0.00  0.00     0.100 A 
ATOM      5  C   UNL d   1     -39.336  15.907  20.401  0.00  0.00     0.025 A 
ATOM      6  C   UNL d   1     -39.502  14.487  20.447  0.00  0.00     0.025 A 
ENDROOT
BRANCH   1   7
ATOM      7  S   UNL d   1     -38.703  15.056  18.493  0.00  0.00     0.285 S 
ATOM      8  O   UNL d   1     -37.940  14.967  18.786  0.00  0.00    -0.198 OA
ATOM      9  O   UNL d   1     -38.414  15.005  17.724  0.00  0.00    -0.198 OA
BRANCH   7  10
ATOM     10  N   UNL d   1     -39.475  15.147  18.196  0.00  0.00    -0.155 NA
BRANCH  10  11
ATOM     11  C   UNL d   1     -39.604  15.130  17.377  0.00  0.00     0.137 C 
BRANCH  11  12
ATOM     12  C   UNL d   1     -40.357  15.307  17.079  0.00  0.00     0.120 A 
ATOM     13  O   UNL d   1     -41.065  14.910  17.246  0.00  0.00    -0.304 OA
ATOM     14  C   UNL d   1     -41.668  15.282  16.825  0.00  0.00     0.123 A 
ATOM     15  C   UNL d   1     -41.344  15.903  16.402  0.00  0.00     0.029 A 
ATOM     16  C   UNL d   1     -40.534  15.922  16.556  0.00  0.00     0.028 A 
ENDBRANCH  11  12
ENDBRANCH  10  11
ENDBRANCH   7  10
ENDBRANCH   1   7
BRANCH   4  17
ATOM     17  O   UNL d   1     -39.849  15.277  21.584  0.00  0.00    -0.307 OA
BRANCH  17  18
ATOM     18  C   UNL d   1     -39.321  15.222  22.222  0.00  0.00     0.100 A 
ATOM     19  C   UNL d   1     -39.081  14.480  22.509  0.00  0.00     0.025 A 
ATOM     20  C   UNL d   1     -38.556  14.433  23.143  0.00  0.00     0.002 A 
ATOM     21  C   UNL d   1     -38.269  15.124  23.492  0.00  0.00     0.000 A 
ATOM     22  C   UNL d   1     -38.509  15.866  23.204  0.00  0.00     0.002 A 
ATOM     23  C   UNL d   1     -39.035  15.913  22.570  0.00  0.00     0.025 A 
ENDBRANCH  17  18
ENDBRANCH   4  17
TORSDOF 6
ENDMDL
