MODEL 1
REMARK VINA RESULT:      -5.6      0.000      0.000
REMARK  4 active torsions:
REMARK  status: ('A' for Active; 'I' for Inactive)
REMARK       I    between atoms: C_2  and  N_1 
REMARK    1  A    between atoms: C_7  and  N_1 
REMARK    2  A    between atoms: C_5  and  C_2 
REMARK    3  A    between atoms: C_3  and  C_6 
REMARK    4  A    between atoms: C_6  and  C_5 
ROOT
ATOM      1  N   UNL d   1     -41.627-122.971 -53.152  0.00  0.00    -0.208 NA
ATOM      2  C   UNL d   1     -41.438-122.496 -52.513  0.00  0.00     0.279 C 
ATOM      3  O   UNL d   1     -41.384-121.679 -52.609  0.00  0.00    -0.265 OA
ENDROOT
BRANCH   2   4
ATOM      4  C   UNL d   1     -41.301-122.830 -51.772  0.00  0.00     0.063 C 
BRANCH   4   5
ATOM      5  C   UNL d   1     -41.602-122.472 -51.093  0.00  0.00     0.011 C 
BRANCH   5   6
ATOM      6  C   UNL d   1     -41.608-122.879 -50.377  0.00  0.00     0.030 A 
ATOM      7  S   UNL d   1     -41.132-123.494 -50.074  0.00  0.00    -0.086 SA
ATOM      8  C   UNL d   1     -41.403-123.683 -49.310  0.00  0.00     0.035 A 
ATOM      9  C   UNL d   1     -42.047-123.188 -49.130  0.00  0.00     0.007 A 
ATOM     10  C   UNL d   1     -42.177-122.686 -49.794  0.00  0.00     0.007 A 
ENDBRANCH   5   6
ENDBRANCH   4   5
ENDBRANCH   2   4
BRANCH   1  11
ATOM     11  C   UNL d   1     -41.764-122.637 -53.893  0.00  0.00     0.085 A 
ATOM     12  C   UNL d   1     -41.513-123.023 -54.561  0.00  0.00     0.018 A 
ATOM     13  C   UNL d   1     -41.123-123.745 -54.504  0.00  0.00     0.002 C 
ATOM     14  C   UNL d   1     -41.646-122.694 -55.312  0.00  0.00     0.002 A 
ATOM     15  C   UNL d   1     -42.038-121.969 -55.372  0.00  0.00     0.000 A 
ATOM     16  C   UNL d   1     -42.295-121.574 -54.695  0.00  0.00     0.002 A 
ATOM     17  C   UNL d   1     -42.158-121.908 -53.955  0.00  0.00     0.019 A 
ENDBRANCH   1  11
TORSDOF 4
ENDMDL
MODEL 2
REMARK VINA RESULT:      -4.9      1.379      4.475
REMARK  4 active torsions:
REMARK  status: ('A' for Active; 'I' for Inactive)
REMARK       I    between atoms: C_2  and  N_1 
REMARK    1  A    between atoms: C_7  and  N_1 
REMARK    2  A    between atoms: C_5  and  C_2 
REMARK    3  A    between atoms: C_3  and  C_6 
REMARK    4  A    between atoms: C_6  and  C_5 
ROOT
ATOM      1  N   UNL d   1     -41.824-122.476 -51.166  0.00  0.00    -0.208 NA
ATOM      2  C   UNL d   1     -41.492-122.820 -51.830  0.00  0.00     0.279 C 
ATOM      3  O   UNL d   1     -41.123-123.556 -51.771  0.00  0.00    -0.265 OA
ENDROOT
BRANCH   2   4
ATOM      4  C   UNL d   1     -41.522-122.437 -52.558  0.00  0.00     0.063 C 
BRANCH   4   5
ATOM      5  C   UNL d   1     -41.377-122.854 -53.254  0.00  0.00     0.011 C 
BRANCH   5   6
ATOM      6  C   UNL d   1     -41.619-122.549 -53.980  0.00  0.00     0.030 A 
ATOM      7  S   UNL d   1     -42.238-122.034 -54.197  0.00  0.00    -0.086 SA
ATOM      8  C   UNL d   1     -42.209-121.922 -55.021  0.00  0.00     0.035 A 
ATOM      9  C   UNL d   1     -41.573-122.365 -55.324  0.00  0.00     0.007 A 
ATOM     10  C   UNL d   1     -41.203-122.756 -54.677  0.00  0.00     0.007 A 
ENDBRANCH   5   6
ENDBRANCH   4   5
ENDBRANCH   2   4
BRANCH   1  11
ATOM     11  C   UNL d   1     -41.794-122.860 -50.438  0.00  0.00     0.085 A 
ATOM     12  C   UNL d   1     -42.392-122.751 -49.900  0.00  0.00     0.018 A 
ATOM     13  C   UNL d   1     -43.028-122.260 -50.077  0.00  0.00     0.002 C 
ATOM     14  C   UNL d   1     -42.370-123.134 -49.164  0.00  0.00     0.002 A 
ATOM     15  C   UNL d   1     -41.732-123.627 -48.983  0.00  0.00     0.000 A 
ATOM     16  C   UNL d   1     -41.123-123.740 -49.528  0.00  0.00     0.002 A 
ATOM     17  C   UNL d   1     -41.153-123.356 -50.255  0.00  0.00     0.019 A 
ENDBRANCH   1  11
TORSDOF 4
ENDMDL
MODEL 3
REMARK VINA RESULT:      -4.7      0.725      1.216
REMARK  4 active torsions:
REMARK  status: ('A' for Active; 'I' for Inactive)
REMARK       I    between atoms: C_2  and  N_1 
REMARK    1  A    between atoms: C_7  and  N_1 
REMARK    2  A    between atoms: C_5  and  C_2 
REMARK    3  A    between atoms: C_3  and  C_6 
REMARK    4  A    between atoms: C_6  and  C_5 
ROOT
ATOM      1  N   UNL d   1     -41.470-122.368 -52.895  0.00  0.00    -0.208 NA
ATOM      2  C   UNL d   1     -41.369-123.020 -52.410  0.00  0.00     0.279 C 
ATOM      3  O   UNL d   1     -41.319-123.775 -52.739  0.00  0.00    -0.265 OA
ENDROOT
BRANCH   2   4
ATOM      4  C   UNL d   1     -41.316-122.928 -51.593  0.00  0.00     0.063 C 
BRANCH   4   5
ATOM      5  C   UNL d   1     -41.654-123.485 -51.089  0.00  0.00     0.011 C 
BRANCH   5   6
ATOM      6  C   UNL d   1     -41.700-123.339 -50.280  0.00  0.00     0.030 A 
ATOM      7  S   UNL d   1     -41.124-123.153 -49.706  0.00  0.00    -0.086 SA
ATOM      8  C   UNL d   1     -41.504-123.066 -48.971  0.00  0.00     0.035 A 
ATOM      9  C   UNL d   1     -42.318-123.196 -49.079  0.00  0.00     0.007 A 
ATOM     10  C   UNL d   1     -42.444-123.366 -49.894  0.00  0.00     0.007 A 
ENDBRANCH   5   6
ENDBRANCH   4   5
ENDBRANCH   2   4
BRANCH   1  11
ATOM     11  C   UNL d   1     -41.523-122.462 -53.712  0.00  0.00     0.085 A 
ATOM     12  C   UNL d   1     -41.965-121.939 -54.149  0.00  0.00     0.018 A 
ATOM     13  C   UNL d   1     -42.361-121.318 -53.781  0.00  0.00     0.002 C 
ATOM     14  C   UNL d   1     -42.025-122.025 -54.972  0.00  0.00     0.002 A 
ATOM     15  C   UNL d   1     -41.629-122.648 -55.344  0.00  0.00     0.000 A 
ATOM     16  C   UNL d   1     -41.179-123.180 -54.903  0.00  0.00     0.002 A 
ATOM     17  C   UNL d   1     -41.126-123.088 -54.086  0.00  0.00     0.019 A 
ENDBRANCH   1  11
TORSDOF 4
ENDMDL
