MODEL 1
REMARK VINA RESULT:      24.4      0.000      0.000
REMARK  2 active torsions:
REMARK  status: ('A' for Active; 'I' for Inactive)
REMARK    1  A    between atoms: N_6  and  C_1 
REMARK    2  A    between atoms: C_7  and  C_2 
REMARK       I    between atoms: C_8  and  N_6 
ROOT
ATOM      1  C   UNL d   1     -57.551 -98.848 -44.569  0.00  0.00     0.119 A 
ATOM      2  C   UNL d   1     -58.313 -98.804 -44.323  0.00  0.00     0.084 A 
ATOM      3  S   UNL d   1     -57.544 -98.868 -45.404  0.00  0.00    -0.068 SA
ATOM      4  C   UNL d   1     -58.792 -98.796 -44.976  0.00  0.00     0.013 A 
ATOM      5  C   UNL d   1     -58.310 -98.836 -45.652  0.00  0.00     0.031 A 
ATOM      6  C   UNL d   1     -59.612 -98.757 -45.053  0.00  0.00     0.001 A 
ATOM      7  C   UNL d   1     -58.669 -98.836 -46.395  0.00  0.00     0.006 A 
ATOM      8  C   UNL d   1     -59.957 -98.758 -45.808  0.00  0.00     0.000 A 
ATOM      9  C   UNL d   1     -59.482 -98.797 -46.454  0.00  0.00     0.001 A 
ENDROOT
BRANCH   1  10
ATOM     10  N   UNL d   1     -56.871 -98.869 -44.053  0.00  0.00    -0.201 NA
ATOM     11  C   UNL d   1     -56.107 -98.930 -44.350  0.00  0.00     0.280 C 
ATOM     12  O   UNL d   1     -55.975 -98.974 -45.178  0.00  0.00    -0.265 OA
ATOM     13  C   UNL d   1     -55.458 -98.950 -43.840  0.00  0.00     0.068 C 
ENDBRANCH   1  10
BRANCH   2  14
ATOM     14  C   UNL d   1     -58.549 -98.773 -43.513  0.00  0.00     0.299 C 
ATOM     15  O   UNL d   1     -59.363 -98.755 -43.348  0.00  0.00    -0.264 OA
ATOM     16  N   UNL d   1     -58.001 -98.761 -42.903  0.00  0.00    -0.102 N 
ENDBRANCH   2  14
TORSDOF 2
ENDMDL
MODEL 2
REMARK VINA RESULT:      26.8      1.280      3.030
REMARK  2 active torsions:
REMARK  status: ('A' for Active; 'I' for Inactive)
REMARK    1  A    between atoms: N_6  and  C_1 
REMARK    2  A    between atoms: C_7  and  C_2 
REMARK       I    between atoms: C_8  and  N_6 
ROOT
ATOM      1  C   UNL d   1     -57.956 -98.810 -44.263  0.00  0.00     0.119 A 
ATOM      2  C   UNL d   1     -57.706 -98.785 -45.025  0.00  0.00     0.084 A 
ATOM      3  S   UNL d   1     -57.285 -98.822 -43.765  0.00  0.00    -0.068 SA
ATOM      4  C   UNL d   1     -56.897 -98.781 -45.028  0.00  0.00     0.013 A 
ATOM      5  C   UNL d   1     -56.633 -98.805 -44.240  0.00  0.00     0.031 A 
ATOM      6  C   UNL d   1     -56.352 -98.760 -45.646  0.00  0.00     0.001 A 
ATOM      7  C   UNL d   1     -55.822 -98.806 -44.093  0.00  0.00     0.006 A 
ATOM      8  C   UNL d   1     -55.538 -98.762 -45.481  0.00  0.00     0.000 A 
ATOM      9  C   UNL d   1     -55.295 -98.784 -44.716  0.00  0.00     0.001 A 
ENDROOT
BRANCH   1  10
ATOM     10  N   UNL d   1     -58.773 -98.821 -44.017  0.00  0.00    -0.201 NA
ATOM     11  C   UNL d   1     -58.984 -98.795 -43.222  0.00  0.00     0.280 C 
ATOM     12  O   UNL d   1     -58.393 -98.757 -42.627  0.00  0.00    -0.265 OA
ATOM     13  C   UNL d   1     -59.778 -98.806 -42.997  0.00  0.00     0.068 C 
ENDBRANCH   1  10
BRANCH   2  14
ATOM     14  C   UNL d   1     -58.222 -98.766 -45.692  0.00  0.00     0.299 C 
ATOM     15  O   UNL d   1     -57.877 -98.757 -46.448  0.00  0.00    -0.264 OA
ATOM     16  N   UNL d   1     -59.038 -98.758 -45.610  0.00  0.00    -0.102 N 
ENDBRANCH   2  14
TORSDOF 2
ENDMDL
