MODEL 1
REMARK VINA RESULT:      -7.7      0.000      0.000
REMARK  1 active torsions:
REMARK  status: ('A' for Active; 'I' for Inactive)
REMARK    1  A    between atoms: C_4  and  C_1 
ROOT
ATOM      1  C   UNL d   1     -48.667  12.983  22.945  0.00  0.00     0.112 A 
ATOM      2  N   UNL d   1     -48.365  13.757  22.928  0.00  0.00    -0.238 NA
ATOM      3  S   UNL d   1     -48.024  12.452  22.937  0.00  0.00    -0.066 SA
ATOM      4  C   UNL d   1     -47.536  13.705  22.910  0.00  0.00     0.088 A 
ATOM      5  C   UNL d   1     -47.326  12.901  22.916  0.00  0.00     0.049 A 
ATOM      6  C   UNL d   1     -46.949  14.285  22.890  0.00  0.00     0.020 A 
ATOM      7  C   UNL d   1     -46.531  12.680  22.901  0.00  0.00     0.008 A 
ATOM      8  C   UNL d   1     -45.945  13.261  22.880  0.00  0.00     0.001 A 
ATOM      9  C   UNL d   1     -46.154  14.065  22.875  0.00  0.00     0.002 A 
ENDROOT
BRANCH   1  10
ATOM     10  C   UNL d   1     -49.466  12.771  22.966  0.00  0.00     0.043 A 
ATOM     11  C   UNL d   1     -49.905  12.757  22.263  0.00  0.00     0.105 A 
ATOM     12  N   UNL d   1     -49.544  12.954  21.548  0.00  0.00    -0.148 N 
ATOM     13  C   UNL d   1     -50.703  12.545  22.284  0.00  0.00     0.021 A 
ATOM     14  C   UNL d   1     -51.064  12.347  22.999  0.00  0.00     0.002 A 
ATOM     15  C   UNL d   1     -50.614  12.365  23.698  0.00  0.00     0.000 A 
ATOM     16  C   UNL d   1     -49.827  12.573  23.681  0.00  0.00     0.004 A 
ENDBRANCH   1  10
TORSDOF 1
ENDMDL
MODEL 2
REMARK VINA RESULT:      -7.5      1.175      3.238
REMARK  1 active torsions:
REMARK  status: ('A' for Active; 'I' for Inactive)
REMARK    1  A    between atoms: C_4  and  C_1 
ROOT
ATOM      1  C   UNL d   1     -48.691  12.826  22.831  0.00  0.00     0.112 A 
ATOM      2  N   UNL d   1     -49.211  13.310  23.263  0.00  0.00    -0.238 NA
ATOM      3  S   UNL d   1     -49.005  12.725  22.065  0.00  0.00    -0.066 SA
ATOM      4  C   UNL d   1     -49.845  13.509  22.765  0.00  0.00     0.088 A 
ATOM      5  C   UNL d   1     -49.718  13.149  22.027  0.00  0.00     0.049 A 
ATOM      6  C   UNL d   1     -50.518  13.970  22.889  0.00  0.00     0.020 A 
ATOM      7  C   UNL d   1     -50.265  13.251  21.417  0.00  0.00     0.008 A 
ATOM      8  C   UNL d   1     -50.938  13.712  21.542  0.00  0.00     0.001 A 
ATOM      9  C   UNL d   1     -51.064  14.073  22.280  0.00  0.00     0.002 A 
ENDROOT
BRANCH   1  10
ATOM     10  C   UNL d   1     -47.985  12.498  23.108  0.00  0.00     0.043 A 
ATOM     11  C   UNL d   1     -47.284  12.938  23.067  0.00  0.00     0.105 A 
ATOM     12  N   UNL d   1     -47.294  13.701  22.750  0.00  0.00    -0.148 N 
ATOM     13  C   UNL d   1     -46.578  12.611  23.344  0.00  0.00     0.021 A 
ATOM     14  C   UNL d   1     -46.567  11.849  23.660  0.00  0.00     0.002 A 
ATOM     15  C   UNL d   1     -47.276  11.416  23.696  0.00  0.00     0.000 A 
ATOM     16  C   UNL d   1     -47.974  11.736  23.424  0.00  0.00     0.004 A 
ENDBRANCH   1  10
TORSDOF 1
ENDMDL
