MODEL 1
REMARK VINA RESULT:       8.2      0.000      0.000
REMARK  5 active torsions:
REMARK  status: ('A' for Active; 'I' for Inactive)
REMARK    1  A    between atoms: N_8  and  C_1 
REMARK    2  A    between atoms: C_3  and  S_13 
REMARK       I    between atoms: C_12  and  N_8 
REMARK    3  A    between atoms: C_16  and  C_9 
REMARK    4  A    between atoms: C_15  and  C_12 
REMARK    5  A    between atoms: S_13  and  C_15 
ROOT
ATOM      1  C   UNL d   1      45.707 -16.201  44.076  0.00  0.00     0.100 C 
ENDROOT
BRANCH   1   2
ATOM      2  S   UNL d   1      45.576 -15.712  44.729  0.00  0.00    -0.056 SA
BRANCH   2   3
ATOM      3  C   UNL d   1      45.559 -14.899  44.621  0.00  0.00     0.141 A 
ATOM      4  N   UNL d   1      45.011 -14.466  44.176  0.00  0.00    -0.232 NA
ATOM      5  C   UNL d   1      45.203 -13.666  44.219  0.00  0.00     0.088 A 
ATOM      6  C   UNL d   1      44.863 -12.983  43.894  0.00  0.00     0.020 A 
ATOM      7  C   UNL d   1      45.884 -13.594  44.699  0.00  0.00     0.049 A 
ATOM      8  C   UNL d   1      45.193 -12.242  44.043  0.00  0.00     0.002 A 
ATOM      9  C   UNL d   1      45.861 -12.179  44.515  0.00  0.00     0.001 A 
ATOM     10  C   UNL d   1      46.212 -12.861  44.847  0.00  0.00     0.008 A 
ATOM     11  S   UNL d   1      46.100 -14.358  44.944  0.00  0.00    -0.060 SA
ENDBRANCH   2   3
ENDBRANCH   1   2
BRANCH   1  12
ATOM     12  C   UNL d   1      45.887 -16.995  44.195  0.00  0.00     0.288 C 
ATOM     13  N   UNL d   1      46.065 -17.479  43.552  0.00  0.00    -0.181 NA
ATOM     14  O   UNL d   1      45.889 -17.313  44.952  0.00  0.00    -0.265 OA
BRANCH  13  15
ATOM     15  C   UNL d   1      46.245 -18.271  43.662  0.00  0.00     0.219 A 
ATOM     16  S   UNL d   1      46.333 -18.837  43.074  0.00  0.00    -0.026 SA
ATOM     17  C   UNL d   1      46.513 -19.558  43.433  0.00  0.00     0.135 A 
ATOM     18  N   UNL d   1      46.534 -19.432  44.251  0.00  0.00    -0.139 NA
ATOM     19  N   UNL d   1      46.369 -18.638  44.392  0.00  0.00    -0.121 NA
BRANCH  17  20
ATOM     20  C   UNL d   1      46.647 -20.277  43.054  0.00  0.00     0.028 C 
ATOM     21  C   UNL d   1      46.530 -20.329  42.236  0.00  0.00     0.002 C 
ENDBRANCH  17  20
ENDBRANCH  13  15
ENDBRANCH   1  12
TORSDOF 5
ENDMDL
MODEL 2
REMARK VINA RESULT:       8.7      1.017      5.457
REMARK  5 active torsions:
REMARK  status: ('A' for Active; 'I' for Inactive)
REMARK    1  A    between atoms: N_8  and  C_1 
REMARK    2  A    between atoms: C_3  and  S_13 
REMARK       I    between atoms: C_12  and  N_8 
REMARK    3  A    between atoms: C_16  and  C_9 
REMARK    4  A    between atoms: C_15  and  C_12 
REMARK    5  A    between atoms: S_13  and  C_15 
ROOT
ATOM      1  C   UNL d   1      45.652 -16.547  44.252  0.00  0.00     0.100 C 
ENDROOT
BRANCH   1   2
ATOM      2  S   UNL d   1      46.203 -17.108  44.506  0.00  0.00    -0.056 SA
BRANCH   2   3
ATOM      3  C   UNL d   1      46.290 -17.802  44.078  0.00  0.00     0.141 A 
ATOM      4  N   UNL d   1      46.459 -17.873  43.270  0.00  0.00    -0.232 NA
ATOM      5  C   UNL d   1      46.497 -18.671  43.073  0.00  0.00     0.088 A 
ATOM      6  C   UNL d   1      46.644 -19.073  42.362  0.00  0.00     0.020 A 
ATOM      7  C   UNL d   1      46.349 -19.112  43.768  0.00  0.00     0.049 A 
ATOM      8  C   UNL d   1      46.645 -19.897  42.343  0.00  0.00     0.002 A 
ATOM      9  C   UNL d   1      46.499 -20.324  43.028  0.00  0.00     0.001 A 
ATOM     10  C   UNL d   1      46.350 -19.928  43.749  0.00  0.00     0.008 A 
ATOM     11  S   UNL d   1      46.222 -18.570  44.385  0.00  0.00    -0.060 SA
ENDBRANCH   2   3
ENDBRANCH   1   2
BRANCH   1  12
ATOM     12  C   UNL d   1      45.777 -15.751  44.424  0.00  0.00     0.288 C 
ATOM     13  N   UNL d   1      45.309 -15.174  44.067  0.00  0.00    -0.181 NA
ATOM     14  O   UNL d   1      46.365 -15.526  44.950  0.00  0.00    -0.265 OA
BRANCH  13  15
ATOM     15  C   UNL d   1      45.428 -14.380  44.233  0.00  0.00     0.219 A 
ATOM     16  S   UNL d   1      45.275 -13.749  43.730  0.00  0.00    -0.026 SA
ATOM     17  C   UNL d   1      45.475 -13.050  44.122  0.00  0.00     0.135 A 
ATOM     18  N   UNL d   1      45.753 -13.256  44.874  0.00  0.00    -0.139 NA
ATOM     19  N   UNL d   1      45.724 -14.076  44.942  0.00  0.00    -0.121 NA
BRANCH  17  20
ATOM     20  C   UNL d   1      45.412 -12.284  43.826  0.00  0.00     0.028 C 
ATOM     21  C   UNL d   1      45.022 -12.162  43.106  0.00  0.00     0.002 C 
ENDBRANCH  17  20
ENDBRANCH  13  15
ENDBRANCH   1  12
TORSDOF 5
ENDMDL
