MODEL 1
REMARK VINA RESULT:      -6.6      0.000      0.000
REMARK  3 active torsions:
REMARK  status: ('A' for Active; 'I' for Inactive)
REMARK    1  A    between atoms: C_7  and  C_8 
REMARK       I    between atoms: N_10  and  C_7 
REMARK    2  A    between atoms: C_19  and  N_10 
REMARK    3  A    between atoms: C_11  and  C_19 
ROOT
ATOM      1  C   UNL d   1      56.845  -0.680  31.751  0.00  0.00     0.039 A 
ATOM      2  C   UNL d   1      56.368  -1.149  32.236  0.00  0.00     0.196 A 
ATOM      3  C   UNL d   1      56.863   0.080  32.070  0.00  0.00     0.003 A 
ATOM      4  C   UNL d   1      56.091  -0.675  32.856  0.00  0.00     0.039 A 
ATOM      5  C   UNL d   1      56.398   0.082  32.750  0.00  0.00     0.003 A 
ATOM      6  C   UNL d   1      57.263  -0.844  31.067  0.00  0.00     0.008 A 
ATOM      7  C   UNL d   1      57.698  -0.258  30.697  0.00  0.00     0.058 A 
ATOM      8  C   UNL d   1      57.302   0.681  31.702  0.00  0.00     0.000 A 
ATOM      9  O   UNL d   1      56.196  -1.948  32.126  0.00  0.00    -0.287 OA
ATOM     10  C   UNL d   1      57.721   0.506  31.010  0.00  0.00     0.005 A 
ATOM     11  C   UNL d   1      55.603  -0.838  33.495  0.00  0.00     0.003 A 
ATOM     12  C   UNL d   1      56.215   0.680  33.289  0.00  0.00     0.000 A 
ATOM     13  C   UNL d   1      55.419  -0.244  34.033  0.00  0.00     0.000 A 
ATOM     14  C   UNL d   1      55.724   0.517  33.932  0.00  0.00     0.000 A 
ENDROOT
BRANCH   7  15
ATOM     15  C   UNL d   1      58.119  -0.426  30.006  0.00  0.00     0.279 C 
ATOM     16  N   UNL d   1      58.452  -1.168  29.899  0.00  0.00    -0.204 NA
ATOM     17  O   UNL d   1      58.205   0.152  29.426  0.00  0.00    -0.265 OA
BRANCH  16  18
ATOM     18  C   UNL d   1      58.875  -1.343  29.209  0.00  0.00     0.127 C 
BRANCH  18  19
ATOM     19  C   UNL d   1      59.227  -2.078  29.115  0.00  0.00     0.119 A 
ATOM     20  O   UNL d   1      59.995  -2.274  29.330  0.00  0.00    -0.304 OA
ATOM     21  C   UNL d   1      60.123  -3.066  29.138  0.00  0.00     0.123 A 
ATOM     22  C   UNL d   1      59.424  -3.358  28.803  0.00  0.00     0.029 A 
ATOM     23  C   UNL d   1      58.869  -2.745  28.788  0.00  0.00     0.028 A 
ENDBRANCH  18  19
ENDBRANCH  16  18
ENDBRANCH   7  15
TORSDOF 3
ENDMDL
MODEL 2
REMARK VINA RESULT:      -5.0      1.117      4.881
REMARK  3 active torsions:
REMARK  status: ('A' for Active; 'I' for Inactive)
REMARK    1  A    between atoms: C_7  and  C_8 
REMARK       I    between atoms: N_10  and  C_7 
REMARK    2  A    between atoms: C_19  and  N_10 
REMARK    3  A    between atoms: C_11  and  C_19 
ROOT
ATOM      1  C   UNL d   1      58.796  -1.570  29.577  0.00  0.00     0.039 A 
ATOM      2  C   UNL d   1      58.838  -2.366  29.363  0.00  0.00     0.196 A 
ATOM      3  C   UNL d   1      59.519  -1.218  29.390  0.00  0.00     0.003 A 
ATOM      4  C   UNL d   1      59.589  -2.505  29.043  0.00  0.00     0.039 A 
ATOM      5  C   UNL d   1      60.006  -1.795  29.061  0.00  0.00     0.003 A 
ATOM      6  C   UNL d   1      58.202  -1.121  29.915  0.00  0.00     0.008 A 
ATOM      7  C   UNL d   1      58.318  -0.326  30.068  0.00  0.00     0.058 A 
ATOM      8  C   UNL d   1      59.647  -0.412  29.542  0.00  0.00     0.000 A 
ATOM      9  O   UNL d   1      58.240  -2.928  29.450  0.00  0.00    -0.287 OA
ATOM     10  C   UNL d   1      59.038   0.034  29.884  0.00  0.00     0.005 A 
ATOM     11  C   UNL d   1      59.939  -3.183  28.741  0.00  0.00     0.003 A 
ATOM     12  C   UNL d   1      60.779  -1.764  28.775  0.00  0.00     0.000 A 
ATOM     13  C   UNL d   1      60.709  -3.155  28.455  0.00  0.00     0.000 A 
ATOM     14  C   UNL d   1      61.132  -2.446  28.471  0.00  0.00     0.000 A 
ENDROOT
BRANCH   7  15
ATOM     15  C   UNL d   1      57.716   0.125  30.410  0.00  0.00     0.279 C 
ATOM     16  N   UNL d   1      57.520   0.017  31.200  0.00  0.00    -0.204 NA
ATOM     17  O   UNL d   1      57.312   0.682  29.957  0.00  0.00    -0.265 OA
BRANCH  16  18
ATOM     18  C   UNL d   1      56.918   0.466  31.548  0.00  0.00     0.127 C 
BRANCH  18  19
ATOM     19  C   UNL d   1      56.691   0.322  32.323  0.00  0.00     0.119 A 
ATOM     20  O   UNL d   1      57.132   0.500  32.993  0.00  0.00    -0.304 OA
ATOM     21  C   UNL d   1      56.700   0.264  33.656  0.00  0.00     0.123 A 
ATOM     22  C   UNL d   1      55.987  -0.062  33.387  0.00  0.00     0.029 A 
ATOM     23  C   UNL d   1      55.982  -0.026  32.561  0.00  0.00     0.028 A 
ENDBRANCH  18  19
ENDBRANCH  16  18
ENDBRANCH   7  15
TORSDOF 3
ENDMDL
MODEL 3
REMARK VINA RESULT:      -4.9      1.346      4.895
REMARK  3 active torsions:
REMARK  status: ('A' for Active; 'I' for Inactive)
REMARK    1  A    between atoms: C_7  and  C_8 
REMARK       I    between atoms: N_10  and  C_7 
REMARK    2  A    between atoms: C_19  and  N_10 
REMARK    3  A    between atoms: C_11  and  C_19 
ROOT
ATOM      1  C   UNL d   1      58.152  -0.860  30.316  0.00  0.00     0.039 A 
ATOM      2  C   UNL d   1      58.683  -1.282  29.845  0.00  0.00     0.196 A 
ATOM      3  C   UNL d   1      58.253  -0.057  30.158  0.00  0.00     0.003 A 
ATOM      4  C   UNL d   1      59.112  -0.736  29.394  0.00  0.00     0.039 A 
ATOM      5  C   UNL d   1      58.845   0.018  29.590  0.00  0.00     0.003 A 
ATOM      6  C   UNL d   1      57.594  -1.099  30.865  0.00  0.00     0.008 A 
ATOM      7  C   UNL d   1      57.136  -0.546  31.257  0.00  0.00     0.058 A 
ATOM      8  C   UNL d   1      57.793   0.511  30.551  0.00  0.00     0.000 A 
ATOM      9  O   UNL d   1      58.772  -2.102  29.823  0.00  0.00    -0.287 OA
ATOM     10  C   UNL d   1      57.231   0.260  31.105  0.00  0.00     0.005 A 
ATOM     11  C   UNL d   1      59.707  -0.833  28.837  0.00  0.00     0.003 A 
ATOM     12  C   UNL d   1      59.176   0.679  29.224  0.00  0.00     0.000 A 
ATOM     13  C   UNL d   1      60.038  -0.175  28.471  0.00  0.00     0.000 A 
ATOM     14  C   UNL d   1      59.774   0.583  28.663  0.00  0.00     0.000 A 
ENDROOT
BRANCH   7  15
ATOM     15  C   UNL d   1      56.573  -0.789  31.811  0.00  0.00     0.279 C 
ATOM     16  N   UNL d   1      56.326  -0.272  32.398  0.00  0.00    -0.204 NA
ATOM     17  O   UNL d   1      56.261  -1.550  31.774  0.00  0.00    -0.265 OA
BRANCH  16  18
ATOM     18  C   UNL d   1      55.762  -0.508  32.957  0.00  0.00     0.127 C 
BRANCH  18  19
ATOM     19  C   UNL d   1      55.626  -0.053  33.625  0.00  0.00     0.119 A 
ATOM     20  O   UNL d   1      56.190   0.162  34.182  0.00  0.00    -0.304 OA
ATOM     21  C   UNL d   1      55.819   0.618  34.762  0.00  0.00     0.123 A 
ATOM     22  C   UNL d   1      55.019   0.681  34.557  0.00  0.00     0.029 A 
ATOM     23  C   UNL d   1      54.900   0.265  33.852  0.00  0.00     0.028 A 
ENDBRANCH  18  19
ENDBRANCH  16  18
ENDBRANCH   7  15
TORSDOF 3
ENDMDL
