MODEL 1
REMARK VINA RESULT:      22.3      0.000      0.000
REMARK  5 active torsions:
REMARK  status: ('A' for Active; 'I' for Inactive)
REMARK    1  A    between atoms: N_2  and  C_1 
REMARK    2  A    between atoms: C_5  and  C_1 
REMARK    3  A    between atoms: O_4  and  N_2 
REMARK    4  A    between atoms: C_3  and  O_4 
REMARK    5  A    between atoms: C_6  and  C_3 
ROOT
ATOM      1  O   UNL d   1     -56.909 -99.384 -44.653  0.00  0.00    -0.168 OA
ENDROOT
BRANCH   1   2
ATOM      2  C   UNL d   1     -57.747 -99.076 -44.843  0.00  0.00     0.319 C 
ATOM      3  O   UNL d   1     -57.973 -98.859 -45.685  0.00  0.00    -0.257 OA
BRANCH   2   4
ATOM      4  C   UNL d   1     -58.304 -98.995 -44.236  0.00  0.00     0.065 A 
ATOM      5  C   UNL d   1     -58.048 -99.040 -43.445  0.00  0.00     0.005 A 
ATOM      6  C   UNL d   1     -58.616 -98.958 -42.843  0.00  0.00     0.000 A 
ATOM      7  C   UNL d   1     -59.411 -98.835 -43.018  0.00  0.00     0.000 A 
ATOM      8  C   UNL d   1     -59.633 -98.795 -43.811  0.00  0.00     0.000 A 
ATOM      9  C   UNL d   1     -59.961 -98.755 -42.408  0.00  0.00     0.000 C 
ATOM     10  C   UNL d   1     -59.097 -98.872 -44.410  0.00  0.00     0.005 A 
ENDBRANCH   2   4
ENDBRANCH   1   2
BRANCH   1  11
ATOM     11  N   UNL d   1     -56.250 -99.058 -45.004  0.00  0.00    -0.100 NA
BRANCH  11  12
ATOM     12  C   UNL d   1     -55.493 -99.305 -44.809  0.00  0.00     0.228 C 
ATOM     13  N   UNL d   1     -54.879 -98.756 -44.808  0.00  0.00    -0.123 N 
BRANCH  12  14
ATOM     14  C   UNL d   1     -55.333-100.083 -44.615  0.00  0.00     0.121 A 
ATOM     15  N   UNL d   1     -55.596-100.689 -45.094  0.00  0.00    -0.241 NA
ATOM     16  C   UNL d   1     -55.430-101.481 -44.891  0.00  0.00     0.099 A 
ATOM     17  C   UNL d   1     -54.999-101.646 -44.205  0.00  0.00     0.021 A 
ATOM     18  C   UNL d   1     -54.732-101.028 -43.719  0.00  0.00     0.003 A 
ATOM     19  C   UNL d   1     -54.902-100.248 -43.929  0.00  0.00     0.022 A 
ENDBRANCH  12  14
ENDBRANCH  11  12
ENDBRANCH   1  11
TORSDOF 5
ENDMDL
