MODEL 1
REMARK VINA RESULT:      56.0      0.000      0.000
REMARK  7 active torsions:
REMARK  status: ('A' for Active; 'I' for Inactive)
REMARK    1  A    between atoms: S_9  and  C_2 
REMARK    2  A    between atoms: C_15  and  C_5 
REMARK    3  A    between atoms: C_6  and  C_7 
REMARK       I    between atoms: C_7  and  N_8 
REMARK    4  A    between atoms: N_8  and  C_15 
REMARK    5  A    between atoms: C_14  and  S_9 
REMARK    6  A    between atoms: C_10  and  C_14 
REMARK    7  A    between atoms: C_12  and  C_10 
ROOT
ATOM      1  O   UNL d   1     -54.962-101.125 -42.219  0.00  0.00    -0.262 OA
ATOM      2  C   UNL d   1     -54.926-101.930 -42.027  0.00  0.00     0.236 A 
ATOM      3  N   UNL d   1     -55.049-102.355 -42.713  0.00  0.00    -0.114 NA
ATOM      4  N   UNL d   1     -55.160-101.822 -43.326  0.00  0.00    -0.119 NA
ATOM      5  C   UNL d   1     -55.107-101.065 -43.022  0.00  0.00     0.224 A 
ENDROOT
BRANCH   2   6
ATOM      6  S   UNL d   1     -54.790-102.239 -41.277  0.00  0.00    -0.037 SA
BRANCH   6   7
ATOM      7  C   UNL d   1     -55.327-102.750 -40.940  0.00  0.00     0.081 C 
BRANCH   7   8
ATOM      8  C   UNL d   1     -55.860-102.482 -40.360  0.00  0.00     0.202 C 
ATOM      9  O   UNL d   1     -56.576-102.156 -40.584  0.00  0.00    -0.286 OA
BRANCH   8  10
ATOM     10  C   UNL d   1     -55.664-102.547 -39.563  0.00  0.00     0.040 A 
ATOM     11  C   UNL d   1     -54.914-102.805 -39.347  0.00  0.00     0.004 A 
ATOM     12  C   UNL d   1     -54.714-102.871 -38.547  0.00  0.00     0.011 A 
ATOM     13  C   UNL d   1     -55.263-102.679 -37.962  0.00  0.00     0.058 A 
ATOM     14  C   UNL d   1     -56.015-102.420 -38.182  0.00  0.00     0.011 A 
ATOM     15 CL   UNL d   1     -55.063-102.745 -37.172  0.00  0.00    -0.082 Cl
ATOM     16  C   UNL d   1     -56.223-102.352 -38.978  0.00  0.00     0.004 A 
ENDBRANCH   8  10
ENDBRANCH   7   8
ENDBRANCH   6   7
ENDBRANCH   2   6
BRANCH   5  17
ATOM     17  C   UNL d   1     -55.185-100.366 -43.449  0.00  0.00     0.149 C 
BRANCH  17  18
ATOM     18  N   UNL d   1     -55.913 -99.994 -43.506  0.00  0.00    -0.203 NA
ATOM     19  C   UNL d   1     -56.263 -99.886 -44.246  0.00  0.00     0.281 C 
ATOM     20  O   UNL d   1     -55.887-100.149 -44.925  0.00  0.00    -0.265 OA
BRANCH  19  21
ATOM     21  C   UNL d   1     -56.995 -99.511 -44.298  0.00  0.00     0.085 A 
ATOM     22  C   UNL d   1     -57.472 -99.479 -43.638  0.00  0.00     0.145 A 
ATOM     23  F   UNL d   1     -57.241 -99.810 -42.922  0.00  0.00    -0.204 F 
ATOM     24  C   UNL d   1     -58.205 -99.099 -43.705  0.00  0.00     0.030 A 
ATOM     25  C   UNL d   1     -58.462 -98.756 -44.416  0.00  0.00     0.002 A 
ATOM     26  C   UNL d   1     -57.954 -98.804 -45.075  0.00  0.00     0.000 A 
ATOM     27  C   UNL d   1     -57.221 -99.184 -45.009  0.00  0.00     0.007 A 
ENDBRANCH  19  21
ENDBRANCH  17  18
ENDBRANCH   5  17
TORSDOF 7
ENDMDL
MODEL 2
REMARK VINA RESULT:      56.1      3.072      5.999
REMARK  7 active torsions:
REMARK  status: ('A' for Active; 'I' for Inactive)
REMARK    1  A    between atoms: S_9  and  C_2 
REMARK    2  A    between atoms: C_15  and  C_5 
REMARK    3  A    between atoms: C_6  and  C_7 
REMARK       I    between atoms: C_7  and  N_8 
REMARK    4  A    between atoms: N_8  and  C_15 
REMARK    5  A    between atoms: C_14  and  S_9 
REMARK    6  A    between atoms: C_10  and  C_14 
REMARK    7  A    between atoms: C_12  and  C_10 
ROOT
ATOM      1  O   UNL d   1     -55.500-102.507 -39.890  0.00  0.00    -0.262 OA
ATOM      2  C   UNL d   1     -55.605-102.588 -40.708  0.00  0.00     0.236 A 
ATOM      3  N   UNL d   1     -56.383-102.796 -40.840  0.00  0.00    -0.114 NA
ATOM      4  N   UNL d   1     -56.760-102.844 -40.112  0.00  0.00    -0.119 NA
ATOM      5  C   UNL d   1     -56.216-102.666 -39.529  0.00  0.00     0.224 A 
ENDROOT
BRANCH   2   6
ATOM      6  S   UNL d   1     -55.024-102.478 -41.280  0.00  0.00    -0.037 SA
BRANCH   6   7
ATOM      7  C   UNL d   1     -54.716-101.736 -41.413  0.00  0.00     0.081 C 
BRANCH   7   8
ATOM      8  C   UNL d   1     -55.064-101.227 -41.970  0.00  0.00     0.202 C 
ATOM      9  O   UNL d   1     -55.492-100.577 -41.716  0.00  0.00    -0.286 OA
BRANCH   8  10
ATOM     10  C   UNL d   1     -54.978-101.377 -42.775  0.00  0.00     0.040 A 
ATOM     11  C   UNL d   1     -54.799-100.761 -43.288  0.00  0.00     0.004 A 
ATOM     12  C   UNL d   1     -54.711-100.907 -44.097  0.00  0.00     0.011 A 
ATOM     13  C   UNL d   1     -54.802-101.672 -44.394  0.00  0.00     0.058 A 
ATOM     14  C   UNL d   1     -54.981-102.289 -43.877  0.00  0.00     0.011 A 
ATOM     15 CL   UNL d   1     -54.715-101.815 -45.195  0.00  0.00    -0.082 Cl
ATOM     16  C   UNL d   1     -55.071-102.151 -43.068  0.00  0.00     0.004 A 
ENDBRANCH   8  10
ENDBRANCH   7   8
ENDBRANCH   6   7
ENDBRANCH   2   6
BRANCH   5  17
ATOM     17  C   UNL d   1     -56.364-102.651 -38.719  0.00  0.00     0.149 C 
BRANCH  17  18
ATOM     18  N   UNL d   1     -55.954-102.134 -38.232  0.00  0.00    -0.203 NA
ATOM     19  C   UNL d   1     -55.959-102.247 -37.415  0.00  0.00     0.281 C 
ATOM     20  O   UNL d   1     -56.371-102.875 -37.086  0.00  0.00    -0.265 OA
BRANCH  19  21
ATOM     21  C   UNL d   1     -55.546-101.725 -36.930  0.00  0.00     0.085 A 
ATOM     22  C   UNL d   1     -55.490-101.883 -36.133  0.00  0.00     0.145 A 
ATOM     23  F   UNL d   1     -55.836-102.550 -35.800  0.00  0.00    -0.204 F 
ATOM     24  C   UNL d   1     -55.072-101.349 -35.658  0.00  0.00     0.030 A 
ATOM     25  C   UNL d   1     -54.713-100.668 -35.968  0.00  0.00     0.002 A 
ATOM     26  C   UNL d   1     -54.785-100.531 -36.788  0.00  0.00     0.000 A 
ATOM     27  C   UNL d   1     -55.203-101.064 -37.263  0.00  0.00     0.007 A 
ENDBRANCH  19  21
ENDBRANCH  17  18
ENDBRANCH   5  17
TORSDOF 7
ENDMDL
