MODEL 1
REMARK VINA RESULT:      -8.2      0.000      0.000
REMARK  7 active torsions:
REMARK  status: ('A' for Active; 'I' for Inactive)
REMARK    1  A    between atoms: C_3  and  S_1 
REMARK    2  A    between atoms: N_8  and  S_1 
REMARK    3  A    between atoms: C_4  and  N_2 
REMARK    4  A    between atoms: N_5  and  C_19 
REMARK    5  A    between atoms: C_14  and  N_8 
REMARK    6  A    between atoms: O_21  and  C_11 
REMARK    7  A    between atoms: C_19  and  C_14 
ROOT
ATOM      1  N   UNL d   1      52.169  33.574  53.442  0.00  0.00    -0.300 N 
ATOM      2  N   UNL d   1      50.784  34.186  52.777  0.00  0.00    -0.299 N 
ATOM      3  C   UNL d   1      52.213  34.163  52.869  0.00  0.00     0.100 A 
ATOM      4  C   UNL d   1      51.428  33.286  53.686  0.00  0.00     0.100 A 
ATOM      5  C   UNL d   1      51.522  34.469  52.537  0.00  0.00     0.100 A 
ATOM      6  C   UNL d   1      50.741  33.590  53.356  0.00  0.00     0.100 A 
ENDROOT
BRANCH   2   7
ATOM      7  C   UNL d   1      50.093  34.491  52.445  0.00  0.00     0.102 C 
BRANCH   7   8
ATOM      8  C   UNL d   1      49.542  34.892  52.915  0.00  0.00     0.131 C 
BRANCH   8   9
ATOM      9  N   UNL d   1      49.092  35.497  52.603  0.00  0.00    -0.155 NA
BRANCH   9  10
ATOM     10  S   UNL d   1      48.407  35.743  52.988  0.00  0.00     0.285 S 
ATOM     11  O   UNL d   1      47.950  35.359  52.415  0.00  0.00    -0.198 OA
ATOM     12  O   UNL d   1      48.864  36.128  53.561  0.00  0.00    -0.198 OA
BRANCH  10  13
ATOM     13  C   UNL d   1      47.717  35.985  53.366  0.00  0.00     0.105 A 
ATOM     14  C   UNL d   1      47.696  36.042  54.188  0.00  0.00     0.013 A 
ATOM     15  C   UNL d   1      47.009  36.283  54.575  0.00  0.00     0.001 A 
ATOM     16  C   UNL d   1      46.338  36.468  54.126  0.00  0.00     0.000 A 
ATOM     17  C   UNL d   1      46.363  36.410  53.303  0.00  0.00     0.001 A 
ATOM     18  C   UNL d   1      45.655  36.708  54.511  0.00  0.00     0.000 C 
ATOM     19  C   UNL d   1      47.057  36.167  52.930  0.00  0.00     0.013 A 
ENDBRANCH  10  13
ENDBRANCH   9  10
ENDBRANCH   8   9
ENDBRANCH   7   8
ENDBRANCH   2   7
BRANCH   1  20
ATOM     20  C   UNL d   1      52.860  33.268  53.774  0.00  0.00     0.086 A 
ATOM     21  C   UNL d   1      53.137  32.519  53.554  0.00  0.00     0.110 A 
ATOM     22  C   UNL d   1      53.831  32.212  53.888  0.00  0.00     0.026 A 
ATOM     23  C   UNL d   1      54.242  32.657  54.437  0.00  0.00     0.002 A 
ATOM     24  C   UNL d   1      53.973  33.409  54.663  0.00  0.00     0.002 A 
ATOM     25  C   UNL d   1      53.289  33.711  54.335  0.00  0.00     0.019 A 
BRANCH  21  26
ATOM     26  O   UNL d   1      52.707  32.072  52.990  0.00  0.00    -0.327 OA
ATOM     27  C   UNL d   1      52.929  31.286  52.846  0.00  0.00     0.181 C 
ENDBRANCH  21  26
ENDBRANCH   1  20
TORSDOF 7
ENDMDL
MODEL 2
REMARK VINA RESULT:      -7.0      1.765      6.284
REMARK  7 active torsions:
REMARK  status: ('A' for Active; 'I' for Inactive)
REMARK    1  A    between atoms: C_3  and  S_1 
REMARK    2  A    between atoms: N_8  and  S_1 
REMARK    3  A    between atoms: C_4  and  N_2 
REMARK    4  A    between atoms: N_5  and  C_19 
REMARK    5  A    between atoms: C_14  and  N_8 
REMARK    6  A    between atoms: O_21  and  C_11 
REMARK    7  A    between atoms: C_19  and  C_14 
ROOT
ATOM      1  N   UNL d   1      49.572  34.654  52.075  0.00  0.00    -0.300 N 
ATOM      2  N   UNL d   1      51.075  34.090  52.474  0.00  0.00    -0.299 N 
ATOM      3  C   UNL d   1      49.715  34.364  52.832  0.00  0.00     0.100 A 
ATOM      4  C   UNL d   1      50.183  34.663  51.511  0.00  0.00     0.100 A 
ATOM      5  C   UNL d   1      50.465  34.082  53.031  0.00  0.00     0.100 A 
ATOM      6  C   UNL d   1      50.929  34.383  51.709  0.00  0.00     0.100 A 
ENDROOT
BRANCH   2   7
ATOM      7  C   UNL d   1      51.824  33.809  52.673  0.00  0.00     0.102 C 
BRANCH   7   8
ATOM      8  C   UNL d   1      51.953  32.999  52.790  0.00  0.00     0.131 C 
BRANCH   8   9
ATOM      9  N   UNL d   1      52.703  32.685  52.726  0.00  0.00    -0.155 NA
BRANCH   9  10
ATOM     10  S   UNL d   1      52.866  31.938  53.033  0.00  0.00     0.285 S 
ATOM     11  O   UNL d   1      52.625  31.595  52.319  0.00  0.00    -0.198 OA
ATOM     12  O   UNL d   1      53.106  32.281  53.746  0.00  0.00    -0.198 OA
BRANCH  10  13
ATOM     13  C   UNL d   1      53.026  31.188  53.331  0.00  0.00     0.105 A 
ATOM     14  C   UNL d   1      52.643  30.529  53.015  0.00  0.00     0.013 A 
ATOM     15  C   UNL d   1      52.796  29.774  53.307  0.00  0.00     0.001 A 
ATOM     16  C   UNL d   1      53.343  29.684  53.924  0.00  0.00     0.000 A 
ATOM     17  C   UNL d   1      53.724  30.346  54.237  0.00  0.00     0.001 A 
ATOM     18  C   UNL d   1      53.495  28.932  54.214  0.00  0.00     0.000 C 
ATOM     19  C   UNL d   1      53.560  31.095  53.935  0.00  0.00     0.013 A 
ENDBRANCH  10  13
ENDBRANCH   9  10
ENDBRANCH   8   9
ENDBRANCH   7   8
ENDBRANCH   2   7
BRANCH   1  20
ATOM     20  C   UNL d   1      48.822  34.935  51.876  0.00  0.00     0.086 A 
ATOM     21  C   UNL d   1      48.431  35.474  52.367  0.00  0.00     0.110 A 
ATOM     22  C   UNL d   1      47.677  35.757  52.167  0.00  0.00     0.026 A 
ATOM     23  C   UNL d   1      47.323  35.498  51.478  0.00  0.00     0.002 A 
ATOM     24  C   UNL d   1      47.707  34.958  50.978  0.00  0.00     0.002 A 
ATOM     25  C   UNL d   1      48.449  34.679  51.175  0.00  0.00     0.019 A 
BRANCH  21  26
ATOM     26  O   UNL d   1      48.804  35.733  53.072  0.00  0.00    -0.327 OA
ATOM     27  C   UNL d   1      48.396  36.249  53.577  0.00  0.00     0.181 C 
ENDBRANCH  21  26
ENDBRANCH   1  20
TORSDOF 7
ENDMDL
MODEL 3
REMARK VINA RESULT:      -6.7      1.355      6.028
REMARK  7 active torsions:
REMARK  status: ('A' for Active; 'I' for Inactive)
REMARK    1  A    between atoms: C_3  and  S_1 
REMARK    2  A    between atoms: N_8  and  S_1 
REMARK    3  A    between atoms: C_4  and  N_2 
REMARK    4  A    between atoms: N_5  and  C_19 
REMARK    5  A    between atoms: C_14  and  N_8 
REMARK    6  A    between atoms: O_21  and  C_11 
REMARK    7  A    between atoms: C_19  and  C_14 
ROOT
ATOM      1  N   UNL d   1      48.506  35.159  52.162  0.00  0.00    -0.300 N 
ATOM      2  N   UNL d   1      49.943  34.342  52.107  0.00  0.00    -0.299 N 
ATOM      3  C   UNL d   1      48.858  34.992  51.436  0.00  0.00     0.100 A 
ATOM      4  C   UNL d   1      48.873  34.916  52.867  0.00  0.00     0.100 A 
ATOM      5  C   UNL d   1      49.575  34.585  51.409  0.00  0.00     0.100 A 
ATOM      6  C   UNL d   1      49.587  34.511  52.840  0.00  0.00     0.100 A 
ENDROOT
BRANCH   2   7
ATOM      7  C   UNL d   1      50.660  33.935  52.080  0.00  0.00     0.102 C 
BRANCH   7   8
ATOM      8  C   UNL d   1      51.273  34.125  52.603  0.00  0.00     0.131 C 
BRANCH   8   9
ATOM      9  N   UNL d   1      52.046  33.937  52.423  0.00  0.00    -0.155 NA
BRANCH   9  10
ATOM     10  S   UNL d   1      52.601  33.851  53.025  0.00  0.00     0.285 S 
ATOM     11  O   UNL d   1      52.487  33.032  53.009  0.00  0.00    -0.198 OA
ATOM     12  O   UNL d   1      52.716  34.670  53.040  0.00  0.00    -0.198 OA
BRANCH  10  13
ATOM     13  C   UNL d   1      53.155  33.755  53.626  0.00  0.00     0.105 A 
ATOM     14  C   UNL d   1      53.719  33.155  53.575  0.00  0.00     0.013 A 
ATOM     15  C   UNL d   1      54.277  33.051  54.172  0.00  0.00     0.001 A 
ATOM     16  C   UNL d   1      54.265  33.559  54.827  0.00  0.00     0.000 A 
ATOM     17  C   UNL d   1      53.700  34.158  54.875  0.00  0.00     0.001 A 
ATOM     18  C   UNL d   1      54.821  33.454  55.421  0.00  0.00     0.000 C 
ATOM     19  C   UNL d   1      53.147  34.250  54.270  0.00  0.00     0.013 A 
ENDBRANCH  10  13
ENDBRANCH   9  10
ENDBRANCH   8   9
ENDBRANCH   7   8
ENDBRANCH   2   7
BRANCH   1  20
ATOM     20  C   UNL d   1      47.789  35.566  52.189  0.00  0.00     0.086 A 
ATOM     21  C   UNL d   1      47.632  36.102  52.801  0.00  0.00     0.110 A 
ATOM     22  C   UNL d   1      46.912  36.511  52.828  0.00  0.00     0.026 A 
ATOM     23  C   UNL d   1      46.355  36.381  52.243  0.00  0.00     0.002 A 
ATOM     24  C   UNL d   1      46.502  35.846  51.626  0.00  0.00     0.002 A 
ATOM     25  C   UNL d   1      47.212  35.443  51.599  0.00  0.00     0.019 A 
BRANCH  21  26
ATOM     26  O   UNL d   1      48.211  36.227  53.394  0.00  0.00    -0.327 OA
ATOM     27  C   UNL d   1      48.023  36.708  54.043  0.00  0.00     0.181 C 
ENDBRANCH  21  26
ENDBRANCH   1  20
TORSDOF 7
ENDMDL
MODEL 4
REMARK VINA RESULT:      -6.3      1.479      6.187
REMARK  7 active torsions:
REMARK  status: ('A' for Active; 'I' for Inactive)
REMARK    1  A    between atoms: C_3  and  S_1 
REMARK    2  A    between atoms: N_8  and  S_1 
REMARK    3  A    between atoms: C_4  and  N_2 
REMARK    4  A    between atoms: N_5  and  C_19 
REMARK    5  A    between atoms: C_14  and  N_8 
REMARK    6  A    between atoms: O_21  and  C_11 
REMARK    7  A    between atoms: C_19  and  C_14 
ROOT
ATOM      1  N   UNL d   1      47.092  35.788  52.295  0.00  0.00    -0.300 N 
ATOM      2  N   UNL d   1      48.586  35.172  51.941  0.00  0.00    -0.299 N 
ATOM      3  C   UNL d   1      47.767  36.132  52.617  0.00  0.00     0.100 A 
ATOM      4  C   UNL d   1      47.162  35.130  51.791  0.00  0.00     0.100 A 
ATOM      5  C   UNL d   1      48.512  35.825  52.441  0.00  0.00     0.100 A 
ATOM      6  C   UNL d   1      47.903  34.824  51.615  0.00  0.00     0.100 A 
ENDROOT
BRANCH   2   7
ATOM      7  C   UNL d   1      49.331  34.865  51.764  0.00  0.00     0.102 C 
BRANCH   7   8
ATOM      8  C   UNL d   1      49.832  34.603  52.369  0.00  0.00     0.131 C 
BRANCH   8   9
ATOM      9  N   UNL d   1      50.450  34.095  52.205  0.00  0.00    -0.155 NA
BRANCH   9  10
ATOM     10  S   UNL d   1      51.115  34.085  52.689  0.00  0.00     0.285 S 
ATOM     11  O   UNL d   1      50.677  33.708  53.280  0.00  0.00    -0.198 OA
ATOM     12  O   UNL d   1      51.555  34.462  52.098  0.00  0.00    -0.198 OA
BRANCH  10  13
ATOM     13  C   UNL d   1      51.776  34.070  53.180  0.00  0.00     0.105 A 
ATOM     14  C   UNL d   1      52.140  34.776  53.402  0.00  0.00     0.013 A 
ATOM     15  C   UNL d   1      52.801  34.771  53.894  0.00  0.00     0.001 A 
ATOM     16  C   UNL d   1      53.098  34.045  54.163  0.00  0.00     0.000 A 
ATOM     17  C   UNL d   1      52.731  33.341  53.938  0.00  0.00     0.001 A 
ATOM     18  C   UNL d   1      53.756  34.041  54.652  0.00  0.00     0.000 C 
ATOM     19  C   UNL d   1      52.070  33.361  53.446  0.00  0.00     0.013 A 
ENDBRANCH  10  13
ENDBRANCH   9  10
ENDBRANCH   8   9
ENDBRANCH   7   8
ENDBRANCH   2   7
BRANCH   1  20
ATOM     20  C   UNL d   1      46.347  36.095  52.471  0.00  0.00     0.086 A 
ATOM     21  C   UNL d   1      46.067  36.100  53.251  0.00  0.00     0.110 A 
ATOM     22  C   UNL d   1      45.319  36.409  53.428  0.00  0.00     0.026 A 
ATOM     23  C   UNL d   1      44.857  36.709  52.824  0.00  0.00     0.002 A 
ATOM     24  C   UNL d   1      45.127  36.710  52.040  0.00  0.00     0.002 A 
ATOM     25  C   UNL d   1      45.865  36.405  51.865  0.00  0.00     0.019 A 
BRANCH  21  26
ATOM     26  O   UNL d   1      46.550  35.789  53.861  0.00  0.00    -0.327 OA
ATOM     27  C   UNL d   1      46.271  35.806  54.642  0.00  0.00     0.181 C 
ENDBRANCH  21  26
ENDBRANCH   1  20
TORSDOF 7
ENDMDL
