MODEL 1
REMARK VINA RESULT:      56.1      0.000      0.000
REMARK  1 active torsions:
REMARK  status: ('A' for Active; 'I' for Inactive)
REMARK    1  A    between atoms: C_10  and  N_2 
ROOT
ATOM      1  C   UNL d   1      14.336  13.737  -2.310  0.00  0.00     0.174 A 
ATOM      2  N   UNL d   1      13.771  13.840  -3.616  0.00  0.00    -0.224 N 
ATOM      3  C   UNL d   1      14.178  14.177  -2.986  0.00  0.00     0.292 A 
ATOM      4  C   UNL d   1      14.091  12.960  -2.260  0.00  0.00     0.115 A 
ATOM      5  C   UNL d   1      13.523  13.062  -3.571  0.00  0.00     0.356 A 
ATOM      6  N   UNL d   1      13.684  12.623  -2.890  0.00  0.00    -0.190 NA
ATOM      7  O   UNL d   1      14.728  13.930  -1.605  0.00  0.00    -0.301 OA
ATOM      8  C   UNL d   1      14.327  12.661  -1.524  0.00  0.00     0.043 A 
ATOM      9  C   UNL d   1      14.721  13.262  -1.118  0.00  0.00     0.102 A 
ATOM     10  O   UNL d   1      14.429  14.977  -3.040  0.00  0.00    -0.264 OA
ATOM     11  O   UNL d   1      13.110  12.715  -4.207  0.00  0.00    -0.244 OA
ATOM     12  C   UNL d   1      14.230  11.926  -1.182  0.00  0.00     0.004 A 
ATOM     13  C   UNL d   1      15.019  13.127  -0.370  0.00  0.00     0.025 A 
ATOM     14  C   UNL d   1      14.531  11.782  -0.421  0.00  0.00     0.000 A 
ATOM     15  C   UNL d   1      14.925  12.382  -0.015  0.00  0.00     0.002 A 
ENDROOT
BRANCH   2  16
ATOM     16  C   UNL d   1      13.611  14.286  -4.297  0.00  0.00     0.071 A 
ATOM     17  C   UNL d   1      14.126  14.263  -4.938  0.00  0.00     0.018 A 
ATOM     18  C   UNL d   1      13.965  14.707  -5.613  0.00  0.00     0.002 A 
ATOM     19  C   UNL d   1      13.287  15.174  -5.644  0.00  0.00     0.000 A 
ATOM     20  C   UNL d   1      12.769  15.201  -5.009  0.00  0.00     0.002 A 
ATOM     21  C   UNL d   1      13.124  15.621  -6.323  0.00  0.00     0.000 C 
ATOM     22  C   UNL d   1      12.934  14.753  -4.332  0.00  0.00     0.018 A 
ENDBRANCH   2  16
TORSDOF 1
ENDMDL
MODEL 2
REMARK VINA RESULT:      58.4      0.778      1.492
REMARK  1 active torsions:
REMARK  status: ('A' for Active; 'I' for Inactive)
REMARK    1  A    between atoms: C_10  and  N_2 
ROOT
ATOM      1  C   UNL d   1      14.115  13.243  -2.491  0.00  0.00     0.174 A 
ATOM      2  N   UNL d   1      14.003  14.419  -3.291  0.00  0.00    -0.224 N 
ATOM      3  C   UNL d   1      13.883  13.612  -3.188  0.00  0.00     0.292 A 
ATOM      4  C   UNL d   1      14.467  13.677  -1.896  0.00  0.00     0.115 A 
ATOM      5  C   UNL d   1      14.354  14.858  -2.698  0.00  0.00     0.356 A 
ATOM      6  N   UNL d   1      14.587  14.484  -1.999  0.00  0.00    -0.190 NA
ATOM      7  O   UNL d   1      14.064  12.454  -2.241  0.00  0.00    -0.301 OA
ATOM      8  C   UNL d   1      14.639  13.162  -1.269  0.00  0.00     0.043 A 
ATOM      9  C   UNL d   1      14.390  12.405  -1.482  0.00  0.00     0.102 A 
ATOM     10  O   UNL d   1      13.520  13.169  -3.803  0.00  0.00    -0.264 OA
ATOM     11  O   UNL d   1      14.478  15.676  -2.797  0.00  0.00    -0.244 OA
ATOM     12  C   UNL d   1      14.987  13.293  -0.542  0.00  0.00     0.004 A 
ATOM     13  C   UNL d   1      14.488  11.779  -0.969  0.00  0.00     0.025 A 
ATOM     14  C   UNL d   1      15.091  12.660  -0.014  0.00  0.00     0.000 A 
ATOM     15  C   UNL d   1      14.841  11.903  -0.227  0.00  0.00     0.002 A 
ENDROOT
BRANCH   2  16
ATOM     16  C   UNL d   1      13.767  14.790  -3.995  0.00  0.00     0.071 A 
ATOM     17  C   UNL d   1      12.999  14.698  -4.275  0.00  0.00     0.018 A 
ATOM     18  C   UNL d   1      12.769  15.068  -4.975  0.00  0.00     0.002 A 
ATOM     19  C   UNL d   1      13.310  15.529  -5.392  0.00  0.00     0.000 A 
ATOM     20  C   UNL d   1      14.076  15.624  -5.119  0.00  0.00     0.002 A 
ATOM     21  C   UNL d   1      13.078  15.901  -6.096  0.00  0.00     0.000 C 
ATOM     22  C   UNL d   1      14.305  15.251  -4.415  0.00  0.00     0.018 A 
ENDBRANCH   2  16
TORSDOF 1
ENDMDL
