MODEL 1
REMARK VINA RESULT:      -9.6      0.000      0.000
REMARK  4 active torsions:
REMARK  status: ('A' for Active; 'I' for Inactive)
REMARK    1  A    between atoms: N_7  and  C_1 
REMARK    2  A    between atoms: C_12  and  N_4 
REMARK    3  A    between atoms: S_6  and  N_7 
REMARK    4  A    between atoms: C_11  and  S_6 
ROOT
ATOM      1  C   UNL d   1      53.432  32.494  53.483  0.00  0.00     0.169 A 
ATOM      2  C   UNL d   1      52.747  32.653  53.042  0.00  0.00     0.299 A 
ATOM      3  N   UNL d   1      52.919  33.652  53.911  0.00  0.00    -0.238 N 
ATOM      4  N   UNL d   1      52.433  33.357  53.300  0.00  0.00    -0.209 N 
ATOM      5  C   UNL d   1      53.546  33.077  54.001  0.00  0.00     0.105 A 
ATOM      6  O   UNL d   1      52.436  32.160  52.429  0.00  0.00    -0.263 OA
ATOM      7  C   UNL d   1      52.811  34.347  54.330  0.00  0.00     0.120 C 
ATOM      8  C   UNL d   1      54.190  33.119  54.557  0.00  0.00     0.022 C 
ENDROOT
BRANCH   1   9
ATOM      9  N   UNL d   1      53.948  31.809  53.403  0.00  0.00    -0.152 NA
BRANCH   9  10
ATOM     10  S   UNL d   1      53.696  31.060  53.634  0.00  0.00     0.285 S 
ATOM     11  O   UNL d   1      53.732  31.290  54.423  0.00  0.00    -0.198 OA
ATOM     12  O   UNL d   1      53.660  30.822  52.812  0.00  0.00    -0.198 OA
BRANCH  10  13
ATOM     13  C   UNL d   1      53.444  30.308  53.853  0.00  0.00     0.105 A 
ATOM     14  C   UNL d   1      53.598  30.019  54.617  0.00  0.00     0.013 A 
ATOM     15  C   UNL d   1      53.347  29.258  54.849  0.00  0.00     0.001 A 
ATOM     16  C   UNL d   1      52.945  28.800  54.308  0.00  0.00     0.000 A 
ATOM     17  C   UNL d   1      52.784  29.087  53.524  0.00  0.00     0.001 A 
ATOM     18  C   UNL d   1      53.026  29.820  53.303  0.00  0.00     0.013 A 
ENDBRANCH  10  13
ENDBRANCH   9  10
ENDBRANCH   1   9
BRANCH   4  19
ATOM     19  C   UNL d   1      51.748  33.706  52.996  0.00  0.00     0.085 A 
ATOM     20  C   UNL d   1      51.017  33.594  53.363  0.00  0.00     0.019 A 
ATOM     21  C   UNL d   1      50.330  33.945  53.056  0.00  0.00     0.002 A 
ATOM     22  C   UNL d   1      50.373  34.403  52.390  0.00  0.00     0.000 A 
ATOM     23  C   UNL d   1      51.099  34.514  52.026  0.00  0.00     0.002 A 
ATOM     24  C   UNL d   1      51.784  34.170  52.323  0.00  0.00     0.019 A 
ENDBRANCH   4  19
TORSDOF 4
ENDMDL
MODEL 2
REMARK VINA RESULT:      -9.1      1.275      4.105
REMARK  4 active torsions:
REMARK  status: ('A' for Active; 'I' for Inactive)
REMARK    1  A    between atoms: N_7  and  C_1 
REMARK    2  A    between atoms: C_12  and  N_4 
REMARK    3  A    between atoms: S_6  and  N_7 
REMARK    4  A    between atoms: C_11  and  S_6 
ROOT
ATOM      1  C   UNL d   1      52.965  33.333  53.270  0.00  0.00     0.169 A 
ATOM      2  C   UNL d   1      52.919  32.540  53.026  0.00  0.00     0.299 A 
ATOM      3  N   UNL d   1      53.481  32.567  54.238  0.00  0.00    -0.238 N 
ATOM      4  N   UNL d   1      53.232  32.072  53.612  0.00  0.00    -0.209 N 
ATOM      5  C   UNL d   1      53.296  33.363  53.985  0.00  0.00     0.105 A 
ATOM      6  O   UNL d   1      52.599  32.275  52.290  0.00  0.00    -0.263 OA
ATOM      7  C   UNL d   1      53.828  32.330  54.940  0.00  0.00     0.120 C 
ATOM      8  C   UNL d   1      53.441  34.076  54.428  0.00  0.00     0.022 C 
ENDROOT
BRANCH   1   9
ATOM      9  N   UNL d   1      52.701  34.023  52.829  0.00  0.00    -0.152 NA
BRANCH   9  10
ATOM     10  S   UNL d   1      51.899  34.170  52.711  0.00  0.00     0.285 S 
ATOM     11  O   UNL d   1      51.841  34.468  53.476  0.00  0.00    -0.198 OA
ATOM     12  O   UNL d   1      51.962  33.859  51.917  0.00  0.00    -0.198 OA
BRANCH  10  13
ATOM     13  C   UNL d   1      51.099  34.312  52.583  0.00  0.00     0.105 A 
ATOM     14  C   UNL d   1      50.773  34.224  51.824  0.00  0.00     0.013 A 
ATOM     15  C   UNL d   1      49.963  34.366  51.684  0.00  0.00     0.001 A 
ATOM     16  C   UNL d   1      49.494  34.594  52.310  0.00  0.00     0.000 A 
ATOM     17  C   UNL d   1      49.820  34.686  53.090  0.00  0.00     0.001 A 
ATOM     18  C   UNL d   1      50.599  34.549  53.223  0.00  0.00     0.013 A 
ENDBRANCH  10  13
ENDBRANCH   9  10
ENDBRANCH   1   9
BRANCH   4  19
ATOM     19  C   UNL d   1      53.286  31.248  53.578  0.00  0.00     0.085 A 
ATOM     20  C   UNL d   1      52.621  30.774  53.698  0.00  0.00     0.019 A 
ATOM     21  C   UNL d   1      52.678  29.947  53.663  0.00  0.00     0.002 A 
ATOM     22  C   UNL d   1      53.391  29.596  53.508  0.00  0.00     0.000 A 
ATOM     23  C   UNL d   1      54.051  30.067  53.388  0.00  0.00     0.002 A 
ATOM     24  C   UNL d   1      54.004  30.888  53.422  0.00  0.00     0.019 A 
ENDBRANCH   4  19
TORSDOF 4
ENDMDL
MODEL 3
REMARK VINA RESULT:      -8.7      1.746      4.197
REMARK  4 active torsions:
REMARK  status: ('A' for Active; 'I' for Inactive)
REMARK    1  A    between atoms: N_7  and  C_1 
REMARK    2  A    between atoms: C_12  and  N_4 
REMARK    3  A    between atoms: S_6  and  N_7 
REMARK    4  A    between atoms: C_11  and  S_6 
ROOT
ATOM      1  C   UNL d   1      52.698  32.880  52.864  0.00  0.00     0.169 A 
ATOM      2  C   UNL d   1      53.208  33.375  53.295  0.00  0.00     0.299 A 
ATOM      3  N   UNL d   1      53.375  32.126  53.735  0.00  0.00    -0.238 N 
ATOM      4  N   UNL d   1      53.621  32.919  53.826  0.00  0.00    -0.209 N 
ATOM      5  C   UNL d   1      52.787  32.139  53.114  0.00  0.00     0.105 A 
ATOM      6  O   UNL d   1      53.278  34.211  53.191  0.00  0.00    -0.263 OA
ATOM      7  C   UNL d   1      53.646  31.478  54.158  0.00  0.00     0.120 C 
ATOM      8  C   UNL d   1      52.363  31.465  52.810  0.00  0.00     0.022 C 
ENDROOT
BRANCH   1   9
ATOM      9  N   UNL d   1      52.154  33.120  52.240  0.00  0.00    -0.152 NA
BRANCH   9  10
ATOM     10  S   UNL d   1      51.484  33.567  52.411  0.00  0.00     0.285 S 
ATOM     11  O   UNL d   1      51.165  32.931  52.825  0.00  0.00    -0.198 OA
ATOM     12  O   UNL d   1      51.818  34.227  51.981  0.00  0.00    -0.198 OA
BRANCH  10  13
ATOM     13  C   UNL d   1      50.819  34.022  52.576  0.00  0.00     0.105 A 
ATOM     14  C   UNL d   1      50.703  34.337  53.337  0.00  0.00     0.013 A 
ATOM     15  C   UNL d   1      50.032  34.800  53.513  0.00  0.00     0.001 A 
ATOM     16  C   UNL d   1      49.489  34.938  52.923  0.00  0.00     0.000 A 
ATOM     17  C   UNL d   1      49.600  34.620  52.142  0.00  0.00     0.001 A 
ATOM     18  C   UNL d   1      50.246  34.175  51.974  0.00  0.00     0.013 A 
ENDBRANCH  10  13
ENDBRANCH   9  10
ENDBRANCH   1   9
BRANCH   4  19
ATOM     19  C   UNL d   1      54.183  33.209  54.357  0.00  0.00     0.085 A 
ATOM     20  C   UNL d   1      54.953  33.372  54.111  0.00  0.00     0.019 A 
ATOM     21  C   UNL d   1      55.518  33.663  54.646  0.00  0.00     0.002 A 
ATOM     22  C   UNL d   1      55.314  33.790  55.420  0.00  0.00     0.000 A 
ATOM     23  C   UNL d   1      54.548  33.627  55.664  0.00  0.00     0.002 A 
ATOM     24  C   UNL d   1      53.984  33.339  55.140  0.00  0.00     0.019 A 
ENDBRANCH   4  19
TORSDOF 4
ENDMDL
MODEL 4
REMARK VINA RESULT:      -8.1      0.936      1.948
REMARK  4 active torsions:
REMARK  status: ('A' for Active; 'I' for Inactive)
REMARK    1  A    between atoms: N_7  and  C_1 
REMARK    2  A    between atoms: C_12  and  N_4 
REMARK    3  A    between atoms: S_6  and  N_7 
REMARK    4  A    between atoms: C_11  and  S_6 
ROOT
ATOM      1  C   UNL d   1      52.615  32.482  52.971  0.00  0.00     0.169 A 
ATOM      2  C   UNL d   1      53.086  33.053  53.348  0.00  0.00     0.299 A 
ATOM      3  N   UNL d   1      51.814  33.455  53.417  0.00  0.00    -0.238 N 
ATOM      4  N   UNL d   1      52.602  33.646  53.620  0.00  0.00    -0.209 N 
ATOM      5  C   UNL d   1      51.861  32.707  53.005  0.00  0.00     0.105 A 
ATOM      6  O   UNL d   1      53.927  33.015  53.429  0.00  0.00    -0.263 OA
ATOM      7  C   UNL d   1      51.145  33.897  53.582  0.00  0.00     0.120 C 
ATOM      8  C   UNL d   1      51.205  32.270  52.681  0.00  0.00     0.022 C 
ENDROOT
BRANCH   1   9
ATOM      9  N   UNL d   1      52.889  31.755  52.598  0.00  0.00    -0.152 NA
BRANCH   9  10
ATOM     10  S   UNL d   1      52.972  31.061  53.033  0.00  0.00     0.285 S 
ATOM     11  O   UNL d   1      52.169  30.908  52.944  0.00  0.00    -0.198 OA
ATOM     12  O   UNL d   1      53.808  31.223  53.125  0.00  0.00    -0.198 OA
BRANCH  10  13
ATOM     13  C   UNL d   1      53.067  30.370  53.469  0.00  0.00     0.105 A 
ATOM     14  C   UNL d   1      53.529  30.369  54.161  0.00  0.00     0.013 A 
ATOM     15  C   UNL d   1      53.631  29.673  54.609  0.00  0.00     0.001 A 
ATOM     16  C   UNL d   1      53.267  28.990  54.355  0.00  0.00     0.000 A 
ATOM     17  C   UNL d   1      52.794  28.982  53.649  0.00  0.00     0.001 A 
ATOM     18  C   UNL d   1      52.696  29.652  53.219  0.00  0.00     0.013 A 
ENDBRANCH  10  13
ENDBRANCH   9  10
ENDBRANCH   1   9
BRANCH   4  19
ATOM     19  C   UNL d   1      52.862  34.317  54.027  0.00  0.00     0.085 A 
ATOM     20  C   UNL d   1      53.068  34.275  54.824  0.00  0.00     0.019 A 
ATOM     21  C   UNL d   1      53.329  34.951  55.231  0.00  0.00     0.002 A 
ATOM     22  C   UNL d   1      53.385  35.660  54.844  0.00  0.00     0.000 A 
ATOM     23  C   UNL d   1      53.180  35.701  54.051  0.00  0.00     0.002 A 
ATOM     24  C   UNL d   1      52.920  35.036  53.641  0.00  0.00     0.019 A 
ENDBRANCH   4  19
TORSDOF 4
ENDMDL
MODEL 5
REMARK VINA RESULT:      -7.9      1.461      2.706
REMARK  4 active torsions:
REMARK  status: ('A' for Active; 'I' for Inactive)
REMARK    1  A    between atoms: N_7  and  C_1 
REMARK    2  A    between atoms: C_12  and  N_4 
REMARK    3  A    between atoms: S_6  and  N_7 
REMARK    4  A    between atoms: C_11  and  S_6 
ROOT
ATOM      1  C   UNL d   1      52.863  32.622  53.034  0.00  0.00     0.169 A 
ATOM      2  C   UNL d   1      52.428  33.318  52.904  0.00  0.00     0.299 A 
ATOM      3  N   UNL d   1      51.565  32.303  52.993  0.00  0.00    -0.238 N 
ATOM      4  N   UNL d   1      51.639  33.127  52.879  0.00  0.00    -0.209 N 
ATOM      5  C   UNL d   1      52.364  32.014  53.088  0.00  0.00     0.105 A 
ATOM      6  O   UNL d   1      52.760  34.091  52.815  0.00  0.00    -0.263 OA
ATOM      7  C   UNL d   1      50.869  31.871  53.009  0.00  0.00     0.120 C 
ATOM      8  C   UNL d   1      52.593  31.204  53.220  0.00  0.00     0.022 C 
ENDROOT
BRANCH   1   9
ATOM      9  N   UNL d   1      53.719  32.556  53.101  0.00  0.00    -0.152 NA
BRANCH   9  10
ATOM     10  S   UNL d   1      54.118  32.858  53.754  0.00  0.00     0.285 S 
ATOM     11  O   UNL d   1      53.931  32.181  54.183  0.00  0.00    -0.198 OA
ATOM     12  O   UNL d   1      54.311  33.562  53.306  0.00  0.00    -0.198 OA
BRANCH  10  13
ATOM     13  C   UNL d   1      54.519  33.171  54.401  0.00  0.00     0.105 A 
ATOM     14  C   UNL d   1      54.226  33.061  55.171  0.00  0.00     0.013 A 
ATOM     15  C   UNL d   1      54.626  33.374  55.832  0.00  0.00     0.001 A 
ATOM     16  C   UNL d   1      55.314  33.792  55.709  0.00  0.00     0.000 A 
ATOM     17  C   UNL d   1      55.621  33.908  54.925  0.00  0.00     0.001 A 
ATOM     18  C   UNL d   1      55.235  33.607  54.289  0.00  0.00     0.013 A 
ENDBRANCH  10  13
ENDBRANCH   9  10
ENDBRANCH   1   9
BRANCH   4  19
ATOM     19  C   UNL d   1      51.027  33.670  52.760  0.00  0.00     0.085 A 
ATOM     20  C   UNL d   1      50.643  34.022  53.399  0.00  0.00     0.019 A 
ATOM     21  C   UNL d   1      50.029  34.568  53.277  0.00  0.00     0.002 A 
ATOM     22  C   UNL d   1      49.801  34.759  52.524  0.00  0.00     0.000 A 
ATOM     23  C   UNL d   1      50.183  34.408  51.889  0.00  0.00     0.002 A 
ATOM     24  C   UNL d   1      50.793  33.867  52.001  0.00  0.00     0.019 A 
ENDBRANCH   4  19
TORSDOF 4
ENDMDL
MODEL 6
REMARK VINA RESULT:      -7.1      1.447      4.306
REMARK  4 active torsions:
REMARK  status: ('A' for Active; 'I' for Inactive)
REMARK    1  A    between atoms: N_7  and  C_1 
REMARK    2  A    between atoms: C_12  and  N_4 
REMARK    3  A    between atoms: S_6  and  N_7 
REMARK    4  A    between atoms: C_11  and  S_6 
ROOT
ATOM      1  C   UNL d   1      53.152  31.960  53.162  0.00  0.00     0.169 A 
ATOM      2  C   UNL d   1      53.534  31.356  53.587  0.00  0.00     0.299 A 
ATOM      3  N   UNL d   1      52.303  30.934  53.287  0.00  0.00    -0.238 N 
ATOM      4  N   UNL d   1      53.020  30.732  53.664  0.00  0.00    -0.209 N 
ATOM      5  C   UNL d   1      52.423  31.723  52.978  0.00  0.00     0.105 A 
ATOM      6  O   UNL d   1      54.325  31.396  53.884  0.00  0.00    -0.263 OA
ATOM      7  C   UNL d   1      51.632  30.469  53.230  0.00  0.00     0.120 C 
ATOM      8  C   UNL d   1      51.854  32.184  52.543  0.00  0.00     0.022 C 
ENDROOT
BRANCH   1   9
ATOM      9  N   UNL d   1      53.482  32.726  52.947  0.00  0.00    -0.152 NA
BRANCH   9  10
ATOM     10  S   UNL d   1      53.398  33.377  53.443  0.00  0.00     0.285 S 
ATOM     11  O   UNL d   1      52.644  33.510  53.143  0.00  0.00    -0.198 OA
ATOM     12  O   UNL d   1      54.183  33.237  53.755  0.00  0.00    -0.198 OA
BRANCH  10  13
ATOM     13  C   UNL d   1      53.325  34.027  53.943  0.00  0.00     0.105 A 
ATOM     14  C   UNL d   1      52.985  34.733  53.668  0.00  0.00     0.013 A 
ATOM     15  C   UNL d   1      52.907  35.397  54.167  0.00  0.00     0.001 A 
ATOM     16  C   UNL d   1      53.172  35.339  54.935  0.00  0.00     0.000 A 
ATOM     17  C   UNL d   1      53.522  34.620  55.225  0.00  0.00     0.001 A 
ATOM     18  C   UNL d   1      53.596  33.983  54.743  0.00  0.00     0.013 A 
ENDBRANCH  10  13
ENDBRANCH   9  10
ENDBRANCH   1   9
BRANCH   4  19
ATOM     19  C   UNL d   1      53.195  30.025  54.054  0.00  0.00     0.085 A 
ATOM     20  C   UNL d   1      53.052  29.939  54.861  0.00  0.00     0.019 A 
ATOM     21  C   UNL d   1      53.229  29.227  55.251  0.00  0.00     0.002 A 
ATOM     22  C   UNL d   1      53.546  28.607  54.837  0.00  0.00     0.000 A 
ATOM     23  C   UNL d   1      53.689  28.693  54.034  0.00  0.00     0.002 A 
ATOM     24  C   UNL d   1      53.516  29.395  53.641  0.00  0.00     0.019 A 
ENDBRANCH   4  19
TORSDOF 4
ENDMDL
