MODEL 1
REMARK VINA RESULT:      -4.1      0.000      0.000
REMARK  3 active torsions:
REMARK  status: ('A' for Active; 'I' for Inactive)
REMARK       I    between atoms: C_4  and  N_1 
REMARK    1  A    between atoms: C_7  and  C_3 
REMARK    2  A    between atoms: C_9  and  C_4 
REMARK    3  A    between atoms: C_8  and  C_5 
ROOT
ATOM      1  N   UNL d   1      58.945  -1.015  29.569  0.00  0.00    -0.191 N 
ATOM      2  N   UNL d   1      58.292  -1.114  30.051  0.00  0.00    -0.163 NA
ATOM      3  C   UNL d   1      59.243  -0.242  29.731  0.00  0.00     0.110 A 
ATOM      4  C   UNL d   1      59.251  -1.545  29.038  0.00  0.00     0.303 C 
ATOM      5  C   UNL d   1      58.178  -0.434  30.503  0.00  0.00     0.103 A 
ATOM      6  C   UNL d   1      58.757   0.097  30.308  0.00  0.00     0.042 A 
ATOM      7  O   UNL d   1      59.954  -1.321  28.580  0.00  0.00    -0.263 OA
ENDROOT
BRANCH   3   8
ATOM      8  C   UNL d   1      59.902   0.106  29.374  0.00  0.00     0.118 A 
ATOM      9  O   UNL d   1      59.940   0.358  28.602  0.00  0.00    -0.304 OA
ATOM     10  C   UNL d   1      60.704   0.675  28.471  0.00  0.00     0.123 A 
ATOM     11  C   UNL d   1      61.123   0.607  29.179  0.00  0.00     0.029 A 
ATOM     12  C   UNL d   1      60.611   0.250  29.737  0.00  0.00     0.028 A 
ENDBRANCH   3   8
BRANCH   4  13
ATOM     13  C   UNL d   1      58.923  -2.284  28.919  0.00  0.00     0.158 A 
ATOM     14  O   UNL d   1      58.270  -2.463  28.456  0.00  0.00    -0.300 OA
ATOM     15  C   UNL d   1      58.129  -3.270  28.489  0.00  0.00     0.123 A 
ATOM     16  C   UNL d   1      58.701  -3.602  28.979  0.00  0.00     0.029 A 
ATOM     17  C   UNL d   1      59.197  -2.995  29.249  0.00  0.00     0.032 A 
ENDBRANCH   4  13
BRANCH   5  18
ATOM     18  C   UNL d   1      57.563  -0.338  31.058  0.00  0.00     0.019 A 
ATOM     19  C   UNL d   1      57.331   0.408  31.238  0.00  0.00     0.002 A 
ATOM     20  C   UNL d   1      56.726   0.540  31.782  0.00  0.00     0.000 A 
ATOM     21  C   UNL d   1      56.362  -0.099  32.139  0.00  0.00     0.000 A 
ATOM     22  C   UNL d   1      56.591  -0.882  31.963  0.00  0.00     0.000 A 
ATOM     23  C   UNL d   1      55.758   0.039  32.682  0.00  0.00     0.000 C 
ATOM     24  C   UNL d   1      57.214  -0.997  31.401  0.00  0.00     0.002 A 
ENDBRANCH   5  18
TORSDOF 3
ENDMDL
MODEL 2
REMARK VINA RESULT:      -3.1      0.694      2.729
REMARK  3 active torsions:
REMARK  status: ('A' for Active; 'I' for Inactive)
REMARK       I    between atoms: C_4  and  N_1 
REMARK    1  A    between atoms: C_7  and  C_3 
REMARK    2  A    between atoms: C_9  and  C_4 
REMARK    3  A    between atoms: C_8  and  C_5 
ROOT
ATOM      1  N   UNL d   1      58.958  -1.254  29.600  0.00  0.00    -0.191 N 
ATOM      2  N   UNL d   1      58.615  -0.697  30.090  0.00  0.00    -0.163 NA
ATOM      3  C   UNL d   1      58.484  -1.949  29.664  0.00  0.00     0.110 A 
ATOM      4  C   UNL d   1      59.619  -1.166  29.140  0.00  0.00     0.303 C 
ATOM      5  C   UNL d   1      57.950  -1.022  30.454  0.00  0.00     0.103 A 
ATOM      6  C   UNL d   1      57.870  -1.784  30.194  0.00  0.00     0.042 A 
ATOM      7  O   UNL d   1      59.887  -1.837  28.658  0.00  0.00    -0.263 OA
ENDROOT
BRANCH   3   8
ATOM      8  C   UNL d   1      58.615  -2.662  29.267  0.00  0.00     0.118 A 
ATOM      9  O   UNL d   1      59.275  -3.131  29.349  0.00  0.00    -0.304 OA
ATOM     10  C   UNL d   1      59.181  -3.796  28.849  0.00  0.00     0.123 A 
ATOM     11  C   UNL d   1      58.454  -3.717  28.467  0.00  0.00     0.029 A 
ATOM     12  C   UNL d   1      58.109  -3.004  28.736  0.00  0.00     0.028 A 
ENDBRANCH   3   8
BRANCH   4  13
ATOM     13  C   UNL d   1      60.044  -0.469  29.113  0.00  0.00     0.158 A 
ATOM     14  O   UNL d   1      60.507  -0.151  29.711  0.00  0.00    -0.300 OA
ATOM     15  C   UNL d   1      60.835   0.555  29.452  0.00  0.00     0.123 A 
ATOM     16  C   UNL d   1      60.575   0.682  28.682  0.00  0.00     0.029 A 
ATOM     17  C   UNL d   1      60.084   0.050  28.465  0.00  0.00     0.032 A 
ENDBRANCH   4  13
BRANCH   5  18
ATOM     18  C   UNL d   1      57.462  -0.612  30.991  0.00  0.00     0.019 A 
ATOM     19  C   UNL d   1      57.091  -1.035  31.562  0.00  0.00     0.002 A 
ATOM     20  C   UNL d   1      56.601  -0.662  32.110  0.00  0.00     0.000 A 
ATOM     21  C   UNL d   1      56.497   0.147  32.068  0.00  0.00     0.000 A 
ATOM     22  C   UNL d   1      56.876   0.603  31.481  0.00  0.00     0.000 A 
ATOM     23  C   UNL d   1      56.006   0.514  32.619  0.00  0.00     0.000 C 
ATOM     24  C   UNL d   1      57.375   0.202  30.927  0.00  0.00     0.002 A 
ENDBRANCH   5  18
TORSDOF 3
ENDMDL
