MODEL 1
REMARK VINA RESULT:     134.5      0.000      0.000
REMARK  3 active torsions:
REMARK  status: ('A' for Active; 'I' for Inactive)
REMARK    1  A    between atoms: N_3  and  S_1 
REMARK    2  A    between atoms: C_5  and  S_1 
REMARK       I    between atoms: C_2  and  N_4 
REMARK       I    between atoms: N_6  and  C_2 
REMARK    3  A    between atoms: C_13  and  N_6 
ROOT
ATOM      1  C   UNL d   1      62.118  43.672  49.840  0.00  0.00     0.339 C 
ATOM      2  N   UNL d   1      61.334  45.950  50.463  0.00  0.00    -0.226 N 
ATOM      3  N   UNL d   1      61.858  44.427  50.047  0.00  0.00    -0.254 N 
ATOM      4  N   UNL d   1      62.125  43.066  50.400  0.00  0.00    -0.257 N 
ATOM      5  C   UNL d   1      61.339  45.344  51.032  0.00  0.00     0.111 A 
ATOM      6  C   UNL d   1      61.590  45.793  49.693  0.00  0.00     0.111 A 
ATOM      7  O   UNL d   1      62.371  43.531  49.062  0.00  0.00    -0.245 OA
ATOM      8  C   UNL d   1      61.600  44.586  50.825  0.00  0.00     0.104 A 
ATOM      9  C   UNL d   1      61.849  45.037  49.487  0.00  0.00     0.104 A 
ATOM     10  C   UNL d   1      61.874  43.212  51.166  0.00  0.00     0.104 C 
ENDROOT
BRANCH   2  11
ATOM     11  S   UNL d   1      61.075  46.701  50.669  0.00  0.00     0.271 S 
ATOM     12  O   UNL d   1      61.353  46.985  49.945  0.00  0.00    -0.200 OA
ATOM     13  O   UNL d   1      60.804  46.401  51.388  0.00  0.00    -0.200 OA
BRANCH  11  14
ATOM     14  C   UNL d   1      60.816  47.456  50.875  0.00  0.00     0.104 A 
ATOM     15  C   UNL d   1      61.299  48.102  50.737  0.00  0.00     0.013 A 
ATOM     16  C   UNL d   1      61.043  48.845  50.941  0.00  0.00     0.001 A 
ATOM     17  C   UNL d   1      61.526  49.500  50.805  0.00  0.00     0.000 C 
ATOM     18  C   UNL d   1      60.312  48.952  51.279  0.00  0.00     0.000 A 
ATOM     19  C   UNL d   1      59.831  48.298  51.415  0.00  0.00     0.001 A 
ATOM     20  C   UNL d   1      60.052  49.708  51.486  0.00  0.00     0.000 C 
ATOM     21  C   UNL d   1      60.087  47.555  51.211  0.00  0.00     0.013 A 
ENDBRANCH  11  14
ENDBRANCH   2  11
BRANCH   4  22
ATOM     22  C   UNL d   1      62.390  42.307  50.180  0.00  0.00     0.068 A 
ATOM     23  C   UNL d   1      62.890  41.874  50.676  0.00  0.00     0.018 A 
ATOM     24  C   UNL d   1      63.144  41.124  50.445  0.00  0.00     0.002 A 
ATOM     25  C   UNL d   1      62.902  40.806  49.724  0.00  0.00     0.000 A 
ATOM     26  C   UNL d   1      62.397  41.248  49.228  0.00  0.00     0.002 A 
ATOM     27  C   UNL d   1      63.158  40.056  49.497  0.00  0.00     0.000 C 
ATOM     28  C   UNL d   1      62.145  41.997  49.463  0.00  0.00     0.018 A 
ENDBRANCH   4  22
TORSDOF 3
ENDMDL
