MODEL 1
REMARK VINA RESULT:      -8.5      0.000      0.000
REMARK  10 active torsions:
REMARK  status: ('A' for Active; 'I' for Inactive)
REMARK    1  A    between atoms: C_5  and  C_1 
REMARK    2  A    between atoms: C_8  and  N_2 
REMARK    3  A    between atoms: C_9  and  C_5 
REMARK    4  A    between atoms: C_7  and  C_8 
REMARK       I    between atoms: N_13  and  C_7 
REMARK       I    between atoms: N_19  and  C_9 
REMARK    5  A    between atoms: N_11  and  C_21 
REMARK    6  A    between atoms: C_24  and  N_13 
REMARK    7  A    between atoms: C_25  and  N_13 
REMARK    8  A    between atoms: C_26  and  N_19 
REMARK    9  A    between atoms: C_21  and  C_23 
REMARK   10  A    between atoms: C_23  and  C_26 
ROOT
ATOM      1  C   UNL d   1      52.745  33.562  53.695  0.00  0.00     0.063 A 
ATOM      2  N   UNL d   1      53.398  32.396  53.790  0.00  0.00    -0.300 N 
ATOM      3  C   UNL d   1      52.764  32.772  53.420  0.00  0.00     0.084 A 
ATOM      4  C   UNL d   1      53.367  33.662  54.229  0.00  0.00     0.021 A 
ATOM      5  C   UNL d   1      53.772  32.933  54.286  0.00  0.00     0.064 A 
ATOM      6  C   UNL d   1      53.618  34.304  54.666  0.00  0.00     0.002 A 
ATOM      7  C   UNL d   1      54.425  32.871  54.787  0.00  0.00     0.018 A 
ATOM      8  C   UNL d   1      54.275  34.243  55.169  0.00  0.00     0.000 A 
ATOM      9  C   UNL d   1      54.674  33.522  55.225  0.00  0.00     0.002 A 
ENDROOT
BRANCH   1  10
ATOM     10  C   UNL d   1      52.200  34.135  53.469  0.00  0.00     0.254 C 
ATOM     11  O   UNL d   1      51.655  34.419  54.022  0.00  0.00    -0.281 OA
BRANCH  10  12
ATOM     12  C   UNL d   1      52.194  34.427  52.698  0.00  0.00     0.318 C 
ATOM     13  O   UNL d   1      52.905  34.626  52.335  0.00  0.00    -0.262 OA
ATOM     14  N   UNL d   1      51.477  34.515  52.299  0.00  0.00    -0.204 NA
BRANCH  14  15
ATOM     15  C   UNL d   1      50.774  34.314  52.669  0.00  0.00     0.104 C 
BRANCH  15  16
ATOM     16  C   UNL d   1      50.077  34.315  52.234  0.00  0.00     0.040 C 
BRANCH  16  17
ATOM     17  C   UNL d   1      49.455  34.819  52.456  0.00  0.00     0.083 C 
BRANCH  17  18
ATOM     18  N   UNL d   1      48.799  34.920  51.953  0.00  0.00    -0.285 N 
ATOM     19  C   UNL d   1      48.705  34.564  51.215  0.00  0.00     0.183 A 
ATOM     20  N   UNL d   1      47.971  34.821  50.914  0.00  0.00    -0.222 NA
ATOM     21  C   UNL d   1      47.619  35.335  51.471  0.00  0.00     0.120 A 
ATOM     22  C   UNL d   1      48.142  35.389  52.113  0.00  0.00     0.102 A 
ENDBRANCH  17  18
ENDBRANCH  16  17
ENDBRANCH  15  16
ENDBRANCH  14  15
ENDBRANCH  10  12
ENDBRANCH   1  10
BRANCH   2  23
ATOM     23  C   UNL d   1      53.620  31.609  53.679  0.00  0.00     0.142 C 
BRANCH  23  24
ATOM     24  C   UNL d   1      53.167  31.116  53.206  0.00  0.00     0.282 C 
ATOM     25  N   UNL d   1      53.064  30.323  53.411  0.00  0.00    -0.271 N 
ATOM     26  O   UNL d   1      52.812  31.414  52.521  0.00  0.00    -0.265 OA
BRANCH  25  27
ATOM     27  C   UNL d   1      53.417  30.025  54.093  0.00  0.00     0.083 C 
ATOM     28  C   UNL d   1      53.544  29.217  54.171  0.00  0.00     0.021 C 
ENDBRANCH  25  27
BRANCH  25  29
ATOM     29  C   UNL d   1      52.607  29.829  52.931  0.00  0.00     0.083 C 
ATOM     30  C   UNL d   1      51.990  29.392  53.261  0.00  0.00     0.021 C 
ENDBRANCH  25  29
ENDBRANCH  23  24
ENDBRANCH   2  23
TORSDOF 10
ENDMDL
MODEL 2
REMARK VINA RESULT:      -6.5      1.325      2.920
REMARK  10 active torsions:
REMARK  status: ('A' for Active; 'I' for Inactive)
REMARK    1  A    between atoms: C_5  and  C_1 
REMARK    2  A    between atoms: C_8  and  N_2 
REMARK    3  A    between atoms: C_9  and  C_5 
REMARK    4  A    between atoms: C_7  and  C_8 
REMARK       I    between atoms: N_13  and  C_7 
REMARK       I    between atoms: N_19  and  C_9 
REMARK    5  A    between atoms: N_11  and  C_21 
REMARK    6  A    between atoms: C_24  and  N_13 
REMARK    7  A    between atoms: C_25  and  N_13 
REMARK    8  A    between atoms: C_26  and  N_19 
REMARK    9  A    between atoms: C_21  and  C_23 
REMARK   10  A    between atoms: C_23  and  C_26 
ROOT
ATOM      1  C   UNL d   1      51.983  33.029  53.078  0.00  0.00     0.063 A 
ATOM      2  N   UNL d   1      53.223  32.975  53.584  0.00  0.00    -0.300 N 
ATOM      3  C   UNL d   1      52.598  33.486  53.414  0.00  0.00     0.084 A 
ATOM      4  C   UNL d   1      52.236  32.244  53.045  0.00  0.00     0.021 A 
ATOM      5  C   UNL d   1      53.009  32.214  53.361  0.00  0.00     0.064 A 
ATOM      6  C   UNL d   1      51.878  31.562  52.776  0.00  0.00     0.002 A 
ATOM      7  C   UNL d   1      53.403  31.490  53.397  0.00  0.00     0.018 A 
ATOM      8  C   UNL d   1      52.273  30.834  52.812  0.00  0.00     0.000 A 
ATOM      9  C   UNL d   1      53.037  30.804  53.124  0.00  0.00     0.002 A 
ENDROOT
BRANCH   1  10
ATOM     10  C   UNL d   1      51.255  33.318  52.827  0.00  0.00     0.254 C 
ATOM     11  O   UNL d   1      50.560  33.012  53.155  0.00  0.00    -0.281 OA
BRANCH  10  12
ATOM     12  C   UNL d   1      51.213  33.907  52.252  0.00  0.00     0.318 C 
ATOM     13  O   UNL d   1      51.782  33.934  51.659  0.00  0.00    -0.262 OA
ATOM     14  N   UNL d   1      50.603  34.462  52.278  0.00  0.00    -0.204 NA
BRANCH  14  15
ATOM     15  C   UNL d   1      50.041  34.426  52.873  0.00  0.00     0.104 C 
BRANCH  15  16
ATOM     16  C   UNL d   1      49.333  34.835  52.781  0.00  0.00     0.040 C 
BRANCH  16  17
ATOM     17  C   UNL d   1      49.137  35.440  53.315  0.00  0.00     0.083 C 
BRANCH  17  18
ATOM     18  N   UNL d   1      48.394  35.812  53.269  0.00  0.00    -0.285 N 
ATOM     19  C   UNL d   1      47.950  35.909  52.580  0.00  0.00     0.183 A 
ATOM     20  N   UNL d   1      47.250  36.308  52.797  0.00  0.00    -0.222 NA
ATOM     21  C   UNL d   1      47.269  36.453  53.619  0.00  0.00     0.120 A 
ATOM     22  C   UNL d   1      47.984  36.141  53.903  0.00  0.00     0.102 A 
ENDBRANCH  17  18
ENDBRANCH  16  17
ENDBRANCH  15  16
ENDBRANCH  14  15
ENDBRANCH  10  12
ENDBRANCH   1  10
BRANCH   2  23
ATOM     23  C   UNL d   1      53.943  33.193  53.921  0.00  0.00     0.142 C 
BRANCH  23  24
ATOM     24  C   UNL d   1      53.961  33.572  54.648  0.00  0.00     0.282 C 
ATOM     25  N   UNL d   1      54.682  33.751  55.006  0.00  0.00    -0.271 N 
ATOM     26  O   UNL d   1      53.252  33.776  55.023  0.00  0.00    -0.265 OA
BRANCH  25  27
ATOM     27  C   UNL d   1      55.388  33.549  54.634  0.00  0.00     0.083 C 
ATOM     28  C   UNL d   1      55.935  34.131  54.446  0.00  0.00     0.021 C 
ENDBRANCH  25  27
BRANCH  25  29
ATOM     29  C   UNL d   1      54.694  34.134  55.739  0.00  0.00     0.083 C 
ATOM     30  C   UNL d   1      55.055  33.770  56.386  0.00  0.00     0.021 C 
ENDBRANCH  25  29
ENDBRANCH  23  24
ENDBRANCH   2  23
TORSDOF 10
ENDMDL
MODEL 3
REMARK VINA RESULT:      -6.1      1.212      4.989
REMARK  10 active torsions:
REMARK  status: ('A' for Active; 'I' for Inactive)
REMARK    1  A    between atoms: C_5  and  C_1 
REMARK    2  A    between atoms: C_8  and  N_2 
REMARK    3  A    between atoms: C_9  and  C_5 
REMARK    4  A    between atoms: C_7  and  C_8 
REMARK       I    between atoms: N_13  and  C_7 
REMARK       I    between atoms: N_19  and  C_9 
REMARK    5  A    between atoms: N_11  and  C_21 
REMARK    6  A    between atoms: C_24  and  N_13 
REMARK    7  A    between atoms: C_25  and  N_13 
REMARK    8  A    between atoms: C_26  and  N_19 
REMARK    9  A    between atoms: C_21  and  C_23 
REMARK   10  A    between atoms: C_23  and  C_26 
ROOT
ATOM      1  C   UNL d   1      53.155  33.513  53.991  0.00  0.00     0.063 A 
ATOM      2  N   UNL d   1      52.086  34.251  53.663  0.00  0.00    -0.300 N 
ATOM      3  C   UNL d   1      52.430  33.508  53.572  0.00  0.00     0.084 A 
ATOM      4  C   UNL d   1      53.247  34.258  54.333  0.00  0.00     0.021 A 
ATOM      5  C   UNL d   1      52.579  34.716  54.127  0.00  0.00     0.064 A 
ATOM      6  C   UNL d   1      53.836  34.581  54.797  0.00  0.00     0.002 A 
ATOM      7  C   UNL d   1      52.524  35.494  54.396  0.00  0.00     0.018 A 
ATOM      8  C   UNL d   1      53.781  35.363  55.068  0.00  0.00     0.000 A 
ATOM      9  C   UNL d   1      53.121  35.815  54.864  0.00  0.00     0.002 A 
ENDROOT
BRANCH   1  10
ATOM     10  C   UNL d   1      53.679  32.882  54.048  0.00  0.00     0.254 C 
ATOM     11  O   UNL d   1      53.830  32.543  54.788  0.00  0.00    -0.281 OA
BRANCH  10  12
ATOM     12  C   UNL d   1      54.053  32.585  53.376  0.00  0.00     0.318 C 
ATOM     13  O   UNL d   1      54.503  33.090  52.908  0.00  0.00    -0.262 OA
ATOM     14  N   UNL d   1      53.973  31.787  53.181  0.00  0.00    -0.204 NA
BRANCH  14  15
ATOM     15  C   UNL d   1      53.522  31.292  53.654  0.00  0.00     0.104 C 
BRANCH  15  16
ATOM     16  C   UNL d   1      53.637  30.479  53.608  0.00  0.00     0.040 C 
BRANCH  16  17
ATOM     17  C   UNL d   1      53.026  29.965  53.839  0.00  0.00     0.083 C 
BRANCH  17  18
ATOM     18  N   UNL d   1      53.192  29.312  54.327  0.00  0.00    -0.285 N 
ATOM     19  C   UNL d   1      53.599  28.633  54.093  0.00  0.00     0.183 A 
ATOM     20  N   UNL d   1      53.635  28.131  54.759  0.00  0.00    -0.222 NA
ATOM     21  C   UNL d   1      53.250  28.507  55.398  0.00  0.00     0.120 A 
ATOM     22  C   UNL d   1      52.979  29.241  55.118  0.00  0.00     0.102 A 
ENDBRANCH  17  18
ENDBRANCH  16  17
ENDBRANCH  15  16
ENDBRANCH  14  15
ENDBRANCH  10  12
ENDBRANCH   1  10
BRANCH   2  23
ATOM     23  C   UNL d   1      51.365  34.489  53.340  0.00  0.00     0.142 C 
BRANCH  23  24
ATOM     24  C   UNL d   1      51.194  34.335  52.553  0.00  0.00     0.282 C 
ATOM     25  N   UNL d   1      50.412  34.335  52.290  0.00  0.00    -0.271 N 
ATOM     26  O   UNL d   1      51.809  34.179  52.022  0.00  0.00    -0.265 OA
BRANCH  25  27
ATOM     27  C   UNL d   1      49.800  34.490  52.818  0.00  0.00     0.083 C 
ATOM     28  C   UNL d   1      49.213  35.029  52.621  0.00  0.00     0.021 C 
ENDBRANCH  25  27
BRANCH  25  29
ATOM     29  C   UNL d   1      50.245  34.179  51.495  0.00  0.00     0.083 C 
ATOM     30  C   UNL d   1      49.463  34.171  51.234  0.00  0.00     0.021 C 
ENDBRANCH  25  29
ENDBRANCH  23  24
ENDBRANCH   2  23
TORSDOF 10
ENDMDL
