MODEL 1
REMARK VINA RESULT:      37.4      0.000      0.000
REMARK  5 active torsions:
REMARK  status: ('A' for Active; 'I' for Inactive)
REMARK       I    between atoms: C_2  and  N_1 
REMARK    1  A    between atoms: C_3  and  N_1 
REMARK    2  A    between atoms: C_9  and  C_2 
REMARK    3  A    between atoms: N_6  and  C_3 
REMARK    4  A    between atoms: C_4  and  C_13 
REMARK    5  A    between atoms: C_13  and  N_6 
ROOT
ATOM      1  N   UNL d   1      59.011  49.342  49.950  0.00  0.00    -0.299 N 
ATOM      2  C   UNL d   1      58.445  49.538  50.515  0.00  0.00     0.259 C 
ATOM      3  O   UNL d   1      58.671  49.680  51.297  0.00  0.00    -0.267 OA
ATOM      4  H   UNL d   1      58.785  49.200  49.167  0.00  0.00     0.171 HD
ENDROOT
BRANCH   1   5
ATOM      5  C   UNL d   1      59.793  49.287  50.153  0.00  0.00     0.179 C 
ATOM      6  S   UNL d   1      60.357  49.692  49.704  0.00  0.00    -0.040 SA
BRANCH   5   7
ATOM      7  N   UNL d   1      60.011  48.841  50.785  0.00  0.00    -0.329 N 
ATOM      8  H   UNL d   1      59.460  48.641  51.344  0.00  0.00     0.168 HD
BRANCH   7   9
ATOM      9  C   UNL d   1      60.774  48.598  50.854  0.00  0.00     0.099 C 
BRANCH   9  10
ATOM     10  C   UNL d   1      60.942  47.790  50.934  0.00  0.00     0.117 A 
ATOM     11  O   UNL d   1      60.959  47.462  51.684  0.00  0.00    -0.304 OA
ATOM     12  C   UNL d   1      61.135  46.669  51.596  0.00  0.00     0.123 A 
ATOM     13  C   UNL d   1      61.224  46.520  50.793  0.00  0.00     0.029 A 
ATOM     14  C   UNL d   1      61.101  47.223  50.398  0.00  0.00     0.028 A 
ENDBRANCH   9  10
ENDBRANCH   7   9
ENDBRANCH   5   7
ENDBRANCH   1   5
BRANCH   2  15
ATOM     15  C   UNL d   1      57.647  49.592  50.299  0.00  0.00     0.056 A 
ATOM     16  C   UNL d   1      57.435  49.588  49.499  0.00  0.00     0.005 A 
ATOM     17  C   UNL d   1      56.632  49.643  49.285  0.00  0.00     0.000 A 
ATOM     18  C   UNL d   1      56.052  49.701  49.866  0.00  0.00     0.000 A 
ATOM     19  C   UNL d   1      56.264  49.705  50.665  0.00  0.00     0.000 A 
ATOM     20  C   UNL d   1      57.056  49.651  50.882  0.00  0.00     0.005 A 
ENDBRANCH   2  15
TORSDOF 5
ENDMDL
MODEL 2
REMARK VINA RESULT:      38.6      1.015      4.161
REMARK  5 active torsions:
REMARK  status: ('A' for Active; 'I' for Inactive)
REMARK       I    between atoms: C_2  and  N_1 
REMARK    1  A    between atoms: C_3  and  N_1 
REMARK    2  A    between atoms: C_9  and  C_2 
REMARK    3  A    between atoms: N_6  and  C_3 
REMARK    4  A    between atoms: C_4  and  C_13 
REMARK    5  A    between atoms: C_13  and  N_6 
ROOT
ATOM      1  N   UNL d   1      60.357  48.487  51.226  0.00  0.00    -0.299 N 
ATOM      2  C   UNL d   1      60.884  48.304  50.621  0.00  0.00     0.259 C 
ATOM      3  O   UNL d   1      61.177  48.902  50.131  0.00  0.00    -0.267 OA
ATOM      4  H   UNL d   1      60.064  47.890  51.717  0.00  0.00     0.171 HD
ENDROOT
BRANCH   1   5
ATOM      5  C   UNL d   1      60.119  49.252  51.348  0.00  0.00     0.179 C 
ATOM      6  S   UNL d   1      60.466  49.691  51.957  0.00  0.00    -0.040 SA
BRANCH   5   7
ATOM      7  N   UNL d   1      59.552  49.573  50.879  0.00  0.00    -0.329 N 
ATOM      8  H   UNL d   1      59.726  49.762  50.110  0.00  0.00     0.168 HD
BRANCH   7   9
ATOM      9  C   UNL d   1      58.817  49.703  51.178  0.00  0.00     0.099 C 
BRANCH   9  10
ATOM     10  C   UNL d   1      58.160  49.691  50.672  0.00  0.00     0.117 A 
ATOM     11  O   UNL d   1      57.410  49.674  51.000  0.00  0.00    -0.304 OA
ATOM     12  C   UNL d   1      56.877  49.664  50.380  0.00  0.00     0.123 A 
ATOM     13  C   UNL d   1      57.306  49.675  49.680  0.00  0.00     0.029 A 
ATOM     14  C   UNL d   1      58.098  49.691  49.878  0.00  0.00     0.028 A 
ENDBRANCH   9  10
ENDBRANCH   7   9
ENDBRANCH   5   7
ENDBRANCH   1   5
BRANCH   2  15
ATOM     15  C   UNL d   1      61.122  47.520  50.503  0.00  0.00     0.056 A 
ATOM     16  C   UNL d   1      61.586  47.324  49.847  0.00  0.00     0.005 A 
ATOM     17  C   UNL d   1      61.823  46.534  49.730  0.00  0.00     0.000 A 
ATOM     18  C   UNL d   1      61.598  45.951  50.266  0.00  0.00     0.000 A 
ATOM     19  C   UNL d   1      61.134  46.147  50.922  0.00  0.00     0.000 A 
ATOM     20  C   UNL d   1      60.896  46.926  51.042  0.00  0.00     0.005 A 
ENDBRANCH   2  15
TORSDOF 5
ENDMDL
