MODEL 1
REMARK VINA RESULT:      -4.5      0.000      0.000
REMARK  5 active torsions:
REMARK  status: ('A' for Active; 'I' for Inactive)
REMARK    1  A    between atoms: N_9  and  C_2 
REMARK    2  A    between atoms: N_8  and  C_3 
REMARK    3  A    between atoms: N_10  and  C_6 
REMARK    4  A    between atoms: C_7  and  C_11 
REMARK    5  A    between atoms: C_13  and  N_10 
ROOT
ATOM      1  N   UNL d   1      59.517  -1.371  29.292  0.00  0.00     0.133 NA
ATOM      2  C   UNL d   1      59.470  -0.576  29.523  0.00  0.00     0.765 A 
ATOM      3  C   UNL d   1      58.849  -1.854  29.339  0.00  0.00     0.765 A 
ATOM      4  N   UNL d   1      58.754  -0.268  29.801  0.00  0.00     0.134 NA
ATOM      5  N   UNL d   1      58.133  -1.546  29.616  0.00  0.00     0.134 NA
ATOM      6  C   UNL d   1      58.084  -0.756  29.847  0.00  0.00     0.780 A 
ENDROOT
BRANCH   6   7
ATOM      7  N   UNL d   1      57.374  -0.445  30.124  0.00  0.00    -0.058 NA
BRANCH   7   8
ATOM      8  C   UNL d   1      57.268  -0.310  30.929  0.00  0.00     0.100 A 
ATOM      9  C   UNL d   1      56.791  -0.830  31.370  0.00  0.00     0.024 A 
ATOM     10  C   UNL d   1      56.683  -0.696  32.179  0.00  0.00     0.073 A 
ATOM     11  C   UNL d   1      57.049  -0.048  32.542  0.00  0.00     0.004 A 
ATOM     12  C   UNL d   1      57.520   0.462  32.095  0.00  0.00     0.002 A 
ATOM     13  C   UNL d   1      57.631   0.334  31.294  0.00  0.00     0.020 A 
BRANCH  10  14
ATOM     14  C   UNL d   1      56.215  -1.203  32.618  0.00  0.00     0.419 C 
ATOM     15  F   UNL d   1      55.410  -1.052  32.695  0.00  0.00    -0.166 F 
ATOM     16  F   UNL d   1      56.546  -1.857  32.979  0.00  0.00    -0.166 F 
ATOM     17  F   UNL d   1      55.698  -0.621  32.346  0.00  0.00    -0.166 F 
ENDBRANCH  10  14
ENDBRANCH   7   8
ENDBRANCH   6   7
BRANCH   3  18
ATOM     18  N   UNL d   1      58.896  -2.649  29.107  0.00  0.00    -0.137 N 
ATOM     19  C   UNL d   1      59.579  -3.083  29.282  0.00  0.00     0.098 A 
ATOM     20  C   UNL d   1      59.618  -3.873  29.048  0.00  0.00     0.021 A 
ATOM     21  C   UNL d   1      58.318  -3.781  28.484  0.00  0.00     0.021 A 
ATOM     22  C   UNL d   1      58.263  -2.995  28.708  0.00  0.00     0.098 A 
ENDBRANCH   3  18
BRANCH   2  23
ATOM     23  N   UNL d   1      60.140  -0.089  29.477  0.00  0.00    -0.137 N 
ATOM     24  C   UNL d   1      60.474   0.203  30.167  0.00  0.00     0.098 A 
ATOM     25  C   UNL d   1      61.133   0.682  30.118  0.00  0.00     0.021 A 
ATOM     26  C   UNL d   1      61.122   0.578  28.700  0.00  0.00     0.021 A 
ATOM     27  C   UNL d   1      60.456   0.093  28.738  0.00  0.00     0.098 A 
ENDBRANCH   2  23
TORSDOF 5
ENDMDL
