MODEL 1
REMARK VINA RESULT:      45.4      0.000      0.000
REMARK  3 active torsions:
REMARK  status: ('A' for Active; 'I' for Inactive)
REMARK    1  A    between atoms: S_6  and  C_1 
REMARK    2  A    between atoms: C_9  and  S_6 
REMARK    3  A    between atoms: C_7  and  C_9 
REMARK       I    between atoms: N_8  and  C_7 
ROOT
ATOM      1  C   UNL d   1     -50.844  25.053  33.333  0.00  0.00     0.049 A 
ATOM      2  N   UNL d   1     -50.486  23.765  33.352  0.00  0.00    -0.245 NA
ATOM      3  C   UNL d   1     -50.200  24.540  33.330  0.00  0.00     0.087 A 
ATOM      4  C   UNL d   1     -51.534  24.606  33.357  0.00  0.00     0.025 A 
ATOM      5  C   UNL d   1     -51.319  23.810  33.369  0.00  0.00     0.082 A 
ATOM      6  C   UNL d   1     -49.408  24.769  33.308  0.00  0.00     0.021 C 
ATOM      7  C   UNL d   1     -52.330  24.812  33.369  0.00  0.00     0.002 A 
ATOM      8  C   UNL d   1     -51.898  23.221  33.394  0.00  0.00     0.019 A 
ATOM      9  C   UNL d   1     -52.917  24.235  33.394  0.00  0.00     0.000 A 
ATOM     10  C   UNL d   1     -52.690  23.430  33.406  0.00  0.00     0.002 A 
ENDROOT
BRANCH   1  11
ATOM     11  S   UNL d   1     -50.809  25.885  33.314  0.00  0.00    -0.080 SA
BRANCH  11  12
ATOM     12  C   UNL d   1     -50.362  26.285  33.885  0.00  0.00     0.097 C 
BRANCH  12  13
ATOM     13  C   UNL d   1     -50.334  27.113  33.869  0.00  0.00     0.272 C 
ATOM     14  N   UNL d   1     -49.743  27.506  34.306  0.00  0.00    -0.267 N 
ATOM     15  C   UNL d   1     -49.713  28.333  34.292  0.00  0.00     0.110 A 
ATOM     16  C   UNL d   1     -49.191  27.076  34.750  0.00  0.00     0.110 A 
ATOM     17  C   UNL d   1     -49.127  28.726  34.726  0.00  0.00     0.142 A 
ATOM     18  O   UNL d   1     -48.572  28.299  35.171  0.00  0.00    -0.300 OA
ATOM     19  C   UNL d   1     -48.610  27.468  35.179  0.00  0.00     0.142 A 
ATOM     20  O   UNL d   1     -50.885  27.548  33.426  0.00  0.00    -0.266 OA
ENDBRANCH  12  13
ENDBRANCH  11  12
ENDBRANCH   1  11
TORSDOF 3
ENDMDL
MODEL 2
REMARK VINA RESULT:      46.7      1.097      1.574
REMARK  3 active torsions:
REMARK  status: ('A' for Active; 'I' for Inactive)
REMARK    1  A    between atoms: S_6  and  C_1 
REMARK    2  A    between atoms: C_9  and  S_6 
REMARK    3  A    between atoms: C_7  and  C_9 
REMARK       I    between atoms: N_8  and  C_7 
ROOT
ATOM      1  C   UNL d   1     -50.925  25.885  33.339  0.00  0.00     0.049 A 
ATOM      2  N   UNL d   1     -52.217  25.538  33.338  0.00  0.00    -0.245 NA
ATOM      3  C   UNL d   1     -51.695  26.179  33.346  0.00  0.00     0.087 A 
ATOM      4  C   UNL d   1     -50.959  25.064  33.328  0.00  0.00     0.025 A 
ATOM      5  C   UNL d   1     -51.754  24.843  33.327  0.00  0.00     0.082 A 
ATOM      6  C   UNL d   1     -51.900  26.977  33.357  0.00  0.00     0.021 C 
ATOM      7  C   UNL d   1     -50.377  24.483  33.319  0.00  0.00     0.002 A 
ATOM      8  C   UNL d   1     -51.966  24.045  33.317  0.00  0.00     0.019 A 
ATOM      9  C   UNL d   1     -50.575  23.684  33.308  0.00  0.00     0.000 A 
ATOM     10  C   UNL d   1     -51.383  23.469  33.307  0.00  0.00     0.002 A 
ENDROOT
BRANCH   1  11
ATOM     11  S   UNL d   1     -50.227  26.339  33.344  0.00  0.00    -0.080 SA
BRANCH  11  12
ATOM     12  C   UNL d   1     -50.053  26.809  34.003  0.00  0.00     0.097 C 
BRANCH  12  13
ATOM     13  C   UNL d   1     -49.367  27.276  33.997  0.00  0.00     0.272 C 
ATOM     14  N   UNL d   1     -49.138  27.667  34.695  0.00  0.00    -0.267 N 
ATOM     15  C   UNL d   1     -48.455  28.134  34.692  0.00  0.00     0.110 A 
ATOM     16  C   UNL d   1     -49.589  27.592  35.388  0.00  0.00     0.110 A 
ATOM     17  C   UNL d   1     -48.226  28.524  35.386  0.00  0.00     0.142 A 
ATOM     18  O   UNL d   1     -48.674  28.450  36.081  0.00  0.00    -0.300 OA
ATOM     19  C   UNL d   1     -49.359  27.980  36.075  0.00  0.00     0.142 A 
ATOM     20  O   UNL d   1     -48.914  27.355  33.306  0.00  0.00    -0.266 OA
ENDBRANCH  12  13
ENDBRANCH  11  12
ENDBRANCH   1  11
TORSDOF 3
ENDMDL
