MODEL 1
REMARK VINA RESULT:      -7.2      0.000      0.000
REMARK  5 active torsions:
REMARK  status: ('A' for Active; 'I' for Inactive)
REMARK    1  A    between atoms: N_2  and  S_1 
REMARK    2  A    between atoms: C_11  and  S_1 
REMARK    3  A    between atoms: C_3  and  N_9 
REMARK    4  A    between atoms: N_9  and  N_16 
REMARK    5  A    between atoms: N_16  and  C_23 
ROOT
ATOM      1  C   UNL d   1     -47.602  13.614  22.925  0.00  0.00     0.104 A 
ATOM      2  C   UNL d   1     -46.957  13.738  22.415  0.00  0.00     0.015 A 
ATOM      3  C   UNL d   1     -47.519  13.077  23.546  0.00  0.00     0.015 A 
ATOM      4  C   UNL d   1     -46.178  12.808  23.142  0.00  0.00     0.103 A 
ATOM      5  C   UNL d   1     -46.821  12.680  23.655  0.00  0.00     0.022 A 
ATOM      6  C   UNL d   1     -46.255  13.341  22.522  0.00  0.00     0.022 A 
ENDROOT
BRANCH   1   7
ATOM      7  S   UNL d   1     -48.317  14.013  22.823  0.00  0.00     0.271 S 
ATOM      8  O   UNL d   1     -47.929  14.568  22.343  0.00  0.00    -0.200 OA
ATOM      9  O   UNL d   1     -48.698  13.473  23.290  0.00  0.00    -0.200 OA
BRANCH   7  10
ATOM     10  N   UNL d   1     -49.035  14.421  22.715  0.00  0.00    -0.231 N 
ATOM     11  C   UNL d   1     -49.668  14.225  22.206  0.00  0.00     0.075 A 
ATOM     12  C   UNL d   1     -50.260  14.792  22.291  0.00  0.00     0.018 A 
ATOM     13  C   UNL d   1     -49.758  13.591  21.680  0.00  0.00     0.018 A 
ATOM     14  C   UNL d   1     -50.955  14.749  21.859  0.00  0.00     0.002 A 
ATOM     15  C   UNL d   1     -49.996  15.351  22.860  0.00  0.00     0.021 A 
ATOM     16  C   UNL d   1     -51.061  14.123  21.330  0.00  0.00     0.000 A 
ATOM     17  C   UNL d   1     -50.457  13.546  21.245  0.00  0.00     0.002 A 
ATOM     18  C   UNL d   1     -49.265  15.124  23.109  0.00  0.00     0.092 A 
ENDBRANCH   7  10
ENDBRANCH   1   7
BRANCH   4  19
ATOM     19  N   UNL d   1     -45.459  12.407  23.244  0.00  0.00    -0.148 NA
BRANCH  19  20
ATOM     20  N   UNL d   1     -45.293  11.756  22.799  0.00  0.00    -0.138 NA
BRANCH  20  21
ATOM     21  C   UNL d   1     -44.684  11.240  23.022  0.00  0.00     0.218 A 
ATOM     22  C   UNL d   1     -43.932  11.397  22.810  0.00  0.00     0.305 A 
ATOM     23  N   UNL d   1     -43.314  10.878  23.034  0.00  0.00    -0.177 NA
ATOM     24  O   UNL d   1     -43.766  12.079  22.365  0.00  0.00    -0.263 OA
ATOM     25  C   UNL d   1     -43.466  10.221  23.461  0.00  0.00     0.226 A 
ATOM     26  N   UNL d   1     -44.233  10.032  23.696  0.00  0.00    -0.177 NA
ATOM     27  S   UNL d   1     -42.822   9.703  23.681  0.00  0.00    -0.037 SA
ATOM     28  C   UNL d   1     -44.853  10.553  23.471  0.00  0.00     0.305 A 
ATOM     29  O   UNL d   1     -45.632  10.383  23.695  0.00  0.00    -0.263 OA
ENDBRANCH  20  21
ENDBRANCH  19  20
ENDBRANCH   4  19
TORSDOF 5
ENDMDL
MODEL 2
REMARK VINA RESULT:      -4.9      1.661      2.129
REMARK  5 active torsions:
REMARK  status: ('A' for Active; 'I' for Inactive)
REMARK    1  A    between atoms: N_2  and  S_1 
REMARK    2  A    between atoms: C_11  and  S_1 
REMARK    3  A    between atoms: C_3  and  N_9 
REMARK    4  A    between atoms: N_9  and  N_16 
REMARK    5  A    between atoms: N_16  and  C_23 
ROOT
ATOM      1  C   UNL d   1     -47.949  13.106  22.717  0.00  0.00     0.104 A 
ATOM      2  C   UNL d   1     -47.402  12.836  23.282  0.00  0.00     0.015 A 
ATOM      3  C   UNL d   1     -47.709  13.165  21.929  0.00  0.00     0.015 A 
ATOM      4  C   UNL d   1     -46.410  12.694  22.283  0.00  0.00     0.103 A 
ATOM      5  C   UNL d   1     -46.955  12.963  21.714  0.00  0.00     0.022 A 
ATOM      6  C   UNL d   1     -46.643  12.634  23.068  0.00  0.00     0.022 A 
ENDROOT
BRANCH   1   7
ATOM      7  S   UNL d   1     -48.720  13.313  22.926  0.00  0.00     0.271 S 
ATOM      8  O   UNL d   1     -48.955  13.204  22.139  0.00  0.00    -0.200 OA
ATOM      9  O   UNL d   1     -48.493  13.421  23.697  0.00  0.00    -0.200 OA
BRANCH   7  10
ATOM     10  N   UNL d   1     -49.500  13.522  23.131  0.00  0.00    -0.231 N 
ATOM     11  C   UNL d   1     -49.808  14.286  23.277  0.00  0.00     0.075 A 
ATOM     12  C   UNL d   1     -50.609  14.216  23.460  0.00  0.00     0.018 A 
ATOM     13  C   UNL d   1     -49.437  15.026  23.259  0.00  0.00     0.018 A 
ATOM     14  C   UNL d   1     -51.064  14.875  23.630  0.00  0.00     0.002 A 
ATOM     15  C   UNL d   1     -50.806  13.399  23.428  0.00  0.00     0.021 A 
ATOM     16  C   UNL d   1     -50.711  15.621  23.618  0.00  0.00     0.000 A 
ATOM     17  C   UNL d   1     -49.896  15.690  23.431  0.00  0.00     0.002 A 
ATOM     18  C   UNL d   1     -50.140  12.992  23.232  0.00  0.00     0.092 A 
ENDBRANCH   7  10
ENDBRANCH   1   7
BRANCH   4  19
ATOM     19  N   UNL d   1     -45.636  12.486  22.073  0.00  0.00    -0.148 NA
BRANCH  19  20
ATOM     20  N   UNL d   1     -45.011  12.796  22.475  0.00  0.00    -0.138 NA
BRANCH  20  21
ATOM     21  C   UNL d   1     -44.261  12.832  22.123  0.00  0.00     0.218 A 
ATOM     22  C   UNL d   1     -44.022  13.503  21.765  0.00  0.00     0.305 A 
ATOM     23  N   UNL d   1     -43.267  13.543  21.407  0.00  0.00    -0.177 NA
ATOM     24  O   UNL d   1     -44.530  14.161  21.749  0.00  0.00    -0.263 OA
ATOM     25  C   UNL d   1     -42.775  12.915  21.419  0.00  0.00     0.226 A 
ATOM     26  N   UNL d   1     -42.993  12.207  21.780  0.00  0.00    -0.177 NA
ATOM     27  S   UNL d   1     -42.005  12.975  21.048  0.00  0.00    -0.037 SA
ATOM     28  C   UNL d   1     -43.752  12.167  22.139  0.00  0.00     0.305 A 
ATOM     29  O   UNL d   1     -43.993  11.466  22.509  0.00  0.00    -0.263 OA
ENDBRANCH  20  21
ENDBRANCH  19  20
ENDBRANCH   4  19
TORSDOF 5
ENDMDL
MODEL 3
REMARK VINA RESULT:      -4.5      3.765      6.668
REMARK  5 active torsions:
REMARK  status: ('A' for Active; 'I' for Inactive)
REMARK    1  A    between atoms: N_2  and  S_1 
REMARK    2  A    between atoms: C_11  and  S_1 
REMARK    3  A    between atoms: C_3  and  N_9 
REMARK    4  A    between atoms: N_9  and  N_16 
REMARK    5  A    between atoms: N_16  and  C_23 
ROOT
ATOM      1  C   UNL d   1     -42.375  13.573  21.175  0.00  0.00     0.104 A 
ATOM      2  C   UNL d   1     -42.495  12.760  21.304  0.00  0.00     0.015 A 
ATOM      3  C   UNL d   1     -43.010  14.089  21.279  0.00  0.00     0.015 A 
ATOM      4  C   UNL d   1     -43.851  12.993  21.632  0.00  0.00     0.103 A 
ATOM      5  C   UNL d   1     -43.736  13.807  21.503  0.00  0.00     0.022 A 
ATOM      6  C   UNL d   1     -43.223  12.474  21.530  0.00  0.00     0.022 A 
ENDROOT
BRANCH   1   7
ATOM      7  S   UNL d   1     -41.640  13.870  20.946  0.00  0.00     0.271 S 
ATOM      8  O   UNL d   1     -41.945  14.639  20.993  0.00  0.00    -0.200 OA
ATOM      9  O   UNL d   1     -41.338  13.119  20.899  0.00  0.00    -0.200 OA
BRANCH   7  10
ATOM     10  N   UNL d   1     -40.900  14.177  20.716  0.00  0.00    -0.231 N 
ATOM     11  C   UNL d   1     -40.622  14.325  19.941  0.00  0.00     0.075 A 
ATOM     12  C   UNL d   1     -39.857  14.628  19.990  0.00  0.00     0.018 A 
ATOM     13  C   UNL d   1     -40.991  14.212  19.208  0.00  0.00     0.018 A 
ATOM     14  C   UNL d   1     -39.436  14.829  19.316  0.00  0.00     0.002 A 
ATOM     15  C   UNL d   1     -39.653  14.671  20.804  0.00  0.00     0.021 A 
ATOM     16  C   UNL d   1     -39.789  14.723  18.576  0.00  0.00     0.000 A 
ATOM     17  C   UNL d   1     -40.568  14.414  18.529  0.00  0.00     0.002 A 
ATOM     18  C   UNL d   1     -40.279  14.400  21.231  0.00  0.00     0.092 A 
ENDBRANCH   7  10
ENDBRANCH   1   7
BRANCH   4  19
ATOM     19  N   UNL d   1     -44.590  12.694  21.861  0.00  0.00    -0.148 NA
BRANCH  19  20
ATOM     20  N   UNL d   1     -44.940  12.957  22.537  0.00  0.00    -0.138 NA
BRANCH  20  21
ATOM     21  C   UNL d   1     -45.661  12.636  22.789  0.00  0.00     0.218 A 
ATOM     22  C   UNL d   1     -46.345  13.003  22.608  0.00  0.00     0.305 A 
ATOM     23  N   UNL d   1     -47.075  12.681  22.860  0.00  0.00    -0.177 NA
ATOM     24  O   UNL d   1     -46.326  13.708  22.168  0.00  0.00    -0.263 OA
ATOM     25  C   UNL d   1     -47.100  12.005  23.283  0.00  0.00     0.226 A 
ATOM     26  N   UNL d   1     -46.411  11.602  23.486  0.00  0.00    -0.177 NA
ATOM     27  S   UNL d   1     -47.857  11.692  23.532  0.00  0.00    -0.037 SA
ATOM     28  C   UNL d   1     -45.677  11.926  23.233  0.00  0.00     0.305 A 
ATOM     29  O   UNL d   1     -44.972  11.538  23.424  0.00  0.00    -0.263 OA
ENDBRANCH  20  21
ENDBRANCH  19  20
ENDBRANCH   4  19
TORSDOF 5
ENDMDL
