MODEL 1
REMARK VINA RESULT:      -3.6      0.000      0.000
REMARK  3 active torsions:
REMARK  status: ('A' for Active; 'I' for Inactive)
REMARK    1  A    between atoms: C_4  and  S_1 
REMARK       I    between atoms: C_2  and  N_3 
REMARK    2  A    between atoms: C_9  and  C_2 
REMARK    3  A    between atoms: N_3  and  C_12 
ROOT
ATOM      1  C   UNL d   1      33.211  19.246 -22.875  0.00  0.00     0.107 A 
ATOM      2  C   UNL d   1      33.198  19.971 -23.259  0.00  0.00     0.015 A 
ATOM      3  C   UNL d   1      33.223  19.216 -22.047  0.00  0.00     0.015 A 
ATOM      4  C   UNL d   1      33.208  20.646 -22.003  0.00  0.00     0.085 A 
ATOM      5  C   UNL d   1      33.221  19.926 -21.605  0.00  0.00     0.020 A 
ATOM      6  C   UNL d   1      33.196  20.680 -22.817  0.00  0.00     0.020 A 
ENDROOT
BRANCH   4   7
ATOM      7  N   UNL d   1      33.206  21.364 -21.555  0.00  0.00    -0.208 NA
ATOM      8  C   UNL d   1      32.540  21.585 -21.123  0.00  0.00     0.279 C 
ATOM      9  O   UNL d   1      31.855  21.094 -21.125  0.00  0.00    -0.265 OA
BRANCH   8  10
ATOM     10  C   UNL d   1      32.539  22.285 -20.687  0.00  0.00     0.058 A 
ATOM     11  C   UNL d   1      32.871  22.300 -19.909  0.00  0.00     0.005 A 
ATOM     12  C   UNL d   1      32.869  23.000 -19.473  0.00  0.00     0.000 A 
ATOM     13  C   UNL d   1      32.535  23.701 -19.805  0.00  0.00     0.000 A 
ATOM     14  C   UNL d   1      32.213  23.678 -20.564  0.00  0.00     0.000 A 
ATOM     15  C   UNL d   1      32.215  22.978 -21.000  0.00  0.00     0.005 A 
ENDBRANCH   8  10
ENDBRANCH   4   7
BRANCH   1  16
ATOM     16  S   UNL d   1      33.213  18.529 -23.321  0.00  0.00     0.302 S 
ATOM     17  O   UNL d   1      33.193  18.973 -24.034  0.00  0.00    -0.197 OA
ATOM     18  O   UNL d   1      33.232  18.093 -22.621  0.00  0.00    -0.197 OA
ATOM     19  N   UNL d   1      33.214  17.829 -23.757  0.00  0.00    -0.043 N 
ENDBRANCH   1  16
TORSDOF 3
ENDMDL
MODEL 2
REMARK VINA RESULT:      -2.8      0.822      1.111
REMARK  3 active torsions:
REMARK  status: ('A' for Active; 'I' for Inactive)
REMARK    1  A    between atoms: C_4  and  S_1 
REMARK       I    between atoms: C_2  and  N_3 
REMARK    2  A    between atoms: C_9  and  C_2 
REMARK    3  A    between atoms: N_3  and  C_12 
ROOT
ATOM      1  C   UNL d   1      32.888  18.405 -23.311  0.00  0.00     0.107 A 
ATOM      2  C   UNL d   1      32.774  19.136 -23.667  0.00  0.00     0.015 A 
ATOM      3  C   UNL d   1      33.121  18.362 -22.518  0.00  0.00     0.015 A 
ATOM      4  C   UNL d   1      33.121  19.790 -22.448  0.00  0.00     0.085 A 
ATOM      5  C   UNL d   1      33.239  19.064 -22.080  0.00  0.00     0.020 A 
ATOM      6  C   UNL d   1      32.892  19.838 -23.229  0.00  0.00     0.020 A 
ENDROOT
BRANCH   4   7
ATOM      7  N   UNL d   1      33.240  20.502 -22.005  0.00  0.00    -0.208 NA
ATOM      8  C   UNL d   1      32.601  20.893 -21.663  0.00  0.00     0.279 C 
ATOM      9  O   UNL d   1      31.822  20.584 -21.753  0.00  0.00    -0.265 OA
BRANCH   8  10
ATOM     10  C   UNL d   1      32.717  21.585 -21.231  0.00  0.00     0.058 A 
ATOM     11  C   UNL d   1      33.026  21.547 -20.444  0.00  0.00     0.005 A 
ATOM     12  C   UNL d   1      33.143  22.240 -20.012  0.00  0.00     0.000 A 
ATOM     13  C   UNL d   1      32.953  22.987 -20.357  0.00  0.00     0.000 A 
ATOM     14  C   UNL d   1      32.653  23.016 -21.125  0.00  0.00     0.000 A 
ATOM     15  C   UNL d   1      32.536  22.323 -21.557  0.00  0.00     0.005 A 
ENDBRANCH   8  10
ENDBRANCH   4   7
BRANCH   1  16
ATOM     16  S   UNL d   1      32.769  17.696 -23.753  0.00  0.00     0.302 S 
ATOM     17  O   UNL d   1      33.088  17.247 -23.119  0.00  0.00    -0.197 OA
ATOM     18  O   UNL d   1      32.457  18.137 -24.377  0.00  0.00    -0.197 OA
ATOM     19  N   UNL d   1      32.653  17.002 -24.185  0.00  0.00    -0.043 N 
ENDBRANCH   1  16
TORSDOF 3
ENDMDL
MODEL 3
REMARK VINA RESULT:      -2.7      1.707      2.627
REMARK  3 active torsions:
REMARK  status: ('A' for Active; 'I' for Inactive)
REMARK    1  A    between atoms: C_4  and  S_1 
REMARK       I    between atoms: C_2  and  N_3 
REMARK    2  A    between atoms: C_9  and  C_2 
REMARK    3  A    between atoms: N_3  and  C_12 
ROOT
ATOM      1  C   UNL d   1      32.632  17.107 -24.024  0.00  0.00     0.107 A 
ATOM      2  C   UNL d   1      32.106  17.317 -23.430  0.00  0.00     0.015 A 
ATOM      3  C   UNL d   1      33.151  17.671 -24.336  0.00  0.00     0.015 A 
ATOM      4  C   UNL d   1      32.606  18.653 -23.450  0.00  0.00     0.085 A 
ATOM      5  C   UNL d   1      33.138  18.455 -24.045  0.00  0.00     0.020 A 
ATOM      6  C   UNL d   1      32.093  18.101 -23.139  0.00  0.00     0.020 A 
ENDROOT
BRANCH   4   7
ATOM      7  N   UNL d   1      32.593  19.447 -23.155  0.00  0.00    -0.208 NA
ATOM      8  C   UNL d   1      32.884  19.617 -22.403  0.00  0.00     0.279 C 
ATOM      9  O   UNL d   1      33.197  18.999 -21.923  0.00  0.00    -0.265 OA
BRANCH   8  10
ATOM     10  C   UNL d   1      32.871  20.390 -22.116  0.00  0.00     0.058 A 
ATOM     11  C   UNL d   1      33.239  21.012 -22.557  0.00  0.00     0.005 A 
ATOM     12  C   UNL d   1      33.226  21.785 -22.270  0.00  0.00     0.000 A 
ATOM     13  C   UNL d   1      32.845  21.954 -21.535  0.00  0.00     0.000 A 
ATOM     14  C   UNL d   1      32.488  21.342 -21.112  0.00  0.00     0.000 A 
ATOM     15  C   UNL d   1      32.501  20.569 -21.399  0.00  0.00     0.005 A 
ENDBRANCH   8  10
ENDBRANCH   4   7
BRANCH   1  16
ATOM     16  S   UNL d   1      32.646  16.316 -24.318  0.00  0.00     0.302 S 
ATOM     17  O   UNL d   1      32.176  16.551 -24.973  0.00  0.00    -0.197 OA
ATOM     18  O   UNL d   1      33.107  16.085 -23.674  0.00  0.00    -0.197 OA
ATOM     19  N   UNL d   1      32.659  15.543 -24.605  0.00  0.00    -0.043 N 
ENDBRANCH   1  16
TORSDOF 3
ENDMDL
MODEL 4
REMARK VINA RESULT:      -2.6      3.120      4.957
REMARK  3 active torsions:
REMARK  status: ('A' for Active; 'I' for Inactive)
REMARK    1  A    between atoms: C_4  and  S_1 
REMARK       I    between atoms: C_2  and  N_3 
REMARK    2  A    between atoms: C_9  and  C_2 
REMARK    3  A    between atoms: N_3  and  C_12 
ROOT
ATOM      1  C   UNL d   1      32.752  23.013 -17.893  0.00  0.00     0.107 A 
ATOM      2  C   UNL d   1      33.108  22.377 -18.271  0.00  0.00     0.015 A 
ATOM      3  C   UNL d   1      32.523  23.679 -18.328  0.00  0.00     0.015 A 
ATOM      4  C   UNL d   1      33.014  23.060 -19.520  0.00  0.00     0.085 A 
ATOM      5  C   UNL d   1      32.656  23.702 -19.153  0.00  0.00     0.020 A 
ATOM      6  C   UNL d   1      33.241  22.401 -19.096  0.00  0.00     0.020 A 
ENDROOT
BRANCH   4   7
ATOM      7  N   UNL d   1      33.148  23.084 -20.356  0.00  0.00    -0.208 NA
ATOM      8  C   UNL d   1      32.639  22.693 -20.872  0.00  0.00     0.279 C 
ATOM      9  O   UNL d   1      31.978  22.266 -20.568  0.00  0.00    -0.265 OA
BRANCH   8  10
ATOM     10  C   UNL d   1      32.770  22.717 -21.685  0.00  0.00     0.058 A 
ATOM     11  C   UNL d   1      32.999  22.014 -22.098  0.00  0.00     0.005 A 
ATOM     12  C   UNL d   1      33.130  22.037 -22.912  0.00  0.00     0.000 A 
ATOM     13  C   UNL d   1      33.035  22.764 -23.332  0.00  0.00     0.000 A 
ATOM     14  C   UNL d   1      32.812  23.445 -22.923  0.00  0.00     0.000 A 
ATOM     15  C   UNL d   1      32.680  23.421 -22.108  0.00  0.00     0.005 A 
ENDBRANCH   8  10
ENDBRANCH   4   7
BRANCH   1  16
ATOM     16  S   UNL d   1      32.617  22.988 -17.060  0.00  0.00     0.302 S 
ATOM     17  O   UNL d   1      33.187  22.376 -16.986  0.00  0.00    -0.197 OA
ATOM     18  O   UNL d   1      32.058  23.590 -17.132  0.00  0.00    -0.197 OA
ATOM     19  N   UNL d   1      32.486  22.965 -16.245  0.00  0.00    -0.043 N 
ENDBRANCH   1  16
TORSDOF 3
ENDMDL
MODEL 5
REMARK VINA RESULT:      -1.3      2.336      4.669
REMARK  3 active torsions:
REMARK  status: ('A' for Active; 'I' for Inactive)
REMARK    1  A    between atoms: C_4  and  S_1 
REMARK       I    between atoms: C_2  and  N_3 
REMARK    2  A    between atoms: C_9  and  C_2 
REMARK    3  A    between atoms: N_3  and  C_12 
ROOT
ATOM      1  C   UNL d   1      32.753  22.688 -18.884  0.00  0.00     0.107 A 
ATOM      2  C   UNL d   1      32.595  23.032 -19.612  0.00  0.00     0.015 A 
ATOM      3  C   UNL d   1      33.069  21.924 -18.846  0.00  0.00     0.015 A 
ATOM      4  C   UNL d   1      33.066  21.860 -20.275  0.00  0.00     0.085 A 
ATOM      5  C   UNL d   1      33.228  21.504 -19.552  0.00  0.00     0.020 A 
ATOM      6  C   UNL d   1      32.754  22.612 -20.318  0.00  0.00     0.020 A 
ENDROOT
BRANCH   4   7
ATOM      7  N   UNL d   1      33.227  21.435 -20.990  0.00  0.00    -0.208 NA
ATOM      8  C   UNL d   1      32.765  20.788 -21.204  0.00  0.00     0.279 C 
ATOM      9  O   UNL d   1      32.127  20.545 -20.709  0.00  0.00    -0.265 OA
BRANCH   8  10
ATOM     10  C   UNL d   1      32.922  20.374 -21.899  0.00  0.00     0.058 A 
ATOM     11  C   UNL d   1      33.017  20.793 -22.629  0.00  0.00     0.005 A 
ATOM     12  C   UNL d   1      33.174  20.379 -23.325  0.00  0.00     0.000 A 
ATOM     13  C   UNL d   1      33.239  19.536 -23.307  0.00  0.00     0.000 A 
ATOM     14  C   UNL d   1      33.145  19.136 -22.592  0.00  0.00     0.000 A 
ATOM     15  C   UNL d   1      32.988  19.550 -21.896  0.00  0.00     0.005 A 
ENDBRANCH   8  10
ENDBRANCH   4   7
BRANCH   1  16
ATOM     16  S   UNL d   1      32.592  23.111 -18.172  0.00  0.00     0.302 S 
ATOM     17  O   UNL d   1      32.013  23.568 -18.574  0.00  0.00    -0.197 OA
ATOM     18  O   UNL d   1      33.161  22.663 -17.777  0.00  0.00    -0.197 OA
ATOM     19  N   UNL d   1      32.435  23.525 -17.476  0.00  0.00    -0.043 N 
ENDBRANCH   1  16
TORSDOF 3
ENDMDL
