MODEL 1
REMARK VINA RESULT:      40.7      0.000      0.000
REMARK  3 active torsions:
REMARK  status: ('A' for Active; 'I' for Inactive)
REMARK    1  A    between atoms: C_6  and  N_3 
REMARK    2  A    between atoms: C_5  and  C_4 
REMARK    3  A    between atoms: O_18  and  C_14 
ROOT
ATOM      1  C   UNL d   1     -52.436  26.135  33.392  0.00  0.00     0.366 A 
ATOM      2  C   UNL d   1     -51.636  26.338  33.381  0.00  0.00     0.308 A 
ATOM      3  N   UNL d   1     -51.422  25.561  33.452  0.00  0.00    -0.272 N 
ATOM      4  C   UNL d   1     -52.235  25.338  33.465  0.00  0.00     0.115 A 
ATOM      5  O   UNL d   1     -51.209  27.039  33.323  0.00  0.00    -0.265 OA
ATOM      6  F   UNL d   1     -52.493  26.955  33.319  0.00  0.00    -0.188 F 
ATOM      7  F   UNL d   1     -53.234  26.328  33.368  0.00  0.00    -0.188 F 
ENDROOT
BRANCH   3   8
ATOM      8  C   UNL d   1     -50.698  25.133  33.497  0.00  0.00     0.067 A 
ATOM      9  C   UNL d   1     -49.997  25.507  33.309  0.00  0.00     0.020 A 
ATOM     10  C   UNL d   1     -49.280  25.100  33.348  0.00  0.00     0.026 A 
ATOM     11  C   UNL d   1     -49.289  24.309  33.581  0.00  0.00     0.094 A 
ATOM     12  C   UNL d   1     -49.986  23.921  33.772  0.00  0.00     0.026 A 
ATOM     13  C   UNL d   1     -50.704  24.327  33.733  0.00  0.00     0.020 A 
BRANCH  11  14
ATOM     14  O   UNL d   1     -48.566  23.885  33.624  0.00  0.00    -0.328 OA
ATOM     15  C   UNL d   1     -47.884  24.253  33.932  0.00  0.00     0.181 C 
ENDBRANCH  11  14
ENDBRANCH   3   8
BRANCH   4  16
ATOM     16  C   UNL d   1     -52.646  24.617  33.525  0.00  0.00     0.045 A 
ATOM     17  C   UNL d   1     -53.419  24.618  33.791  0.00  0.00     0.141 A 
ATOM     18  F   UNL d   1     -53.802  25.335  34.003  0.00  0.00    -0.204 F 
ATOM     19  C   UNL d   1     -53.826  23.880  33.848  0.00  0.00     0.030 A 
ATOM     20  C   UNL d   1     -53.431  23.195  33.636  0.00  0.00     0.002 A 
ATOM     21  C   UNL d   1     -52.661  23.189  33.370  0.00  0.00     0.000 A 
ATOM     22  C   UNL d   1     -52.248  23.913  33.309  0.00  0.00     0.004 A 
ENDBRANCH   4  16
TORSDOF 3
ENDMDL
