MODEL 1
REMARK VINA RESULT:     108.8      0.000      0.000
REMARK  4 active torsions:
REMARK  status: ('A' for Active; 'I' for Inactive)
REMARK    1  A    between atoms: C_2  and  N_1 
REMARK    2  A    between atoms: C_14  and  C_7 
REMARK    3  A    between atoms: O_20  and  C_14 
REMARK    4  A    between atoms: C_23  and  O_20 
ROOT
ATOM      1  C   UNL d   1      59.821  49.249  51.096  0.00  0.00     0.105 A 
ATOM      2  C   UNL d   1      59.821  48.581  50.602  0.00  0.00     0.086 A 
ATOM      3  S   UNL d   1      59.157  49.700  50.934  0.00  0.00    -0.069 SA
ATOM      4  C   UNL d   1      59.133  48.657  50.143  0.00  0.00     0.013 A 
ATOM      5  C   UNL d   1      58.734  49.335  50.348  0.00  0.00     0.031 A 
ATOM      6  C   UNL d   1      58.811  48.185  49.554  0.00  0.00     0.001 A 
ATOM      7  C   UNL d   1      58.048  49.546  49.991  0.00  0.00     0.006 A 
ATOM      8  C   UNL d   1      58.104  48.390  49.177  0.00  0.00     0.000 A 
ATOM      9  C   UNL d   1      57.721  49.073  49.397  0.00  0.00     0.001 A 
ENDROOT
BRANCH   1  10
ATOM     10  N   UNL d   1      60.452  49.346  51.640  0.00  0.00    -0.236 N 
ATOM     11  C   UNL d   1      61.228  49.395  51.375  0.00  0.00     0.266 A 
ATOM     12  C   UNL d   1      61.686  49.485  52.036  0.00  0.00     0.069 A 
ATOM     13  O   UNL d   1      61.462  49.354  50.569  0.00  0.00    -0.267 OA
ATOM     14  C   UNL d   1      62.500  49.564  52.124  0.00  0.00     0.165 A 
ATOM     15  C   UNL d   1      61.194  49.493  52.713  0.00  0.00     0.069 A 
ATOM     16  C   UNL d   1      62.838  49.651  52.872  0.00  0.00     0.006 A 
ATOM     17  O   UNL d   1      61.790  49.543  52.672  0.00  0.00    -0.341 OA
ATOM     18  C   UNL d   1      62.345  49.659  53.549  0.00  0.00     0.006 A 
ATOM     19  C   UNL d   1      61.530  49.579  53.456  0.00  0.00     0.165 A 
ATOM     20  C   UNL d   1      60.436  49.407  52.462  0.00  0.00     0.266 A 
ATOM     21  O   UNL d   1      59.872  49.388  52.865  0.00  0.00    -0.267 OA
ENDBRANCH   1  10
BRANCH   2  22
ATOM     22  C   UNL d   1      60.380  47.970  50.568  0.00  0.00     0.302 C 
ATOM     23  O   UNL d   1      60.531  47.654  50.979  0.00  0.00    -0.259 OA
BRANCH  22  24
ATOM     24  O   UNL d   1      60.762  47.811  49.831  0.00  0.00    -0.271 OA
BRANCH  24  25
ATOM     25  C   UNL d   1      61.161  47.116  49.740  0.00  0.00     0.126 C 
ATOM     26  C   UNL d   1      61.848  47.120  49.262  0.00  0.00     0.029 C 
ENDBRANCH  24  25
ENDBRANCH  22  24
ENDBRANCH   2  22
TORSDOF 4
ENDMDL
MODEL 2
REMARK VINA RESULT:     108.9      1.953      3.609
REMARK  4 active torsions:
REMARK  status: ('A' for Active; 'I' for Inactive)
REMARK    1  A    between atoms: C_2  and  N_1 
REMARK    2  A    between atoms: C_14  and  C_7 
REMARK    3  A    between atoms: O_20  and  C_14 
REMARK    4  A    between atoms: C_23  and  O_20 
ROOT
ATOM      1  C   UNL d   1      61.717  46.848  50.129  0.00  0.00     0.105 A 
ATOM      2  C   UNL d   1      61.418  46.080  50.234  0.00  0.00     0.086 A 
ATOM      3  S   UNL d   1      62.373  46.813  49.638  0.00  0.00    -0.069 SA
ATOM      4  C   UNL d   1      61.921  45.593  49.788  0.00  0.00     0.013 A 
ATOM      5  C   UNL d   1      62.497  46.040  49.429  0.00  0.00     0.031 A 
ATOM      6  C   UNL d   1      61.929  44.782  49.661  0.00  0.00     0.001 A 
ATOM      7  C   UNL d   1      63.060  45.711  48.963  0.00  0.00     0.006 A 
ATOM      8  C   UNL d   1      62.503  44.428  49.182  0.00  0.00     0.000 A 
ATOM      9  C   UNL d   1      63.070  44.894  48.832  0.00  0.00     0.001 A 
ENDROOT
BRANCH   1  10
ATOM     10  N   UNL d   1      61.331  47.486  50.511  0.00  0.00    -0.236 N 
ATOM     11  C   UNL d   1      60.893  48.029  50.078  0.00  0.00     0.266 A 
ATOM     12  C   UNL d   1      60.601  48.562  50.613  0.00  0.00     0.069 A 
ATOM     13  O   UNL d   1      60.789  48.005  49.244  0.00  0.00    -0.267 OA
ATOM     14  C   UNL d   1      60.127  49.226  50.513  0.00  0.00     0.165 A 
ATOM     15  C   UNL d   1      60.859  48.349  51.380  0.00  0.00     0.069 A 
ATOM     16  C   UNL d   1      59.902  49.686  51.161  0.00  0.00     0.006 A 
ATOM     17  O   UNL d   1      60.516  48.808  51.205  0.00  0.00    -0.341 OA
ATOM     18  C   UNL d   1      60.160  49.473  51.928  0.00  0.00     0.006 A 
ATOM     19  C   UNL d   1      60.635  48.806  52.023  0.00  0.00     0.165 A 
ATOM     20  C   UNL d   1      61.307  47.687  51.311  0.00  0.00     0.266 A 
ATOM     21  O   UNL d   1      61.618  47.346  51.829  0.00  0.00    -0.267 OA
ENDBRANCH   1  10
BRANCH   2  22
ATOM     22  C   UNL d   1      60.762  45.845  50.685  0.00  0.00     0.302 C 
ATOM     23  O   UNL d   1      60.247  45.974  50.588  0.00  0.00    -0.259 OA
BRANCH  22  24
ATOM     24  O   UNL d   1      60.891  45.357  51.362  0.00  0.00    -0.271 OA
BRANCH  24  25
ATOM     25  C   UNL d   1      60.310  44.848  51.592  0.00  0.00     0.126 C 
ATOM     26  C   UNL d   1      60.539  44.149  51.994  0.00  0.00     0.029 C 
ENDBRANCH  24  25
ENDBRANCH  22  24
ENDBRANCH   2  22
TORSDOF 4
ENDMDL
