MODEL 1
REMARK VINA RESULT:      34.8      0.000      0.000
REMARK  4 active torsions:
REMARK  status: ('A' for Active; 'I' for Inactive)
REMARK    1  A    between atoms: C_10  and  C_3 
REMARK    2  A    between atoms: C_12  and  N_6 
REMARK    3  A    between atoms: O_15  and  C_10 
REMARK    4  A    between atoms: C_18  and  O_15 
ROOT
ATOM      1  C   UNL d   1      44.178 -14.710  44.751  0.00  0.00     0.086 A 
ATOM      2  C   UNL d   1      44.633 -14.023  44.726  0.00  0.00     0.038 A 
ATOM      3  C   UNL d   1      45.445 -14.066  44.598  0.00  0.00     0.165 A 
ATOM      4  C   UNL d   1      44.542 -15.445  44.647  0.00  0.00     0.282 A 
ATOM      5  N   UNL d   1      45.802 -14.797  44.495  0.00  0.00    -0.157 NA
ATOM      6  N   UNL d   1      45.350 -15.486  44.519  0.00  0.00    -0.194 N 
ATOM      7  C   UNL d   1      43.393 -14.491  44.887  0.00  0.00     0.137 A 
ATOM      8  C   UNL d   1      44.136 -13.378  44.845  0.00  0.00     0.039 A 
ATOM      9  S   UNL d   1      43.360 -13.669  44.946  0.00  0.00    -0.066 SA
ATOM     10  O   UNL d   1      44.090 -16.135  44.671  0.00  0.00    -0.265 OA
ATOM     11  N   UNL d   1      42.750 -15.008  44.953  0.00  0.00    -0.141 N 
ENDROOT
BRANCH   6  12
ATOM     12  C   UNL d   1      45.714 -16.221  44.414  0.00  0.00     0.086 A 
ATOM     13  C   UNL d   1      46.216 -16.345  43.775  0.00  0.00     0.019 A 
ATOM     14  C   UNL d   1      46.578 -17.078  43.672  0.00  0.00     0.002 A 
ATOM     15  C   UNL d   1      46.437 -17.687  44.211  0.00  0.00     0.000 A 
ATOM     16  C   UNL d   1      45.931 -17.561  44.853  0.00  0.00     0.002 A 
ATOM     17  C   UNL d   1      45.570 -16.828  44.955  0.00  0.00     0.019 A 
ENDBRANCH   6  12
BRANCH   3  18
ATOM     18  C   UNL d   1      45.897 -13.376  44.573  0.00  0.00     0.320 C 
ATOM     19  O   UNL d   1      46.647 -13.362  44.915  0.00  0.00    -0.257 OA
BRANCH  18  20
ATOM     20  O   UNL d   1      45.596 -12.699  44.205  0.00  0.00    -0.270 OA
BRANCH  20  21
ATOM     21  C   UNL d   1      46.003 -12.356  43.578  0.00  0.00     0.126 C 
ATOM     22  C   UNL d   1      45.600 -12.155  42.888  0.00  0.00     0.029 C 
ENDBRANCH  20  21
ENDBRANCH  18  20
ENDBRANCH   3  18
TORSDOF 4
ENDMDL
MODEL 2
REMARK VINA RESULT:      36.3      7.067      7.820
REMARK  4 active torsions:
REMARK  status: ('A' for Active; 'I' for Inactive)
REMARK    1  A    between atoms: C_10  and  C_3 
REMARK    2  A    between atoms: C_12  and  N_6 
REMARK    3  A    between atoms: O_15  and  C_10 
REMARK    4  A    between atoms: C_18  and  O_15 
ROOT
ATOM      1  C   UNL d   1      45.333 -15.439  36.898  0.00  0.00     0.086 A 
ATOM      2  C   UNL d   1      45.430 -14.717  37.286  0.00  0.00     0.038 A 
ATOM      3  C   UNL d   1      44.772 -14.269  37.500  0.00  0.00     0.165 A 
ATOM      4  C   UNL d   1      44.572 -15.712  36.725  0.00  0.00     0.282 A 
ATOM      5  N   UNL d   1      44.020 -14.543  37.325  0.00  0.00    -0.157 NA
ATOM      6  N   UNL d   1      43.920 -15.265  36.938  0.00  0.00    -0.194 N 
ATOM      7  C   UNL d   1      46.084 -15.754  36.759  0.00  0.00     0.137 A 
ATOM      8  C   UNL d   1      46.234 -14.583  37.387  0.00  0.00     0.039 A 
ATOM      9  S   UNL d   1      46.645 -15.230  37.058  0.00  0.00    -0.066 SA
ATOM     10  O   UNL d   1      44.472 -16.433  36.337  0.00  0.00    -0.265 OA
ATOM     11  N   UNL d   1      46.244 -16.474  36.382  0.00  0.00    -0.141 N 
ENDROOT
BRANCH   6  12
ATOM     12  C   UNL d   1      43.158 -15.537  36.765  0.00  0.00     0.086 A 
ATOM     13  C   UNL d   1      43.032 -16.335  36.610  0.00  0.00     0.019 A 
ATOM     14  C   UNL d   1      42.273 -16.604  36.438  0.00  0.00     0.002 A 
ATOM     15  C   UNL d   1      41.641 -16.075  36.420  0.00  0.00     0.000 A 
ATOM     16  C   UNL d   1      41.770 -15.272  36.575  0.00  0.00     0.002 A 
ATOM     17  C   UNL d   1      42.529 -15.004  36.748  0.00  0.00     0.019 A 
ENDBRANCH   6  12
BRANCH   3  18
ATOM     18  C   UNL d   1      44.872 -13.547  37.887  0.00  0.00     0.320 C 
ATOM     19  O   UNL d   1      45.453 -13.021  37.634  0.00  0.00    -0.257 OA
BRANCH  18  20
ATOM     20  O   UNL d   1      44.389 -13.354  38.529  0.00  0.00    -0.270 OA
BRANCH  20  21
ATOM     21  C   UNL d   1      44.635 -12.790  39.075  0.00  0.00     0.126 C 
ATOM     22  C   UNL d   1      44.213 -12.087  39.158  0.00  0.00     0.029 C 
ENDBRANCH  20  21
ENDBRANCH  18  20
ENDBRANCH   3  18
TORSDOF 4
ENDMDL
MODEL 3
REMARK VINA RESULT:      37.6      1.137      3.340
REMARK  4 active torsions:
REMARK  status: ('A' for Active; 'I' for Inactive)
REMARK    1  A    between atoms: C_10  and  C_3 
REMARK    2  A    between atoms: C_12  and  N_6 
REMARK    3  A    between atoms: O_15  and  C_10 
REMARK    4  A    between atoms: C_18  and  O_15 
ROOT
ATOM      1  C   UNL d   1      44.171 -15.147  44.749  0.00  0.00     0.086 A 
ATOM      2  C   UNL d   1      44.649 -15.818  44.706  0.00  0.00     0.038 A 
ATOM      3  C   UNL d   1      45.460 -15.744  44.581  0.00  0.00     0.165 A 
ATOM      4  C   UNL d   1      44.510 -14.397  44.668  0.00  0.00     0.282 A 
ATOM      5  N   UNL d   1      45.791 -14.998  44.501  0.00  0.00    -0.157 NA
ATOM      6  N   UNL d   1      45.316 -14.325  44.544  0.00  0.00    -0.194 N 
ATOM      7  C   UNL d   1      43.394 -15.397  44.876  0.00  0.00     0.137 A 
ATOM      8  C   UNL d   1      44.174 -16.482  44.804  0.00  0.00     0.039 A 
ATOM      9  S   UNL d   1      43.389 -16.220  44.911  0.00  0.00    -0.066 SA
ATOM     10  O   UNL d   1      44.035 -13.724  44.711  0.00  0.00    -0.265 OA
ATOM     11  N   UNL d   1      42.733 -14.904  44.955  0.00  0.00    -0.141 N 
ENDROOT
BRANCH   6  12
ATOM     12  C   UNL d   1      45.656 -13.576  44.462  0.00  0.00     0.086 A 
ATOM     13  C   UNL d   1      45.346 -13.040  43.920  0.00  0.00     0.019 A 
ATOM     14  C   UNL d   1      45.685 -12.294  43.840  0.00  0.00     0.002 A 
ATOM     15  C   UNL d   1      46.335 -12.084  44.303  0.00  0.00     0.000 A 
ATOM     16  C   UNL d   1      46.645 -12.624  44.848  0.00  0.00     0.002 A 
ATOM     17  C   UNL d   1      46.305 -13.369  44.927  0.00  0.00     0.019 A 
ENDBRANCH   6  12
BRANCH   3  18
ATOM     18  C   UNL d   1      45.935 -16.417  44.538  0.00  0.00     0.320 C 
ATOM     19  O   UNL d   1      46.645 -16.447  44.953  0.00  0.00    -0.257 OA
BRANCH  18  20
ATOM     20  O   UNL d   1      45.696 -17.060  44.077  0.00  0.00    -0.270 OA
BRANCH  20  21
ATOM     21  C   UNL d   1      46.121 -17.764  44.100  0.00  0.00     0.126 C 
ATOM     22  C   UNL d   1      46.584 -17.987  43.457  0.00  0.00     0.029 C 
ENDBRANCH  20  21
ENDBRANCH  18  20
ENDBRANCH   3  18
TORSDOF 4
ENDMDL
