MODEL 1
REMARK VINA RESULT:      25.8      0.000      0.000
REMARK  1 active torsions:
REMARK  status: ('A' for Active; 'I' for Inactive)
REMARK    1  A    between atoms: C_7  and  C_1 
ROOT
ATOM      1  C   UNL d   1      58.163  49.646  50.604  0.00  0.00     0.062 A 
ATOM      2  C   UNL d   1      58.895  49.626  50.250  0.00  0.00     0.199 A 
ATOM      3  C   UNL d   1      58.083  49.683  51.421  0.00  0.00     0.103 A 
ATOM      4  C   UNL d   1      59.594  49.644  50.720  0.00  0.00     0.062 A 
ATOM      5  C   UNL d   1      59.539  49.680  51.528  0.00  0.00     0.106 A 
ATOM      6  O   UNL d   1      58.781  49.700  51.890  0.00  0.00    -0.307 OA
ATOM      7  C   UNL d   1      60.224  49.697  51.988  0.00  0.00     0.067 A 
ATOM      8  C   UNL d   1      60.342  49.622  50.336  0.00  0.00     0.009 A 
ATOM      9  O   UNL d   1      58.936  49.588  49.392  0.00  0.00    -0.286 OA
ATOM     10  C   UNL d   1      60.953  49.677  51.632  0.00  0.00     0.198 A 
ATOM     11  C   UNL d   1      61.040  49.640  50.805  0.00  0.00     0.042 A 
ATOM     12  C   UNL d   1      57.324  49.703  51.787  0.00  0.00     0.027 C 
ATOM     13  O   UNL d   1      61.647  49.694  52.099  0.00  0.00    -0.286 OA
ENDROOT
BRANCH   1  14
ATOM     14  C   UNL d   1      57.496  49.629  50.132  0.00  0.00     0.005 A 
ATOM     15  C   UNL d   1      56.745  49.538  50.463  0.00  0.00     0.000 A 
ATOM     16  C   UNL d   1      56.660  49.463  51.295  0.00  0.00     0.000 C 
ATOM     17  C   UNL d   1      56.074  49.521  49.983  0.00  0.00     0.000 A 
ATOM     18  C   UNL d   1      56.163  49.594  49.183  0.00  0.00     0.000 A 
ATOM     19  C   UNL d   1      56.885  49.684  48.830  0.00  0.00     0.000 A 
ATOM     20  C   UNL d   1      57.567  49.701  49.313  0.00  0.00     0.000 A 
ENDBRANCH   1  14
TORSDOF 1
ENDMDL
