MODEL 1
REMARK VINA RESULT:      11.0      0.000      0.000
REMARK  2 active torsions:
REMARK  status: ('A' for Active; 'I' for Inactive)
REMARK    1  A    between atoms: N_9  and  C_2 
REMARK    2  A    between atoms: C_11  and  N_9 
ROOT
ATOM      1  C   UNL d   1      44.812 -12.902  43.694  0.00  0.00     0.154 A 
ATOM      2  C   UNL d   1      45.202 -13.257  44.323  0.00  0.00     0.185 A 
ATOM      3  C   UNL d   1      45.199 -12.341  43.229  0.00  0.00     0.186 A 
ATOM      4  N   UNL d   1      44.046 -12.993  43.401  0.00  0.00    -0.218 NA
ATOM      5  N   UNL d   1      44.673 -12.087  42.650  0.00  0.00    -0.203 NA
ATOM      6  N   UNL d   1      45.984 -13.053  44.490  0.00  0.00    -0.203 NA
ATOM      7  N   UNL d   1      45.977 -12.136  43.393  0.00  0.00    -0.203 NA
ATOM      8  C   UNL d   1      43.967 -12.484  42.753  0.00  0.00     0.201 A 
ATOM      9  C   UNL d   1      46.372 -12.492  44.025  0.00  0.00     0.202 A 
ENDROOT
BRANCH   2  10
ATOM     10  N   UNL d   1      44.815 -13.818  44.788  0.00  0.00    -0.225 NA
BRANCH  10  11
ATOM     11  C   UNL d   1      45.098 -14.587  44.829  0.00  0.00     0.083 A 
ATOM     12  C   UNL d   1      45.911 -14.730  44.826  0.00  0.00     0.021 A 
ATOM     13  C   UNL d   1      46.195 -15.496  44.867  0.00  0.00     0.031 A 
ATOM     14  C   UNL d   1      45.664 -16.136  44.913  0.00  0.00     0.140 A 
ATOM     15  C   UNL d   1      44.851 -15.993  44.916  0.00  0.00     0.031 A 
ATOM     16  F   UNL d   1      45.945 -16.915  44.955  0.00  0.00    -0.204 F 
ATOM     17  C   UNL d   1      44.568 -15.218  44.874  0.00  0.00     0.021 A 
ENDBRANCH  10  11
ENDBRANCH   2  10
TORSDOF 2
ENDMDL
MODEL 2
REMARK VINA RESULT:      13.9      3.391      5.032
REMARK  2 active torsions:
REMARK  status: ('A' for Active; 'I' for Inactive)
REMARK    1  A    between atoms: N_9  and  C_2 
REMARK    2  A    between atoms: C_11  and  N_9 
ROOT
ATOM      1  C   UNL d   1      46.406 -18.712  44.263  0.00  0.00     0.154 A 
ATOM      2  C   UNL d   1      46.270 -17.907  44.170  0.00  0.00     0.185 A 
ATOM      3  C   UNL d   1      46.457 -19.202  43.601  0.00  0.00     0.186 A 
ATOM      4  N   UNL d   1      46.513 -19.178  44.935  0.00  0.00    -0.218 NA
ATOM      5  N   UNL d   1      46.595 -19.969  43.866  0.00  0.00    -0.203 NA
ATOM      6  N   UNL d   1      46.184 -17.589  43.414  0.00  0.00    -0.203 NA
ATOM      7  N   UNL d   1      46.371 -18.888  42.847  0.00  0.00    -0.203 NA
ATOM      8  C   UNL d   1      46.629 -19.956  44.682  0.00  0.00     0.201 A 
ATOM      9  C   UNL d   1      46.235 -18.079  42.752  0.00  0.00     0.202 A 
ENDROOT
BRANCH   2  10
ATOM     10  N   UNL d   1      46.220 -17.417  44.832  0.00  0.00    -0.225 NA
BRANCH  10  11
ATOM     11  C   UNL d   1      45.891 -16.667  44.767  0.00  0.00     0.083 A 
ATOM     12  C   UNL d   1      45.098 -16.544  44.955  0.00  0.00     0.021 A 
ATOM     13  C   UNL d   1      44.770 -15.798  44.890  0.00  0.00     0.031 A 
ATOM     14  C   UNL d   1      45.236 -15.158  44.633  0.00  0.00     0.140 A 
ATOM     15  C   UNL d   1      46.030 -15.281  44.444  0.00  0.00     0.031 A 
ATOM     16  F   UNL d   1      44.910 -14.398  44.565  0.00  0.00    -0.204 F 
ATOM     17  C   UNL d   1      46.358 -16.036  44.511  0.00  0.00     0.021 A 
ENDBRANCH  10  11
ENDBRANCH   2  10
TORSDOF 2
ENDMDL
