MODEL 1
REMARK VINA RESULT:      -7.8      0.000      0.000
REMARK  3 active torsions:
REMARK  status: ('A' for Active; 'I' for Inactive)
REMARK    1  A    between atoms: N_2  and  C_1 
REMARK    2  A    between atoms: C_4  and  C_8 
REMARK    3  A    between atoms: N_14  and  C_5 
ROOT
ATOM      1  C   UNL d   1     -49.170  14.261  22.679  0.00  0.00     0.143 A 
ATOM      2  C   UNL d   1     -49.716  13.750  22.338  0.00  0.00     0.086 A 
ATOM      3  C   UNL d   1     -48.388  14.013  22.805  0.00  0.00     0.027 A 
ATOM      4  C   UNL d   1     -48.158  13.244  22.584  0.00  0.00     0.021 A 
ATOM      5  C   UNL d   1     -49.488  12.989  22.119  0.00  0.00     0.019 A 
ATOM      6  C   UNL d   1     -48.712  12.731  22.240  0.00  0.00     0.003 A 
ENDROOT
BRANCH   4   7
ATOM      7  C   UNL d   1     -47.384  12.994  22.706  0.00  0.00     0.103 A 
ATOM      8  N   UNL d   1     -46.767  13.330  22.272  0.00  0.00    -0.145 NA
ATOM      9  N   UNL d   1     -45.994  13.081  22.395  0.00  0.00    -0.106 NA
ATOM     10  C   UNL d   1     -45.833  12.494  22.951  0.00  0.00     0.297 A 
ATOM     11  C   UNL d   1     -46.450  12.158  23.386  0.00  0.00     0.066 A 
ATOM     12  O   UNL d   1     -45.059  12.245  23.074  0.00  0.00    -0.264 OA
ATOM     13  C   UNL d   1     -47.231  12.407  23.265  0.00  0.00     0.024 A 
ATOM     14  C   UNL d   1     -47.843  12.071  23.698  0.00  0.00     0.002 C 
ENDBRANCH   4   7
BRANCH   1  15
ATOM     15  N   UNL d   1     -49.391  15.028  22.901  0.00  0.00    -0.112 N 
ATOM     16  O   UNL d   1     -49.570  15.183  23.696  0.00  0.00    -0.532 OA
ATOM     17  O   UNL d   1     -49.434  15.630  22.343  0.00  0.00    -0.532 OA
ENDBRANCH   1  15
BRANCH   2  18
ATOM     18  N   UNL d   1     -50.489  14.000  22.215  0.00  0.00    -0.300 N 
ATOM     19  C   UNL d   1     -50.692  14.374  21.511  0.00  0.00     0.100 C 
ATOM     20  C   UNL d   1     -51.060  13.877  22.797  0.00  0.00     0.100 C 
ENDBRANCH   2  18
TORSDOF 3
ENDMDL
MODEL 2
REMARK VINA RESULT:      -6.6      0.997      3.809
REMARK  3 active torsions:
REMARK  status: ('A' for Active; 'I' for Inactive)
REMARK    1  A    between atoms: N_2  and  C_1 
REMARK    2  A    between atoms: C_4  and  C_8 
REMARK    3  A    between atoms: N_14  and  C_5 
ROOT
ATOM      1  C   UNL d   1     -47.247  13.089  22.864  0.00  0.00     0.143 A 
ATOM      2  C   UNL d   1     -47.428  12.348  23.172  0.00  0.00     0.086 A 
ATOM      3  C   UNL d   1     -47.845  13.654  22.757  0.00  0.00     0.027 A 
ATOM      4  C   UNL d   1     -48.631  13.468  22.962  0.00  0.00     0.021 A 
ATOM      5  C   UNL d   1     -48.205  12.164  23.375  0.00  0.00     0.019 A 
ATOM      6  C   UNL d   1     -48.810  12.720  23.273  0.00  0.00     0.003 A 
ENDROOT
BRANCH   4   7
ATOM      7  C   UNL d   1     -49.227  14.025  22.858  0.00  0.00     0.103 A 
ATOM      8  N   UNL d   1     -49.307  14.650  23.392  0.00  0.00    -0.145 NA
ATOM      9  N   UNL d   1     -49.902  15.207  23.287  0.00  0.00    -0.106 NA
ATOM     10  C   UNL d   1     -50.420  15.142  22.649  0.00  0.00     0.297 A 
ATOM     11  C   UNL d   1     -50.340  14.517  22.115  0.00  0.00     0.066 A 
ATOM     12  O   UNL d   1     -51.016  15.700  22.545  0.00  0.00    -0.264 OA
ATOM     13  C   UNL d   1     -49.741  13.954  22.217  0.00  0.00     0.024 A 
ATOM     14  C   UNL d   1     -49.663  13.333  21.685  0.00  0.00     0.002 C 
ENDBRANCH   4   7
BRANCH   1  15
ATOM     15  N   UNL d   1     -46.468  13.281  22.657  0.00  0.00    -0.112 N 
ATOM     16  O   UNL d   1     -45.984  13.663  23.212  0.00  0.00    -0.532 OA
ATOM     17  O   UNL d   1     -46.176  13.096  21.910  0.00  0.00    -0.532 OA
ENDBRANCH   1  15
BRANCH   2  18
ATOM     18  N   UNL d   1     -46.833  11.792  23.276  0.00  0.00    -0.300 N 
ATOM     19  C   UNL d   1     -46.155  11.991  23.698  0.00  0.00     0.100 C 
ATOM     20  C   UNL d   1     -46.913  11.035  22.959  0.00  0.00     0.100 C 
ENDBRANCH   2  18
TORSDOF 3
ENDMDL
MODEL 3
REMARK VINA RESULT:      -6.0      8.909      9.775
REMARK  3 active torsions:
REMARK  status: ('A' for Active; 'I' for Inactive)
REMARK    1  A    between atoms: N_2  and  C_1 
REMARK    2  A    between atoms: C_4  and  C_8 
REMARK    3  A    between atoms: N_14  and  C_5 
ROOT
ATOM      1  C   UNL d   1     -39.882  14.539  18.503  0.00  0.00     0.143 A 
ATOM      2  C   UNL d   1     -39.751  15.222  18.063  0.00  0.00     0.086 A 
ATOM      3  C   UNL d   1     -39.754  14.540  19.323  0.00  0.00     0.027 A 
ATOM      4  C   UNL d   1     -39.492  15.235  19.700  0.00  0.00     0.021 A 
ATOM      5  C   UNL d   1     -39.491  15.910  18.436  0.00  0.00     0.019 A 
ATOM      6  C   UNL d   1     -39.361  15.922  19.253  0.00  0.00     0.003 A 
ENDROOT
BRANCH   4   7
ATOM      7  C   UNL d   1     -39.364  15.240  20.512  0.00  0.00     0.103 A 
ATOM      8  N   UNL d   1     -38.678  14.902  20.825  0.00  0.00    -0.145 NA
ATOM      9  N   UNL d   1     -38.551  14.907  21.637  0.00  0.00    -0.106 NA
ATOM     10  C   UNL d   1     -39.106  15.249  22.140  0.00  0.00     0.297 A 
ATOM     11  C   UNL d   1     -39.792  15.587  21.827  0.00  0.00     0.066 A 
ATOM     12  O   UNL d   1     -38.978  15.254  22.952  0.00  0.00    -0.264 OA
ATOM     13  C   UNL d   1     -39.924  15.584  21.008  0.00  0.00     0.024 A 
ATOM     14  C   UNL d   1     -40.607  15.922  20.700  0.00  0.00     0.002 C 
ENDBRANCH   4   7
BRANCH   1  15
ATOM     15  N   UNL d   1     -40.142  13.844  18.135  0.00  0.00    -0.112 N 
ATOM     16  O   UNL d   1     -40.956  13.699  18.074  0.00  0.00    -0.532 OA
ATOM     17  O   UNL d   1     -39.602  13.303  17.833  0.00  0.00    -0.532 OA
ENDBRANCH   1  15
BRANCH   2  18
ATOM     18  N   UNL d   1     -39.878  15.217  17.252  0.00  0.00    -0.300 N 
ATOM     19  C   UNL d   1     -39.262  15.028  16.741  0.00  0.00     0.100 C 
ATOM     20  C   UNL d   1     -40.623  15.400  16.950  0.00  0.00     0.100 C 
ENDBRANCH   2  18
TORSDOF 3
ENDMDL
MODEL 4
REMARK VINA RESULT:      -5.9      8.944      9.928
REMARK  3 active torsions:
REMARK  status: ('A' for Active; 'I' for Inactive)
REMARK    1  A    between atoms: N_2  and  C_1 
REMARK    2  A    between atoms: C_4  and  C_8 
REMARK    3  A    between atoms: N_14  and  C_5 
ROOT
ATOM      1  C   UNL d   1     -39.506  14.347  20.724  0.00  0.00     0.143 A 
ATOM      2  C   UNL d   1     -38.720  14.112  20.660  0.00  0.00     0.086 A 
ATOM      3  C   UNL d   1     -39.946  14.522  20.043  0.00  0.00     0.027 A 
ATOM      4  C   UNL d   1     -39.589  14.458  19.293  0.00  0.00     0.021 A 
ATOM      5  C   UNL d   1     -38.368  14.049  19.918  0.00  0.00     0.019 A 
ATOM      6  C   UNL d   1     -38.797  14.220  19.232  0.00  0.00     0.003 A 
ENDROOT
BRANCH   4   7
ATOM      7  C   UNL d   1     -40.022  14.630  18.615  0.00  0.00     0.103 A 
ATOM      8  N   UNL d   1     -40.551  14.073  18.309  0.00  0.00    -0.145 NA
ATOM      9  N   UNL d   1     -40.983  14.246  17.632  0.00  0.00    -0.106 NA
ATOM     10  C   UNL d   1     -40.891  14.973  17.257  0.00  0.00     0.297 A 
ATOM     11  C   UNL d   1     -40.362  15.530  17.562  0.00  0.00     0.066 A 
ATOM     12  O   UNL d   1     -41.324  15.145  16.579  0.00  0.00    -0.264 OA
ATOM     13  C   UNL d   1     -39.923  15.360  18.245  0.00  0.00     0.024 A 
ATOM     14  C   UNL d   1     -39.398  15.915  18.547  0.00  0.00     0.002 C 
ENDBRANCH   4   7
BRANCH   1  15
ATOM     15  N   UNL d   1     -39.867  14.413  21.466  0.00  0.00    -0.112 N 
ATOM     16  O   UNL d   1     -40.241  13.750  21.795  0.00  0.00    -0.532 OA
ATOM     17  O   UNL d   1     -39.857  15.127  21.875  0.00  0.00    -0.532 OA
ENDBRANCH   1  15
BRANCH   2  18
ATOM     18  N   UNL d   1     -38.288  13.940  21.337  0.00  0.00    -0.300 N 
ATOM     19  C   UNL d   1     -38.204  13.159  21.582  0.00  0.00     0.100 C 
ATOM     20  C   UNL d   1     -37.940  14.548  21.770  0.00  0.00     0.100 C 
ENDBRANCH   2  18
TORSDOF 3
ENDMDL
MODEL 5
REMARK VINA RESULT:      -5.5      8.206      9.996
REMARK  3 active torsions:
REMARK  status: ('A' for Active; 'I' for Inactive)
REMARK    1  A    between atoms: N_2  and  C_1 
REMARK    2  A    between atoms: C_4  and  C_8 
REMARK    3  A    between atoms: N_14  and  C_5 
ROOT
ATOM      1  C   UNL d   1     -39.656  14.850  19.734  0.00  0.00     0.143 A 
ATOM      2  C   UNL d   1     -40.475  14.784  19.771  0.00  0.00     0.086 A 
ATOM      3  C   UNL d   1     -39.252  14.646  19.039  0.00  0.00     0.027 A 
ATOM      4  C   UNL d   1     -39.679  14.375  18.377  0.00  0.00     0.021 A 
ATOM      5  C   UNL d   1     -40.897  14.516  19.116  0.00  0.00     0.019 A 
ATOM      6  C   UNL d   1     -40.505  14.311  18.418  0.00  0.00     0.003 A 
ENDROOT
BRANCH   4   7
ATOM      7  C   UNL d   1     -39.282  14.173  17.686  0.00  0.00     0.103 A 
ATOM      8  N   UNL d   1     -38.886  13.450  17.633  0.00  0.00    -0.145 NA
ATOM      9  N   UNL d   1     -38.489  13.248  16.942  0.00  0.00    -0.106 NA
ATOM     10  C   UNL d   1     -38.487  13.765  16.301  0.00  0.00     0.297 A 
ATOM     11  C   UNL d   1     -38.883  14.488  16.354  0.00  0.00     0.066 A 
ATOM     12  O   UNL d   1     -38.090  13.563  15.610  0.00  0.00    -0.264 OA
ATOM     13  C   UNL d   1     -39.284  14.696  17.049  0.00  0.00     0.024 A 
ATOM     14  C   UNL d   1     -39.678  15.416  17.099  0.00  0.00     0.002 C 
ENDBRANCH   4   7
BRANCH   1  15
ATOM     15  N   UNL d   1     -39.225  15.119  20.388  0.00  0.00    -0.112 N 
ATOM     16  O   UNL d   1     -38.937  14.568  20.938  0.00  0.00    -0.532 OA
ATOM     17  O   UNL d   1     -39.082  15.922  20.494  0.00  0.00    -0.532 OA
ENDBRANCH   1  15
BRANCH   2  18
ATOM     18  N   UNL d   1     -40.871  14.987  20.462  0.00  0.00    -0.300 N 
ATOM     19  C   UNL d   1     -41.020  14.413  21.032  0.00  0.00     0.100 C 
ATOM     20  C   UNL d   1     -41.118  15.764  20.584  0.00  0.00     0.100 C 
ENDBRANCH   2  18
TORSDOF 3
ENDMDL
