MODEL 1
REMARK VINA RESULT:      -1.4      0.000      0.000
REMARK  6 active torsions:
REMARK  status: ('A' for Active; 'I' for Inactive)
REMARK    1  A    between atoms: C_6  and  N_1 
REMARK    2  A    between atoms: C_5  and  C_3 
REMARK    3  A    between atoms: C_9  and  C_4 
REMARK    4  A    between atoms: N_12  and  C_6 
REMARK    5  A    between atoms: O_21  and  C_8 
REMARK    6  A    between atoms: O_22  and  C_16 
ROOT
ATOM      1  N   UNL d   1      57.935  -1.412  30.341  0.00  0.00    -0.203 N 
ATOM      2  N   UNL d   1      57.388  -1.505  30.936  0.00  0.00    -0.163 NA
ATOM      3  C   UNL d   1      58.142  -0.605  30.296  0.00  0.00     0.089 A 
ATOM      4  C   UNL d   1      57.235  -0.794  31.274  0.00  0.00     0.103 A 
ATOM      5  C   UNL d   1      57.698  -0.219  30.886  0.00  0.00     0.040 A 
ENDROOT
BRANCH   3   6
ATOM      6  C   UNL d   1      58.673  -0.237  29.783  0.00  0.00     0.042 A 
ATOM      7  C   UNL d   1      58.389   0.304  29.230  0.00  0.00     0.096 A 
ATOM      8  C   UNL d   1      58.910   0.681  28.708  0.00  0.00     0.026 A 
ATOM      9  C   UNL d   1      59.706   0.506  28.753  0.00  0.00     0.026 A 
ATOM     10  C   UNL d   1      59.991  -0.036  29.306  0.00  0.00     0.094 A 
ATOM     11  C   UNL d   1      59.455  -0.404  29.821  0.00  0.00     0.028 A 
BRANCH   7  12
ATOM     12  O   UNL d   1      57.565   0.489  29.180  0.00  0.00    -0.328 OA
ATOM     13  C   UNL d   1      57.232   0.681  28.455  0.00  0.00     0.181 C 
ENDBRANCH   7  12
BRANCH  10  14
ATOM     14  O   UNL d   1      60.831  -0.219  29.351  0.00  0.00    -0.328 OA
ATOM     15  C   UNL d   1      61.132  -0.874  28.967  0.00  0.00     0.181 C 
ENDBRANCH  10  14
ENDBRANCH   3   6
BRANCH   1  16
ATOM     16  C   UNL d   1      58.239  -2.024  29.857  0.00  0.00     0.222 C 
ATOM     17  S   UNL d   1      58.913  -2.447  30.113  0.00  0.00    -0.037 SA
BRANCH  16  18
ATOM     18  N   UNL d   1      57.869  -2.208  29.127  0.00  0.00    -0.214 NA
ATOM     19  C   UNL d   1      57.810  -3.000  28.865  0.00  0.00     0.122 C 
ENDBRANCH  16  18
ENDBRANCH   1  16
BRANCH   4  20
ATOM     20  C   UNL d   1      56.711  -0.683  31.891  0.00  0.00     0.019 A 
ATOM     21  C   UNL d   1      56.348   0.029  31.999  0.00  0.00     0.002 A 
ATOM     22  C   UNL d   1      55.819   0.146  32.619  0.00  0.00     0.000 A 
ATOM     23  C   UNL d   1      55.664  -0.494  33.137  0.00  0.00     0.000 A 
ATOM     24  C   UNL d   1      56.039  -1.221  33.020  0.00  0.00     0.000 A 
ATOM     25  C   UNL d   1      55.137  -0.400  33.764  0.00  0.00     0.000 C 
ATOM     26  C   UNL d   1      56.558  -1.316  32.402  0.00  0.00     0.002 A 
ENDBRANCH   4  20
TORSDOF 6
ENDMDL
MODEL 2
REMARK VINA RESULT:       1.1      2.233      5.090
REMARK  6 active torsions:
REMARK  status: ('A' for Active; 'I' for Inactive)
REMARK    1  A    between atoms: C_6  and  N_1 
REMARK    2  A    between atoms: C_5  and  C_3 
REMARK    3  A    between atoms: C_9  and  C_4 
REMARK    4  A    between atoms: N_12  and  C_6 
REMARK    5  A    between atoms: O_21  and  C_8 
REMARK    6  A    between atoms: O_22  and  C_16 
ROOT
ATOM      1  N   UNL d   1      56.445  -0.920  32.520  0.00  0.00    -0.203 N 
ATOM      2  N   UNL d   1      56.905  -0.919  31.849  0.00  0.00    -0.163 NA
ATOM      3  C   UNL d   1      56.434  -0.148  32.834  0.00  0.00     0.089 A 
ATOM      4  C   UNL d   1      57.188  -0.180  31.719  0.00  0.00     0.103 A 
ATOM      5  C   UNL d   1      56.903   0.316  32.326  0.00  0.00     0.040 A 
ENDROOT
BRANCH   3   6
ATOM      6  C   UNL d   1      56.045   0.129  33.508  0.00  0.00     0.042 A 
ATOM      7  C   UNL d   1      56.491   0.399  34.146  0.00  0.00     0.096 A 
ATOM      8  C   UNL d   1      56.115   0.679  34.829  0.00  0.00     0.026 A 
ATOM      9  C   UNL d   1      55.300   0.682  34.856  0.00  0.00     0.026 A 
ATOM     10  C   UNL d   1      54.853   0.412  34.217  0.00  0.00     0.094 A 
ATOM     11  C   UNL d   1      55.246   0.135  33.541  0.00  0.00     0.028 A 
BRANCH   7  12
ATOM     12  O   UNL d   1      57.337   0.397  34.124  0.00  0.00    -0.328 OA
ATOM     13  C   UNL d   1      57.764   0.682  34.763  0.00  0.00     0.181 C 
ENDBRANCH   7  12
BRANCH  10  14
ATOM     14  O   UNL d   1      53.993   0.416  34.248  0.00  0.00    -0.328 OA
ATOM     15  C   UNL d   1      53.605   0.672  34.920  0.00  0.00     0.181 C 
ENDBRANCH  10  14
ENDBRANCH   3   6
BRANCH   1  16
ATOM     16  C   UNL d   1      56.051  -1.586  32.840  0.00  0.00     0.222 C 
ATOM     17  S   UNL d   1      55.284  -1.774  32.566  0.00  0.00    -0.037 SA
BRANCH  16  18
ATOM     18  N   UNL d   1      56.423  -2.056  33.427  0.00  0.00    -0.214 NA
ATOM     19  C   UNL d   1      55.969  -2.498  33.973  0.00  0.00     0.122 C 
ENDBRANCH  16  18
ENDBRANCH   1  16
BRANCH   4  20
ATOM     20  C   UNL d   1      57.671   0.022  31.091  0.00  0.00     0.019 A 
ATOM     21  C   UNL d   1      58.447  -0.199  31.082  0.00  0.00     0.002 A 
ATOM     22  C   UNL d   1      58.938   0.002  30.453  0.00  0.00     0.000 A 
ATOM     23  C   UNL d   1      58.612   0.442  29.818  0.00  0.00     0.000 A 
ATOM     24  C   UNL d   1      57.817   0.665  29.834  0.00  0.00     0.000 A 
ATOM     25  C   UNL d   1      59.085   0.654  29.176  0.00  0.00     0.000 C 
ATOM     26  C   UNL d   1      57.349   0.457  30.465  0.00  0.00     0.002 A 
ENDBRANCH   4  20
TORSDOF 6
ENDMDL
