MODEL 1
REMARK VINA RESULT:      27.6      0.000      0.000
REMARK  3 active torsions:
REMARK  status: ('A' for Active; 'I' for Inactive)
REMARK    1  A    between atoms: N_2  and  S_1 
REMARK    2  A    between atoms: C_8  and  S_1 
REMARK    3  A    between atoms: C_3  and  N_2 
ROOT
ATOM      1  C   UNL d   1     -57.646 -98.758 -44.462  0.00  0.00     0.094 A 
ATOM      2  C   UNL d   1     -58.376 -98.764 -44.049  0.00  0.00     0.021 A 
ATOM      3  C   UNL d   1     -59.019 -98.766 -44.503  0.00  0.00     0.040 A 
ATOM      4  C   UNL d   1     -59.049 -98.764 -45.309  0.00  0.00     0.196 A 
ATOM      5  C   UNL d   1     -57.607 -98.755 -45.273  0.00  0.00     0.023 A 
ATOM      6  C   UNL d   1     -58.315 -98.758 -45.724  0.00  0.00     0.044 A 
ATOM      7  O   UNL d   1     -59.794 -98.767 -45.766  0.00  0.00    -0.287 OA
ATOM      8  C   UNL d   1     -58.384 -98.767 -43.272  0.00  0.00     0.002 A 
ATOM      9  C   UNL d   1     -59.780 -98.772 -44.156  0.00  0.00     0.003 A 
ATOM     10  C   UNL d   1     -59.817 -98.776 -43.312  0.00  0.00     0.000 A 
ATOM     11  C   UNL d   1     -59.101 -98.773 -42.866  0.00  0.00     0.000 A 
ENDROOT
BRANCH   1  12
ATOM     12  N   UNL d   1     -56.986 -98.755 -44.057  0.00  0.00    -0.158 NA
BRANCH  12  13
ATOM     13  S   UNL d   1     -56.420 -99.360 -44.180  0.00  0.00     0.285 S 
ATOM     14  O   UNL d   1     -55.864 -98.766 -44.455  0.00  0.00    -0.198 OA
ATOM     15  O   UNL d   1     -56.953 -99.880 -43.923  0.00  0.00    -0.198 OA
BRANCH  13  16
ATOM     16  C   UNL d   1     -55.844 -99.963 -44.307  0.00  0.00     0.105 A 
ATOM     17  C   UNL d   1     -55.351 -99.908 -44.980  0.00  0.00     0.013 A 
ATOM     18  C   UNL d   1     -54.797-100.467 -45.121  0.00  0.00     0.001 A 
ATOM     19  C   UNL d   1     -54.712-101.076 -44.626  0.00  0.00     0.000 A 
ATOM     20  C   UNL d   1     -55.207-101.137 -43.945  0.00  0.00     0.001 A 
ATOM     21  C   UNL d   1     -55.775-100.552 -43.811  0.00  0.00     0.013 A 
ENDBRANCH  13  16
ENDBRANCH  12  13
ENDBRANCH   1  12
TORSDOF 3
ENDMDL
