MODEL 1
REMARK VINA RESULT:      88.0      0.000      0.000
REMARK  5 active torsions:
REMARK  status: ('A' for Active; 'I' for Inactive)
REMARK       I    between atoms: C_2  and  N_1 
REMARK    1  A    between atoms: C_5  and  N_1 
REMARK    2  A    between atoms: C_6  and  N_1 
REMARK    3  A    between atoms: C_4  and  C_2 
REMARK    4  A    between atoms: N_3  and  C_5 
REMARK    5  A    between atoms: O_16  and  C_11 
ROOT
ATOM      1  N   UNL d   1     -51.654  25.600  34.406  0.00  0.00    -0.256 N 
ATOM      2  C   UNL d   1     -51.736  24.931  33.925  0.00  0.00     0.270 C 
ATOM      3  O   UNL d   1     -51.280  24.809  33.313  0.00  0.00    -0.266 OA
ENDROOT
BRANCH   1   4
ATOM      4  C   UNL d   1     -52.150  25.715  35.056  0.00  0.00     0.172 C 
BRANCH   4   5
ATOM      5  N   UNL d   1     -51.986  26.010  35.808  0.00  0.00    -0.257 N 
ATOM      6  C   UNL d   1     -52.513  26.102  36.433  0.00  0.00     0.266 A 
ATOM      7  O   UNL d   1     -53.321  25.909  36.417  0.00  0.00    -0.267 OA
ATOM      8  C   UNL d   1     -52.103  26.420  37.083  0.00  0.00     0.063 A 
ATOM      9  C   UNL d   1     -51.316  26.525  36.857  0.00  0.00     0.024 A 
ATOM     10  C   UNL d   1     -51.233  26.276  36.074  0.00  0.00     0.085 A 
ENDBRANCH   4   5
ENDBRANCH   1   4
BRANCH   1  11
ATOM     11  C   UNL d   1     -51.068  26.161  34.236  0.00  0.00     0.090 A 
ATOM     12  C   UNL d   1     -51.276  26.880  33.880  0.00  0.00     0.110 A 
ATOM     13  C   UNL d   1     -50.695  27.429  33.714  0.00  0.00     0.026 A 
ATOM     14  C   UNL d   1     -49.913  27.274  33.897  0.00  0.00     0.002 A 
ATOM     15  C   UNL d   1     -49.710  26.569  34.247  0.00  0.00     0.002 A 
ATOM     16  C   UNL d   1     -50.275  26.004  34.422  0.00  0.00     0.020 A 
BRANCH  12  17
ATOM     17  O   UNL d   1     -52.054  27.034  33.698  0.00  0.00    -0.327 OA
ATOM     18  C   UNL d   1     -52.252  27.736  33.321  0.00  0.00     0.181 C 
ENDBRANCH  12  17
ENDBRANCH   1  11
BRANCH   2  19
ATOM     19  C   UNL d   1     -52.320  24.382  34.104  0.00  0.00     0.111 A 
ATOM     20  C   UNL d   1     -52.139  23.731  34.599  0.00  0.00     0.147 A 
ATOM     21  F   UNL d   1     -51.385  23.642  34.902  0.00  0.00    -0.204 F 
ATOM     22  C   UNL d   1     -52.737  23.191  34.768  0.00  0.00     0.030 A 
ATOM     23  C   UNL d   1     -53.495  23.296  34.454  0.00  0.00     0.005 A 
ATOM     24  C   UNL d   1     -53.662  23.941  33.967  0.00  0.00     0.030 A 
ATOM     25  C   UNL d   1     -53.076  24.479  33.795  0.00  0.00     0.147 A 
ATOM     26  F   UNL d   1     -53.239  25.128  33.309  0.00  0.00    -0.204 F 
ENDBRANCH   2  19
TORSDOF 5
ENDMDL
MODEL 2
REMARK VINA RESULT:      89.8      1.136      3.194
REMARK  5 active torsions:
REMARK  status: ('A' for Active; 'I' for Inactive)
REMARK       I    between atoms: C_2  and  N_1 
REMARK    1  A    between atoms: C_5  and  N_1 
REMARK    2  A    between atoms: C_6  and  N_1 
REMARK    3  A    between atoms: C_4  and  C_2 
REMARK    4  A    between atoms: N_3  and  C_5 
REMARK    5  A    between atoms: O_16  and  C_11 
ROOT
ATOM      1  N   UNL d   1     -51.960  25.296  34.627  0.00  0.00    -0.256 N 
ATOM      2  C   UNL d   1     -51.983  25.597  33.856  0.00  0.00     0.270 C 
ATOM      3  O   UNL d   1     -52.422  25.278  33.306  0.00  0.00    -0.266 OA
ENDROOT
BRANCH   1   4
ATOM      4  C   UNL d   1     -51.486  25.650  35.203  0.00  0.00     0.172 C 
BRANCH   4   5
ATOM      5  N   UNL d   1     -51.672  25.909  35.963  0.00  0.00    -0.257 N 
ATOM      6  C   UNL d   1     -51.198  26.355  36.468  0.00  0.00     0.266 A 
ATOM      7  O   UNL d   1     -50.433  26.628  36.297  0.00  0.00    -0.267 OA
ATOM      8  C   UNL d   1     -51.613  26.486  37.177  0.00  0.00     0.063 A 
ATOM      9  C   UNL d   1     -52.350  26.117  37.109  0.00  0.00     0.024 A 
ATOM     10  C   UNL d   1     -52.396  25.760  36.366  0.00  0.00     0.085 A 
ENDBRANCH   4   5
ENDBRANCH   1   4
BRANCH   1  11
ATOM     11  C   UNL d   1     -52.416  24.633  34.825  0.00  0.00     0.090 A 
ATOM     12  C   UNL d   1     -52.350  23.938  34.378  0.00  0.00     0.110 A 
ATOM     13  C   UNL d   1     -52.802  23.288  34.579  0.00  0.00     0.026 A 
ATOM     14  C   UNL d   1     -53.316  23.319  35.214  0.00  0.00     0.002 A 
ATOM     15  C   UNL d   1     -53.379  24.001  35.652  0.00  0.00     0.002 A 
ATOM     16  C   UNL d   1     -52.937  24.664  35.470  0.00  0.00     0.020 A 
BRANCH  12  17
ATOM     17  O   UNL d   1     -51.839  23.908  33.746  0.00  0.00    -0.327 OA
ATOM     18  C   UNL d   1     -51.697  23.191  33.373  0.00  0.00     0.181 C 
ENDBRANCH  12  17
ENDBRANCH   1  11
BRANCH   2  19
ATOM     19  C   UNL d   1     -51.527  26.255  33.672  0.00  0.00     0.111 A 
ATOM     20  C   UNL d   1     -51.897  26.999  33.565  0.00  0.00     0.147 A 
ATOM     21  F   UNL d   1     -52.707  27.070  33.643  0.00  0.00    -0.204 F 
ATOM     22  C   UNL d   1     -51.423  27.647  33.381  0.00  0.00     0.030 A 
ATOM     23  C   UNL d   1     -50.605  27.558  33.306  0.00  0.00     0.005 A 
ATOM     24  C   UNL d   1     -50.252  26.820  33.414  0.00  0.00     0.030 A 
ATOM     25  C   UNL d   1     -50.712  26.174  33.596  0.00  0.00     0.147 A 
ATOM     26  F   UNL d   1     -50.363  25.433  33.704  0.00  0.00    -0.204 F 
ENDBRANCH   2  19
TORSDOF 5
ENDMDL
MODEL 3
REMARK VINA RESULT:      90.2      5.567      7.611
REMARK  5 active torsions:
REMARK  status: ('A' for Active; 'I' for Inactive)
REMARK       I    between atoms: C_2  and  N_1 
REMARK    1  A    between atoms: C_5  and  N_1 
REMARK    2  A    between atoms: C_6  and  N_1 
REMARK    3  A    between atoms: C_4  and  C_2 
REMARK    4  A    between atoms: N_3  and  C_5 
REMARK    5  A    between atoms: O_16  and  C_11 
ROOT
ATOM      1  N   UNL d   1     -47.729  31.110  34.974  0.00  0.00    -0.256 N 
ATOM      2  C   UNL d   1     -47.462  31.888  35.077  0.00  0.00     0.270 C 
ATOM      3  O   UNL d   1     -47.070  32.105  35.707  0.00  0.00    -0.266 OA
ENDROOT
BRANCH   1   4
ATOM      4  C   UNL d   1     -48.146  30.896  34.295  0.00  0.00     0.172 C 
BRANCH   4   5
ATOM      5  N   UNL d   1     -48.671  30.274  34.165  0.00  0.00    -0.257 N 
ATOM      6  C   UNL d   1     -49.437  30.322  33.866  0.00  0.00     0.266 A 
ATOM      7  O   UNL d   1     -49.823  31.020  33.637  0.00  0.00    -0.267 OA
ATOM      8  C   UNL d   1     -49.758  29.556  33.831  0.00  0.00     0.063 A 
ATOM      9  C   UNL d   1     -49.186  29.030  34.111  0.00  0.00     0.024 A 
ATOM     10  C   UNL d   1     -48.514  29.461  34.319  0.00  0.00     0.085 A 
ENDBRANCH   4   5
ENDBRANCH   1   4
BRANCH   1  11
ATOM     11  C   UNL d   1     -47.577  30.541  35.557  0.00  0.00     0.090 A 
ATOM     12  C   UNL d   1     -46.939  30.020  35.467  0.00  0.00     0.110 A 
ATOM     13  C   UNL d   1     -46.794  29.460  36.046  0.00  0.00     0.026 A 
ATOM     14  C   UNL d   1     -47.272  29.414  36.708  0.00  0.00     0.002 A 
ATOM     15  C   UNL d   1     -47.897  29.926  36.794  0.00  0.00     0.002 A 
ATOM     16  C   UNL d   1     -48.062  30.494  36.229  0.00  0.00     0.020 A 
BRANCH  12  17
ATOM     17  O   UNL d   1     -46.464  30.066  34.809  0.00  0.00    -0.327 OA
ATOM     18  C   UNL d   1     -45.822  29.560  34.735  0.00  0.00     0.181 C 
ENDBRANCH  12  17
ENDBRANCH   1  11
BRANCH   2  19
ATOM     19  C   UNL d   1     -47.619  32.443  34.493  0.00  0.00     0.111 A 
ATOM     20  C   UNL d   1     -47.052  32.584  33.893  0.00  0.00     0.147 A 
ATOM     21  F   UNL d   1     -46.346  32.173  33.889  0.00  0.00    -0.204 F 
ATOM     22  C   UNL d   1     -47.227  33.145  33.315  0.00  0.00     0.030 A 
ATOM     23  C   UNL d   1     -47.946  33.552  33.333  0.00  0.00     0.005 A 
ATOM     24  C   UNL d   1     -48.497  33.404  33.929  0.00  0.00     0.030 A 
ATOM     25  C   UNL d   1     -48.332  32.853  34.504  0.00  0.00     0.147 A 
ATOM     26  F   UNL d   1     -48.881  32.701  35.103  0.00  0.00    -0.204 F 
ENDBRANCH   2  19
TORSDOF 5
ENDMDL
