MODEL 1
REMARK VINA RESULT:      33.8      0.000      0.000
REMARK  5 active torsions:
REMARK  status: ('A' for Active; 'I' for Inactive)
REMARK       I    between atoms: C_3  and  N_1 
REMARK    1  A    between atoms: C_12  and  C_3 
REMARK    2  A    between atoms: C_7  and  O_10 
REMARK    3  A    between atoms: O_10  and  C_21 
REMARK    4  A    between atoms: C_22  and  C_12 
REMARK    5  A    between atoms: C_21  and  C_22 
ROOT
ATOM      1  N   UNL d   1      13.856  12.046  -1.782  0.00  0.00    -0.273 N 
ATOM      2  C   UNL d   1      14.481  12.306  -1.309  0.00  0.00     0.067 A 
ATOM      3  C   UNL d   1      13.937  12.039  -2.603  0.00  0.00     0.265 C 
ATOM      4  C   UNL d   1      14.401  12.313  -0.487  0.00  0.00     0.016 A 
ATOM      5  O   UNL d   1      14.640  12.292  -2.951  0.00  0.00    -0.267 OA
ATOM      6  C   UNL d   1      13.153  11.794  -1.434  0.00  0.00     0.083 A 
ATOM      7  C   UNL d   1      15.184  12.559  -1.657  0.00  0.00     0.018 A 
ATOM      8  C   UNL d   1      13.074  11.801  -0.613  0.00  0.00     0.019 A 
ATOM      9  C   UNL d   1      13.698  12.061  -0.139  0.00  0.00     0.003 A 
ATOM     10  C   UNL d   1      15.026  12.573  -0.015  0.00  0.00     0.001 A 
ATOM     11  C   UNL d   1      15.809  12.819  -1.184  0.00  0.00     0.002 A 
ATOM     12  C   UNL d   1      15.729  12.826  -0.363  0.00  0.00     0.000 A 
ENDROOT
BRANCH   3  13
ATOM     13  C   UNL d   1      13.312  11.779  -3.076  0.00  0.00     0.063 C 
BRANCH  13  14
ATOM     14  C   UNL d   1      13.386  11.787  -3.898  0.00  0.00     0.032 C 
BRANCH  14  15
ATOM     15  C   UNL d   1      12.781  12.100  -4.363  0.00  0.00     0.123 C 
BRANCH  15  16
ATOM     16  O   UNL d   1      12.965  12.566  -5.020  0.00  0.00    -0.305 OA
BRANCH  16  17
ATOM     17  C   UNL d   1      13.164  13.360  -4.919  0.00  0.00     0.100 A 
ATOM     18  C   UNL d   1      13.758  13.698  -5.382  0.00  0.00     0.023 A 
ATOM     19  C   UNL d   1      13.957  14.493  -5.281  0.00  0.00     0.002 A 
ATOM     20  C   UNL d   1      14.152  13.243  -5.944  0.00  0.00     0.002 C 
ATOM     21  C   UNL d   1      14.546  14.824  -5.741  0.00  0.00     0.000 C 
ATOM     22  C   UNL d   1      13.563  14.948  -4.718  0.00  0.00     0.000 A 
ATOM     23  C   UNL d   1      12.970  14.610  -4.256  0.00  0.00     0.002 A 
ATOM     24  C   UNL d   1      12.770  13.816  -4.357  0.00  0.00     0.025 A 
ENDBRANCH  16  17
ENDBRANCH  15  16
ENDBRANCH  14  15
ENDBRANCH  13  14
ENDBRANCH   3  13
TORSDOF 5
ENDMDL
MODEL 2
REMARK VINA RESULT:      36.6      1.025      4.348
REMARK  5 active torsions:
REMARK  status: ('A' for Active; 'I' for Inactive)
REMARK       I    between atoms: C_3  and  N_1 
REMARK    1  A    between atoms: C_12  and  C_3 
REMARK    2  A    between atoms: C_7  and  O_10 
REMARK    3  A    between atoms: O_10  and  C_21 
REMARK    4  A    between atoms: C_22  and  C_12 
REMARK    5  A    between atoms: C_21  and  C_22 
ROOT
ATOM      1  N   UNL d   1      13.237  12.505  -4.107  0.00  0.00    -0.273 N 
ATOM      2  C   UNL d   1      13.343  13.220  -4.505  0.00  0.00     0.067 A 
ATOM      3  C   UNL d   1      13.121  12.503  -3.290  0.00  0.00     0.265 C 
ATOM      4  C   UNL d   1      13.459  13.223  -5.323  0.00  0.00     0.016 A 
ATOM      5  O   UNL d   1      13.111  13.213  -2.872  0.00  0.00    -0.267 OA
ATOM      6  C   UNL d   1      13.246  11.795  -4.524  0.00  0.00     0.083 A 
ATOM      7  C   UNL d   1      13.333  13.931  -4.088  0.00  0.00     0.018 A 
ATOM      8  C   UNL d   1      13.363  11.799  -5.341  0.00  0.00     0.019 A 
ATOM      9  C   UNL d   1      13.469  12.513  -5.740  0.00  0.00     0.003 A 
ATOM     10  C   UNL d   1      13.566  13.938  -5.721  0.00  0.00     0.001 A 
ATOM     11  C   UNL d   1      13.440  14.646  -4.487  0.00  0.00     0.002 A 
ATOM     12  C   UNL d   1      13.556  14.648  -5.304  0.00  0.00     0.000 A 
ENDROOT
BRANCH   3  13
ATOM     13  C   UNL d   1      13.014  11.788  -2.891  0.00  0.00     0.063 C 
BRANCH  13  14
ATOM     14  C   UNL d   1      12.930  11.782  -2.070  0.00  0.00     0.032 C 
BRANCH  14  15
ATOM     15  C   UNL d   1      13.419  12.255  -1.603  0.00  0.00     0.123 C 
BRANCH  15  16
ATOM     16  O   UNL d   1      13.927  11.906  -1.054  0.00  0.00    -0.305 OA
BRANCH  16  17
ATOM     17  C   UNL d   1      14.680  12.221  -0.933  0.00  0.00     0.100 A 
ATOM     18  C   UNL d   1      14.769  12.937  -0.533  0.00  0.00     0.023 A 
ATOM     19  C   UNL d   1      15.522  13.251  -0.412  0.00  0.00     0.002 A 
ATOM     20  C   UNL d   1      14.105  13.338  -0.254  0.00  0.00     0.002 C 
ATOM     21  C   UNL d   1      15.605  13.962  -0.015  0.00  0.00     0.000 C 
ATOM     22  C   UNL d   1      16.186  12.850  -0.690  0.00  0.00     0.000 A 
ATOM     23  C   UNL d   1      16.097  12.135  -1.090  0.00  0.00     0.002 A 
ATOM     24  C   UNL d   1      15.344  11.819  -1.211  0.00  0.00     0.025 A 
ENDBRANCH  16  17
ENDBRANCH  15  16
ENDBRANCH  14  15
ENDBRANCH  13  14
ENDBRANCH   3  13
TORSDOF 5
ENDMDL
