MODEL 1
REMARK VINA RESULT:      22.7      0.000      0.000
REMARK  1 active torsions:
REMARK  status: ('A' for Active; 'I' for Inactive)
REMARK    1  A    between atoms: C_7  and  N_1 
ROOT
ATOM      1  N   UNL d   1      58.879  49.688  50.517  0.00  0.00    -0.259 N 
ATOM      2  C   UNL d   1      58.117  49.694  50.866  0.00  0.00     0.267 A 
ATOM      3  C   UNL d   1      58.967  49.679  49.695  0.00  0.00     0.150 A 
ATOM      4  N   UNL d   1      58.291  49.675  49.207  0.00  0.00    -0.228 NA
ATOM      5  C   UNL d   1      57.451  49.690  50.374  0.00  0.00     0.074 A 
ATOM      6  C   UNL d   1      57.540  49.681  49.543  0.00  0.00     0.088 A 
ATOM      7  O   UNL d   1      58.037  49.703  51.685  0.00  0.00    -0.267 OA
ATOM      8  C   UNL d   1      59.719  49.673  49.355  0.00  0.00     0.041 C 
ATOM      9  C   UNL d   1      56.702  49.696  50.715  0.00  0.00     0.006 A 
ATOM     10  C   UNL d   1      56.863  49.677  49.068  0.00  0.00     0.019 A 
ATOM     11  C   UNL d   1      56.036  49.692  50.228  0.00  0.00     0.000 A 
ATOM     12  C   UNL d   1      56.116  49.683  49.408  0.00  0.00     0.002 A 
ENDROOT
BRANCH   1  13
ATOM     13  C   UNL d   1      59.546  49.692  50.997  0.00  0.00     0.068 A 
ATOM     14  C   UNL d   1      59.466  49.701  51.822  0.00  0.00     0.020 A 
ATOM     15  C   UNL d   1      60.142  49.705  52.298  0.00  0.00     0.031 A 
ATOM     16  C   UNL d   1      60.893  49.699  51.960  0.00  0.00     0.140 A 
ATOM     17  C   UNL d   1      60.965  49.690  51.137  0.00  0.00     0.031 A 
ATOM     18  F   UNL d   1      61.560  49.703  52.439  0.00  0.00    -0.204 F 
ATOM     19  C   UNL d   1      60.294  49.686  50.660  0.00  0.00     0.020 A 
ENDBRANCH   1  13
TORSDOF 1
ENDMDL
