MODEL 1
REMARK VINA RESULT:       1.0      0.000      0.000
REMARK  1 active torsions:
REMARK  status: ('A' for Active; 'I' for Inactive)
REMARK       I    between atoms: N_2  and  C_1 
REMARK    1  A    between atoms: C_5  and  N_2 
ROOT
ATOM      1  C   UNL d   1      24.322  12.255  -2.042  0.00  0.00     0.100 A 
ATOM      2  C   UNL d   1      23.695  13.005  -0.713  0.00  0.00     0.000 A 
ATOM      3  C   UNL d   1      23.608  11.993  -1.717  0.00  0.00     0.020 A 
ATOM      4  C   UNL d   1      24.721  12.892  -1.703  0.00  0.00     0.020 A 
ATOM      5  C   UNL d   1      23.295  12.368  -1.052  0.00  0.00     0.002 A 
ATOM      6  C   UNL d   1      24.408  13.267  -1.039  0.00  0.00     0.002 A 
ATOM      7  C   UNL d   1      23.382  13.383  -0.046  0.00  0.00     0.000 C 
ENDROOT
BRANCH   1   8
ATOM      8  N   UNL d   1      24.638  11.881  -2.708  0.00  0.00    -0.056 NA
ATOM      9  C   UNL d   1      24.453  12.153  -3.461  0.00  0.00     0.787 C 
ATOM     10  N   UNL d   1      24.768  11.781  -4.135  0.00  0.00     0.064 N 
ATOM     11  N   UNL d   1      23.949  12.803  -3.547  0.00  0.00     0.064 N 
ENDBRANCH   1   8
TORSDOF 1
ENDMDL
MODEL 2
REMARK VINA RESULT:       3.8      1.532      2.806
REMARK  1 active torsions:
REMARK  status: ('A' for Active; 'I' for Inactive)
REMARK       I    between atoms: N_2  and  C_1 
REMARK    1  A    between atoms: C_5  and  N_2 
ROOT
ATOM      1  C   UNL d   1      23.762  12.425  -1.918  0.00  0.00     0.100 A 
ATOM      2  C   UNL d   1      24.433  12.095  -3.389  0.00  0.00     0.000 A 
ATOM      3  C   UNL d   1      24.433  11.943  -1.969  0.00  0.00     0.020 A 
ATOM      4  C   UNL d   1      23.427  12.741  -2.602  0.00  0.00     0.020 A 
ATOM      5  C   UNL d   1      24.768  11.779  -2.705  0.00  0.00     0.002 A 
ATOM      6  C   UNL d   1      23.762  12.577  -3.338  0.00  0.00     0.002 A 
ATOM      7  C   UNL d   1      24.768  11.931  -4.129  0.00  0.00     0.000 C 
ENDROOT
BRANCH   1   8
ATOM      8  N   UNL d   1      23.424  12.591  -1.182  0.00  0.00    -0.056 NA
ATOM      9  C   UNL d   1      23.669  13.248  -0.755  0.00  0.00     0.787 C 
ATOM     10  N   UNL d   1      23.333  13.422  -0.014  0.00  0.00     0.064 N 
ATOM     11  N   UNL d   1      24.256  13.741  -1.066  0.00  0.00     0.064 N 
ENDBRANCH   1   8
TORSDOF 1
ENDMDL
