MODEL 1
REMARK VINA RESULT:      81.7      0.000      0.000
REMARK  3 active torsions:
REMARK  status: ('A' for Active; 'I' for Inactive)
REMARK    1  A    between atoms: N_4  and  C_1 
REMARK    2  A    between atoms: C_15  and  C_5 
REMARK    3  A    between atoms: C_9  and  N_8 
ROOT
ATOM      1  C   UNL d   1     -50.263  26.542  34.219  0.00  0.00     0.169 A 
ATOM      2  N   UNL d   1     -50.014  25.766  34.344  0.00  0.00    -0.130 NA
ATOM      3  N   UNL d   1     -50.543  25.149  34.158  0.00  0.00    -0.147 NA
ATOM      4  C   UNL d   1     -51.284  25.306  33.860  0.00  0.00     0.103 A 
ATOM      5  C   UNL d   1     -51.001  26.697  33.923  0.00  0.00     0.038 A 
ATOM      6  C   UNL d   1     -51.517  26.074  33.742  0.00  0.00     0.022 A 
ATOM      7  C   UNL d   1     -51.252  27.495  33.796  0.00  0.00     0.003 A 
ATOM      8  C   UNL d   1     -52.290  26.262  33.431  0.00  0.00     0.002 A 
ATOM      9  C   UNL d   1     -52.024  27.669  33.486  0.00  0.00     0.000 A 
ATOM     10  C   UNL d   1     -52.528  27.035  33.310  0.00  0.00     0.000 A 
ENDROOT
BRANCH   1  11
ATOM     11  N   UNL d   1     -49.757  27.154  34.396  0.00  0.00    -0.285 N 
ATOM     12  C   UNL d   1     -49.370  27.580  33.803  0.00  0.00     0.101 A 
ATOM     13  C   UNL d   1     -48.858  28.200  33.983  0.00  0.00     0.101 A 
ATOM     14  N   UNL d   1     -48.720  28.409  34.760  0.00  0.00    -0.286 N 
ATOM     15  C   UNL d   1     -49.095  27.998  35.354  0.00  0.00     0.101 A 
ATOM     16  C   UNL d   1     -49.623  27.359  35.168  0.00  0.00     0.101 A 
BRANCH  14  17
ATOM     17  C   UNL d   1     -48.212  29.026  34.955  0.00  0.00     0.148 A 
ATOM     18  N   UNL d   1     -47.392  28.920  35.010  0.00  0.00    -0.227 NA
ATOM     19  C   UNL d   1     -46.882  29.538  35.206  0.00  0.00     0.101 A 
ATOM     20  C   UNL d   1     -47.190  30.283  35.351  0.00  0.00     0.021 A 
ATOM     21  C   UNL d   1     -47.996  30.391  35.298  0.00  0.00     0.005 A 
ATOM     22  C   UNL d   1     -48.505  29.772  35.103  0.00  0.00     0.037 A 
ENDBRANCH  14  17
ENDBRANCH   1  11
BRANCH   4  23
ATOM     23  C   UNL d   1     -51.799  24.683  33.680  0.00  0.00     0.019 A 
ATOM     24  C   UNL d   1     -52.610  24.827  33.654  0.00  0.00     0.002 A 
ATOM     25  C   UNL d   1     -53.134  24.203  33.473  0.00  0.00     0.000 A 
ATOM     26  C   UNL d   1     -52.856  23.443  33.318  0.00  0.00     0.000 A 
ATOM     27  C   UNL d   1     -52.040  23.296  33.343  0.00  0.00     0.000 A 
ATOM     28  C   UNL d   1     -51.503  23.921  33.526  0.00  0.00     0.002 A 
ENDBRANCH   4  23
TORSDOF 3
ENDMDL
MODEL 2
REMARK VINA RESULT:      82.4      0.671      1.003
REMARK  3 active torsions:
REMARK  status: ('A' for Active; 'I' for Inactive)
REMARK    1  A    between atoms: N_4  and  C_1 
REMARK    2  A    between atoms: C_15  and  C_5 
REMARK    3  A    between atoms: C_9  and  N_8 
ROOT
ATOM      1  C   UNL d   1     -49.671  26.849  34.284  0.00  0.00     0.169 A 
ATOM      2  N   UNL d   1     -49.322  26.115  34.417  0.00  0.00    -0.130 NA
ATOM      3  N   UNL d   1     -49.755  25.431  34.216  0.00  0.00    -0.147 NA
ATOM      4  C   UNL d   1     -50.501  25.486  33.896  0.00  0.00     0.103 A 
ATOM      5  C   UNL d   1     -50.414  26.903  33.966  0.00  0.00     0.038 A 
ATOM      6  C   UNL d   1     -50.833  26.215  33.770  0.00  0.00     0.022 A 
ATOM      7  C   UNL d   1     -50.768  27.659  33.831  0.00  0.00     0.003 A 
ATOM      8  C   UNL d   1     -51.615  26.295  33.435  0.00  0.00     0.002 A 
ATOM      9  C   UNL d   1     -51.548  27.726  33.497  0.00  0.00     0.000 A 
ATOM     10  C   UNL d   1     -51.954  27.029  33.306  0.00  0.00     0.000 A 
ENDROOT
BRANCH   1  11
ATOM     11  N   UNL d   1     -49.260  27.524  34.476  0.00  0.00    -0.285 N 
ATOM     12  C   UNL d   1     -49.131  27.742  35.263  0.00  0.00     0.101 A 
ATOM     13  C   UNL d   1     -48.715  28.426  35.458  0.00  0.00     0.101 A 
ATOM     14  N   UNL d   1     -48.417  28.909  34.870  0.00  0.00    -0.286 N 
ATOM     15  C   UNL d   1     -48.537  28.707  34.091  0.00  0.00     0.101 A 
ATOM     16  C   UNL d   1     -48.966  28.001  33.891  0.00  0.00     0.101 A 
BRANCH  14  17
ATOM     17  C   UNL d   1     -47.999  29.595  35.049  0.00  0.00     0.148 A 
ATOM     18  N   UNL d   1     -47.896  30.205  34.497  0.00  0.00    -0.227 NA
ATOM     19  C   UNL d   1     -47.478  30.892  34.676  0.00  0.00     0.101 A 
ATOM     20  C   UNL d   1     -47.150  30.982  35.422  0.00  0.00     0.021 A 
ATOM     21  C   UNL d   1     -47.250  30.384  35.967  0.00  0.00     0.005 A 
ATOM     22  C   UNL d   1     -47.668  29.697  35.787  0.00  0.00     0.037 A 
ENDBRANCH  14  17
ENDBRANCH   1  11
BRANCH   4  23
ATOM     23  C   UNL d   1     -50.920  24.798  33.700  0.00  0.00     0.019 A 
ATOM     24  C   UNL d   1     -51.741  24.834  33.631  0.00  0.00     0.002 A 
ATOM     25  C   UNL d   1     -52.167  24.145  33.434  0.00  0.00     0.000 A 
ATOM     26  C   UNL d   1     -51.784  23.426  33.307  0.00  0.00     0.000 A 
ATOM     27  C   UNL d   1     -50.958  23.388  33.377  0.00  0.00     0.000 A 
ATOM     28  C   UNL d   1     -50.519  24.081  33.575  0.00  0.00     0.002 A 
ENDBRANCH   4  23
TORSDOF 3
ENDMDL
