MODEL 1
REMARK VINA RESULT:      -7.3      0.000      0.000
REMARK  4 active torsions:
REMARK  status: ('A' for Active; 'I' for Inactive)
REMARK    1  A    between atoms: N_2  and  C_1 
REMARK       I    between atoms: C_3  and  N_2 
REMARK    2  A    between atoms: C_6  and  C_3 
REMARK    3  A    between atoms: C_14  and  C_7 
REMARK    4  A    between atoms: C_15  and  C_14 
ROOT
ATOM      1  C   UNL d   1     -46.295  12.610  23.428  0.00  0.00     0.197 A 
ATOM      2  N   UNL d   1     -46.022  13.330  23.471  0.00  0.00    -0.219 NA
ATOM      3  S   UNL d   1     -47.080  12.649  23.190  0.00  0.00    -0.047 SA
ATOM      4  C   UNL d   1     -47.275  13.431  23.090  0.00  0.00     0.051 A 
ATOM      5  C   UNL d   1     -46.603  13.865  23.268  0.00  0.00     0.108 A 
ENDROOT
BRANCH   1   6
ATOM      6  N   UNL d   1     -45.809  11.930  23.611  0.00  0.00    -0.182 NA
ATOM      7  C   UNL d   1     -45.201  11.726  23.095  0.00  0.00     0.287 C 
ATOM      8  O   UNL d   1     -45.065  12.174  22.413  0.00  0.00    -0.265 OA
BRANCH   7   9
ATOM      9  C   UNL d   1     -44.745  11.086  23.269  0.00  0.00     0.087 A 
ATOM     10  S   UNL d   1     -44.968  10.383  23.649  0.00  0.00    -0.082 SA
ATOM     11  C   UNL d   1     -44.339   9.917  23.698  0.00  0.00     0.036 A 
ATOM     12  C   UNL d   1     -43.683  10.332  23.335  0.00  0.00     0.008 A 
ATOM     13  C   UNL d   1     -43.981  11.041  23.089  0.00  0.00     0.012 A 
ENDBRANCH   7   9
ENDBRANCH   1   6
BRANCH   4  14
ATOM     14  C   UNL d   1     -47.952  13.812  22.866  0.00  0.00     0.008 C 
BRANCH  14  15
ATOM     15  C   UNL d   1     -48.543  13.404  22.436  0.00  0.00     0.001 A 
ATOM     16  C   UNL d   1     -49.205  13.089  22.835  0.00  0.00     0.002 A 
ATOM     17  C   UNL d   1     -49.798  12.680  22.414  0.00  0.00     0.030 A 
ATOM     18  C   UNL d   1     -49.732  12.588  21.603  0.00  0.00     0.140 A 
ATOM     19  C   UNL d   1     -49.060  12.907  21.184  0.00  0.00     0.030 A 
ATOM     20  F   UNL d   1     -50.228  12.229  21.142  0.00  0.00    -0.204 F 
ATOM     21  C   UNL d   1     -48.477  13.310  21.616  0.00  0.00     0.002 A 
ENDBRANCH  14  15
ENDBRANCH   4  14
TORSDOF 4
ENDMDL
MODEL 2
REMARK VINA RESULT:      -6.1      1.969      2.604
REMARK  4 active torsions:
REMARK  status: ('A' for Active; 'I' for Inactive)
REMARK    1  A    between atoms: N_2  and  C_1 
REMARK       I    between atoms: C_3  and  N_2 
REMARK    2  A    between atoms: C_6  and  C_3 
REMARK    3  A    between atoms: C_14  and  C_7 
REMARK    4  A    between atoms: C_15  and  C_14 
ROOT
ATOM      1  C   UNL d   1     -48.049  12.087  22.855  0.00  0.00     0.197 A 
ATOM      2  N   UNL d   1     -48.272  11.495  23.296  0.00  0.00    -0.219 NA
ATOM      3  S   UNL d   1     -48.706  12.554  22.701  0.00  0.00    -0.047 SA
ATOM      4  C   UNL d   1     -49.346  12.217  23.071  0.00  0.00     0.051 A 
ATOM      5  C   UNL d   1     -49.072  11.545  23.449  0.00  0.00     0.108 A 
ENDROOT
BRANCH   1   6
ATOM      6  N   UNL d   1     -47.235  12.183  22.604  0.00  0.00    -0.182 NA
ATOM      7  C   UNL d   1     -46.828  12.863  22.824  0.00  0.00     0.287 C 
ATOM      8  O   UNL d   1     -47.202  13.443  23.281  0.00  0.00    -0.265 OA
BRANCH   7   9
ATOM      9  C   UNL d   1     -46.065  12.950  22.587  0.00  0.00     0.087 A 
ATOM     10  S   UNL d   1     -45.492  12.361  22.467  0.00  0.00    -0.082 SA
ATOM     11  C   UNL d   1     -44.826  12.706  22.237  0.00  0.00     0.036 A 
ATOM     12  C   UNL d   1     -44.971  13.550  22.205  0.00  0.00     0.008 A 
ATOM     13  C   UNL d   1     -45.741  13.649  22.428  0.00  0.00     0.012 A 
ENDBRANCH   7   9
ENDBRANCH   1   6
BRANCH   4  14
ATOM     14  C   UNL d   1     -50.129  12.417  23.121  0.00  0.00     0.008 C 
BRANCH  14  15
ATOM     15  C   UNL d   1     -50.368  13.213  23.028  0.00  0.00     0.001 A 
ATOM     16  C   UNL d   1     -50.437  13.707  23.698  0.00  0.00     0.002 A 
ATOM     17  C   UNL d   1     -50.674  14.503  23.614  0.00  0.00     0.030 A 
ATOM     18  C   UNL d   1     -50.841  14.802  22.870  0.00  0.00     0.140 A 
ATOM     19  C   UNL d   1     -50.774  14.306  22.179  0.00  0.00     0.030 A 
ATOM     20  F   UNL d   1     -51.064  15.516  22.705  0.00  0.00    -0.204 F 
ATOM     21  C   UNL d   1     -50.537  13.517  22.277  0.00  0.00     0.002 A 
ENDBRANCH  14  15
ENDBRANCH   4  14
TORSDOF 4
ENDMDL
MODEL 3
REMARK VINA RESULT:      -6.1      2.255      4.763
REMARK  4 active torsions:
REMARK  status: ('A' for Active; 'I' for Inactive)
REMARK    1  A    between atoms: N_2  and  C_1 
REMARK       I    between atoms: C_3  and  N_2 
REMARK    2  A    between atoms: C_6  and  C_3 
REMARK    3  A    between atoms: C_14  and  C_7 
REMARK    4  A    between atoms: C_15  and  C_14 
ROOT
ATOM      1  C   UNL d   1     -48.432  12.632  23.155  0.00  0.00     0.197 A 
ATOM      2  N   UNL d   1     -48.371  11.892  23.364  0.00  0.00    -0.219 NA
ATOM      3  S   UNL d   1     -47.694  12.982  23.234  0.00  0.00    -0.047 SA
ATOM      4  C   UNL d   1     -47.175  12.418  23.502  0.00  0.00     0.051 A 
ATOM      5  C   UNL d   1     -47.604  11.725  23.585  0.00  0.00     0.108 A 
ENDROOT
BRANCH   1   6
ATOM      6  N   UNL d   1     -49.175  12.969  22.895  0.00  0.00    -0.182 NA
ATOM      7  C   UNL d   1     -49.291  13.107  22.092  0.00  0.00     0.287 C 
ATOM      8  O   UNL d   1     -48.695  12.922  21.549  0.00  0.00    -0.265 OA
BRANCH   7   9
ATOM      9  C   UNL d   1     -49.989  13.423  21.850  0.00  0.00     0.087 A 
ATOM     10  S   UNL d   1     -50.410  14.057  22.182  0.00  0.00    -0.082 SA
ATOM     11  C   UNL d   1     -51.061  14.171  21.760  0.00  0.00     0.036 A 
ATOM     12  C   UNL d   1     -51.064  13.590  21.131  0.00  0.00     0.008 A 
ATOM     13  C   UNL d   1     -50.389  13.157  21.228  0.00  0.00     0.012 A 
ENDBRANCH   7   9
ENDBRANCH   1   6
BRANCH   4  14
ATOM     14  C   UNL d   1     -46.386  12.427  23.682  0.00  0.00     0.008 C 
BRANCH  14  15
ATOM     15  C   UNL d   1     -45.821  12.602  23.091  0.00  0.00     0.001 A 
ATOM     16  C   UNL d   1     -45.726  13.389  22.827  0.00  0.00     0.002 A 
ATOM     17  C   UNL d   1     -45.165  13.573  22.238  0.00  0.00     0.030 A 
ATOM     18  C   UNL d   1     -44.703  12.979  21.916  0.00  0.00     0.140 A 
ATOM     19  C   UNL d   1     -44.791  12.171  22.177  0.00  0.00     0.030 A 
ATOM     20  F   UNL d   1     -44.167  13.061  21.374  0.00  0.00    -0.204 F 
ATOM     21  C   UNL d   1     -45.353  12.003  22.764  0.00  0.00     0.002 A 
ENDBRANCH  14  15
ENDBRANCH   4  14
TORSDOF 4
ENDMDL
MODEL 4
REMARK VINA RESULT:      -6.0      8.267      9.053
REMARK  4 active torsions:
REMARK  status: ('A' for Active; 'I' for Inactive)
REMARK    1  A    between atoms: N_2  and  C_1 
REMARK       I    between atoms: C_3  and  N_2 
REMARK    2  A    between atoms: C_6  and  C_3 
REMARK    3  A    between atoms: C_14  and  C_7 
REMARK    4  A    between atoms: C_15  and  C_14 
ROOT
ATOM      1  C   UNL d   1     -40.229  15.050  20.102  0.00  0.00     0.197 A 
ATOM      2  N   UNL d   1     -40.498  15.684  19.753  0.00  0.00    -0.219 NA
ATOM      3  S   UNL d   1     -40.191  14.448  19.545  0.00  0.00    -0.047 SA
ATOM      4  C   UNL d   1     -40.450  14.745  18.835  0.00  0.00     0.051 A 
ATOM      5  C   UNL d   1     -40.646  15.530  18.966  0.00  0.00     0.108 A 
ENDROOT
BRANCH   1   6
ATOM      6  N   UNL d   1     -40.023  15.044  20.933  0.00  0.00    -0.182 NA
ATOM      7  C   UNL d   1     -39.268  15.281  21.159  0.00  0.00     0.287 C 
ATOM      8  O   UNL d   1     -38.720  15.521  20.587  0.00  0.00    -0.265 OA
BRANCH   7   9
ATOM      9  C   UNL d   1     -39.078  15.275  21.940  0.00  0.00     0.087 A 
ATOM     10  S   UNL d   1     -38.974  15.922  22.449  0.00  0.00    -0.082 SA
ATOM     11  C   UNL d   1     -38.791  15.650  23.162  0.00  0.00     0.036 A 
ATOM     12  C   UNL d   1     -38.775  14.795  23.114  0.00  0.00     0.008 A 
ATOM     13  C   UNL d   1     -38.957  14.614  22.348  0.00  0.00     0.012 A 
ENDBRANCH   7   9
ENDBRANCH   1   6
BRANCH   4  14
ATOM     14  C   UNL d   1     -40.539  14.426  18.097  0.00  0.00     0.008 C 
BRANCH  14  15
ATOM     15  C   UNL d   1     -39.871  14.300  17.610  0.00  0.00     0.001 A 
ATOM     16  C   UNL d   1     -39.430  13.594  17.683  0.00  0.00     0.002 A 
ATOM     17  C   UNL d   1     -38.762  13.460  17.201  0.00  0.00     0.030 A 
ATOM     18  C   UNL d   1     -38.536  14.025  16.652  0.00  0.00     0.140 A 
ATOM     19  C   UNL d   1     -38.979  14.750  16.568  0.00  0.00     0.030 A 
ATOM     20  F   UNL d   1     -37.940  13.982  16.172  0.00  0.00    -0.204 F 
ATOM     21  C   UNL d   1     -39.641  14.869  17.054  0.00  0.00     0.002 A 
ENDBRANCH  14  15
ENDBRANCH   4  14
TORSDOF 4
ENDMDL
MODEL 5
REMARK VINA RESULT:      -5.9      7.670      9.050
REMARK  4 active torsions:
REMARK  status: ('A' for Active; 'I' for Inactive)
REMARK    1  A    between atoms: N_2  and  C_1 
REMARK       I    between atoms: C_3  and  N_2 
REMARK    2  A    between atoms: C_6  and  C_3 
REMARK    3  A    between atoms: C_14  and  C_7 
REMARK    4  A    between atoms: C_15  and  C_14 
ROOT
ATOM      1  C   UNL d   1     -40.406  15.770  19.922  0.00  0.00     0.197 A 
ATOM      2  N   UNL d   1     -41.053  15.673  20.331  0.00  0.00    -0.219 NA
ATOM      3  S   UNL d   1     -39.768  15.700  20.434  0.00  0.00    -0.047 SA
ATOM      4  C   UNL d   1     -40.057  15.555  21.179  0.00  0.00     0.051 A 
ATOM      5  C   UNL d   1     -40.873  15.538  21.115  0.00  0.00     0.108 A 
ENDROOT
BRANCH   1   6
ATOM      6  N   UNL d   1     -40.421  15.922  19.080  0.00  0.00    -0.182 NA
ATOM      7  C   UNL d   1     -40.479  15.286  18.562  0.00  0.00     0.287 C 
ATOM      8  O   UNL d   1     -40.523  14.513  18.855  0.00  0.00    -0.265 OA
BRANCH   7   9
ATOM      9  C   UNL d   1     -40.493  15.430  17.771  0.00  0.00     0.087 A 
ATOM     10  S   UNL d   1     -39.852  15.552  17.258  0.00  0.00    -0.082 SA
ATOM     11  C   UNL d   1     -40.131  15.672  16.535  0.00  0.00     0.036 A 
ATOM     12  C   UNL d   1     -40.985  15.628  16.579  0.00  0.00     0.008 A 
ATOM     13  C   UNL d   1     -41.158  15.478  17.354  0.00  0.00     0.012 A 
ENDBRANCH   7   9
ENDBRANCH   1   6
BRANCH   4  14
ATOM     14  C   UNL d   1     -39.708  15.437  21.899  0.00  0.00     0.008 C 
BRANCH  14  15
ATOM     15  C   UNL d   1     -39.243  14.755  22.036  0.00  0.00     0.001 A 
ATOM     16  C   UNL d   1     -38.417  14.783  21.914  0.00  0.00     0.002 A 
ATOM     17  C   UNL d   1     -37.946  14.107  22.048  0.00  0.00     0.030 A 
ATOM     18  C   UNL d   1     -38.296  13.411  22.300  0.00  0.00     0.140 A 
ATOM     19  C   UNL d   1     -39.139  13.370  22.427  0.00  0.00     0.030 A 
ATOM     20  F   UNL d   1     -37.940  12.748  22.445  0.00  0.00    -0.204 F 
ATOM     21  C   UNL d   1     -39.594  14.050  22.290  0.00  0.00     0.002 A 
ENDBRANCH  14  15
ENDBRANCH   4  14
TORSDOF 4
ENDMDL
MODEL 6
REMARK VINA RESULT:      -5.4      2.413      4.883
REMARK  4 active torsions:
REMARK  status: ('A' for Active; 'I' for Inactive)
REMARK    1  A    between atoms: N_2  and  C_1 
REMARK       I    between atoms: C_3  and  N_2 
REMARK    2  A    between atoms: C_6  and  C_3 
REMARK    3  A    between atoms: C_14  and  C_7 
REMARK    4  A    between atoms: C_15  and  C_14 
ROOT
ATOM      1  C   UNL d   1     -47.742  14.128  23.047  0.00  0.00     0.197 A 
ATOM      2  N   UNL d   1     -47.138  14.588  23.184  0.00  0.00    -0.219 NA
ATOM      3  S   UNL d   1     -47.473  13.465  22.643  0.00  0.00    -0.047 SA
ATOM      4  C   UNL d   1     -46.671  13.543  22.539  0.00  0.00     0.051 A 
ATOM      5  C   UNL d   1     -46.457  14.255  22.882  0.00  0.00     0.108 A 
ENDROOT
BRANCH   1   6
ATOM      6  N   UNL d   1     -48.534  14.333  23.300  0.00  0.00    -0.182 NA
ATOM      7  C   UNL d   1     -49.024  14.742  22.781  0.00  0.00     0.287 C 
ATOM      8  O   UNL d   1     -48.752  14.948  22.027  0.00  0.00    -0.265 OA
BRANCH   7   9
ATOM      9  C   UNL d   1     -49.767  14.934  23.020  0.00  0.00     0.087 A 
ATOM     10  S   UNL d   1     -50.462  14.483  22.956  0.00  0.00    -0.082 SA
ATOM     11  C   UNL d   1     -51.054  14.895  23.264  0.00  0.00     0.036 A 
ATOM     12  C   UNL d   1     -50.734  15.640  23.540  0.00  0.00     0.008 A 
ATOM     13  C   UNL d   1     -49.945  15.616  23.368  0.00  0.00     0.012 A 
ENDBRANCH   7   9
ENDBRANCH   1   6
BRANCH   4  14
ATOM     14  C   UNL d   1     -46.108  13.079  22.189  0.00  0.00     0.008 C 
BRANCH  14  15
ATOM     15  C   UNL d   1     -45.821  12.397  22.580  0.00  0.00     0.001 A 
ATOM     16  C   UNL d   1     -46.353  11.890  22.977  0.00  0.00     0.002 A 
ATOM     17  C   UNL d   1     -46.075  11.208  23.369  0.00  0.00     0.030 A 
ATOM     18  C   UNL d   1     -45.275  11.034  23.365  0.00  0.00     0.140 A 
ATOM     19  C   UNL d   1     -44.722  11.544  22.963  0.00  0.00     0.030 A 
ATOM     20  F   UNL d   1     -44.938  10.431  23.698  0.00  0.00    -0.204 F 
ATOM     21  C   UNL d   1     -45.012  12.219  22.577  0.00  0.00     0.002 A 
ENDBRANCH  14  15
ENDBRANCH   4  14
TORSDOF 4
ENDMDL
MODEL 7
REMARK VINA RESULT:      -5.3      8.361      9.023
REMARK  4 active torsions:
REMARK  status: ('A' for Active; 'I' for Inactive)
REMARK    1  A    between atoms: N_2  and  C_1 
REMARK       I    between atoms: C_3  and  N_2 
REMARK    2  A    between atoms: C_6  and  C_3 
REMARK    3  A    between atoms: C_14  and  C_7 
REMARK    4  A    between atoms: C_15  and  C_14 
ROOT
ATOM      1  C   UNL d   1     -38.185  15.041  20.134  0.00  0.00     0.197 A 
ATOM      2  N   UNL d   1     -38.023  15.778  19.973  0.00  0.00    -0.219 NA
ATOM      3  S   UNL d   1     -38.409  14.670  19.436  0.00  0.00    -0.047 SA
ATOM      4  C   UNL d   1     -38.376  15.218  18.838  0.00  0.00     0.051 A 
ATOM      5  C   UNL d   1     -38.131  15.922  19.177  0.00  0.00     0.108 A 
ENDROOT
BRANCH   1   6
ATOM      6  N   UNL d   1     -38.121  14.727  20.928  0.00  0.00    -0.182 NA
ATOM      7  C   UNL d   1     -38.794  14.696  21.399  0.00  0.00     0.287 C 
ATOM      8  O   UNL d   1     -39.520  14.966  21.106  0.00  0.00    -0.265 OA
BRANCH   7   9
ATOM      9  C   UNL d   1     -38.732  14.401  22.145  0.00  0.00     0.087 A 
ATOM     10  S   UNL d   1     -38.428  14.773  22.822  0.00  0.00    -0.082 SA
ATOM     11  C   UNL d   1     -38.479  14.273  23.424  0.00  0.00     0.036 A 
ATOM     12  C   UNL d   1     -38.830  13.549  23.128  0.00  0.00     0.008 A 
ATOM     13  C   UNL d   1     -38.966  13.677  22.342  0.00  0.00     0.012 A 
ENDBRANCH   7   9
ENDBRANCH   1   6
BRANCH   4  14
ATOM     14  C   UNL d   1     -38.530  15.186  18.044  0.00  0.00     0.008 C 
BRANCH  14  15
ATOM     15  C   UNL d   1     -39.320  15.192  17.767  0.00  0.00     0.001 A 
ATOM     16  C   UNL d   1     -39.692  14.474  17.557  0.00  0.00     0.002 A 
ATOM     17  C   UNL d   1     -40.479  14.471  17.280  0.00  0.00     0.030 A 
ATOM     18  C   UNL d   1     -40.890  15.176  17.214  0.00  0.00     0.140 A 
ATOM     19  C   UNL d   1     -40.520  15.916  17.425  0.00  0.00     0.030 A 
ATOM     20  F   UNL d   1     -41.612  15.263  16.970  0.00  0.00    -0.204 F 
ATOM     21  C   UNL d   1     -39.737  15.903  17.700  0.00  0.00     0.002 A 
ENDBRANCH  14  15
ENDBRANCH   4  14
TORSDOF 4
ENDMDL
