MODEL 1
REMARK VINA RESULT:      -3.1      0.000      0.000
REMARK  3 active torsions:
REMARK  status: ('A' for Active; 'I' for Inactive)
REMARK    1  A    between atoms: C_6  and  C_1 
REMARK    2  A    between atoms: C_7  and  C_6 
REMARK    3  A    between atoms: O_17  and  C_15 
ROOT
ATOM      1  C   UNL d   1      32.193  17.048 -23.667  0.00  0.00     0.141 A 
ATOM      2  C   UNL d   1      31.202  16.156 -23.610  0.00  0.00     0.064 A 
ATOM      3  C   UNL d   1      32.003  16.270 -23.470  0.00  0.00     0.220 A 
ATOM      4  C   UNL d   1      30.889  16.865 -23.896  0.00  0.00     0.105 A 
ATOM      5  O   UNL d   1      31.503  17.423 -23.934  0.00  0.00    -0.304 OA
ATOM      6  C   UNL d   1      30.094  16.914 -24.085  0.00  0.00     0.049 A 
ATOM      7  C   UNL d   1      30.715  15.497 -23.514  0.00  0.00     0.007 A 
ATOM      8  O   UNL d   1      32.536  15.703 -23.179  0.00  0.00    -0.284 OA
ATOM      9  C   UNL d   1      29.606  16.255 -23.989  0.00  0.00     0.096 A 
ATOM     10  C   UNL d   1      29.918  15.550 -23.705  0.00  0.00     0.024 A 
ENDROOT
BRANCH   1  11
ATOM     11  C   UNL d   1      32.938  17.399 -23.612  0.00  0.00     0.053 C 
BRANCH  11  12
ATOM     12  C   UNL d   1      33.020  18.171 -23.320  0.00  0.00     0.102 A 
ATOM     13  O   UNL d   1      32.932  18.413 -22.538  0.00  0.00    -0.305 OA
ATOM     14  C   UNL d   1      33.063  19.226 -22.502  0.00  0.00     0.123 A 
ATOM     15  C   UNL d   1      33.235  19.497 -23.266  0.00  0.00     0.029 A 
ATOM     16  C   UNL d   1      33.209  18.845 -23.776  0.00  0.00     0.027 A 
ENDBRANCH  11  12
ENDBRANCH   1  11
BRANCH   9  17
ATOM     17  O   UNL d   1      28.805  16.306 -24.180  0.00  0.00    -0.328 OA
ATOM     18  C   UNL d   1      28.235  16.240 -23.590  0.00  0.00     0.181 C 
ENDBRANCH   9  17
TORSDOF 3
ENDMDL
MODEL 2
REMARK VINA RESULT:      -2.9      0.659      3.709
REMARK  3 active torsions:
REMARK  status: ('A' for Active; 'I' for Inactive)
REMARK    1  A    between atoms: C_6  and  C_1 
REMARK    2  A    between atoms: C_7  and  C_6 
REMARK    3  A    between atoms: O_17  and  C_15 
ROOT
ATOM      1  C   UNL d   1      31.099  16.362 -23.918  0.00  0.00     0.141 A 
ATOM      2  C   UNL d   1      32.236  16.916 -23.493  0.00  0.00     0.064 A 
ATOM      3  C   UNL d   1      31.834  16.204 -23.580  0.00  0.00     0.220 A 
ATOM      4  C   UNL d   1      31.751  17.521 -23.777  0.00  0.00     0.105 A 
ATOM      5  O   UNL d   1      31.041  17.180 -24.044  0.00  0.00    -0.304 OA
ATOM      6  C   UNL d   1      32.011  18.296 -23.759  0.00  0.00     0.049 A 
ATOM      7  C   UNL d   1      32.983  17.092 -23.190  0.00  0.00     0.007 A 
ATOM      8  O   UNL d   1      32.114  15.453 -23.367  0.00  0.00    -0.284 OA
ATOM      9  C   UNL d   1      32.758  18.473 -23.457  0.00  0.00     0.096 A 
ATOM     10  C   UNL d   1      33.241  17.871 -23.173  0.00  0.00     0.024 A 
ENDROOT
BRANCH   1  11
ATOM     11  C   UNL d   1      30.515  15.808 -24.104  0.00  0.00     0.053 C 
BRANCH  11  12
ATOM     12  C   UNL d   1      29.719  15.959 -23.931  0.00  0.00     0.102 A 
ATOM     13  O   UNL d   1      29.364  15.939 -23.188  0.00  0.00    -0.305 OA
ATOM     14  C   UNL d   1      28.566  16.126 -23.277  0.00  0.00     0.123 A 
ATOM     15  C   UNL d   1      28.418  16.264 -24.081  0.00  0.00     0.029 A 
ATOM     16  C   UNL d   1      29.131  16.162 -24.489  0.00  0.00     0.027 A 
ENDBRANCH  11  12
ENDBRANCH   1  11
BRANCH   9  17
ATOM     17  O   UNL d   1      33.019  19.256 -23.439  0.00  0.00    -0.328 OA
ATOM     18  C   UNL d   1      33.210  19.611 -22.721  0.00  0.00     0.181 C 
ENDBRANCH   9  17
TORSDOF 3
ENDMDL
MODEL 3
REMARK VINA RESULT:      -2.7      1.307      4.323
REMARK  3 active torsions:
REMARK  status: ('A' for Active; 'I' for Inactive)
REMARK    1  A    between atoms: C_6  and  C_1 
REMARK    2  A    between atoms: C_7  and  C_6 
REMARK    3  A    between atoms: O_17  and  C_15 
ROOT
ATOM      1  C   UNL d   1      32.955  18.456 -23.532  0.00  0.00     0.141 A 
ATOM      2  C   UNL d   1      33.121  19.717 -23.127  0.00  0.00     0.064 A 
ATOM      3  C   UNL d   1      33.093  19.228 -23.787  0.00  0.00     0.220 A 
ATOM      4  C   UNL d   1      33.000  19.250 -22.457  0.00  0.00     0.105 A 
ATOM      5  O   UNL d   1      32.896  18.463 -22.705  0.00  0.00    -0.304 OA
ATOM      6  C   UNL d   1      32.999  19.593 -21.714  0.00  0.00     0.049 A 
ATOM      7  C   UNL d   1      33.241  20.530 -23.049  0.00  0.00     0.007 A 
ATOM      8  O   UNL d   1      33.187  19.465 -24.578  0.00  0.00    -0.284 OA
ATOM      9  C   UNL d   1      33.119  20.405 -21.635  0.00  0.00     0.096 A 
ATOM     10  C   UNL d   1      33.239  20.870 -22.302  0.00  0.00     0.024 A 
ENDROOT
BRANCH   1  11
ATOM     11  C   UNL d   1      32.886  17.787 -24.011  0.00  0.00     0.053 C 
BRANCH  11  12
ATOM     12  C   UNL d   1      32.344  17.188 -23.823  0.00  0.00     0.102 A 
ATOM     13  O   UNL d   1      31.523  17.238 -23.858  0.00  0.00    -0.305 OA
ATOM     14  C   UNL d   1      31.208  16.513 -23.623  0.00  0.00     0.123 A 
ATOM     15  C   UNL d   1      31.836  16.003 -23.439  0.00  0.00     0.029 A 
ATOM     16  C   UNL d   1      32.541  16.419 -23.562  0.00  0.00     0.027 A 
ENDBRANCH  11  12
ENDBRANCH   1  11
BRANCH   9  17
ATOM     17  O   UNL d   1      33.118  20.750 -20.886  0.00  0.00    -0.328 OA
ATOM     18  C   UNL d   1      32.726  21.462 -20.759  0.00  0.00     0.181 C 
ENDBRANCH   9  17
TORSDOF 3
ENDMDL
MODEL 4
REMARK VINA RESULT:      -2.5      2.133      3.856
REMARK  3 active torsions:
REMARK  status: ('A' for Active; 'I' for Inactive)
REMARK    1  A    between atoms: C_6  and  C_1 
REMARK    2  A    between atoms: C_7  and  C_6 
REMARK    3  A    between atoms: O_17  and  C_15 
ROOT
ATOM      1  C   UNL d   1      33.198  20.306 -22.536  0.00  0.00     0.141 A 
ATOM      2  C   UNL d   1      33.142  19.297 -23.407  0.00  0.00     0.064 A 
ATOM      3  C   UNL d   1      33.185  20.115 -23.338  0.00  0.00     0.220 A 
ATOM      4  C   UNL d   1      33.128  18.976 -22.646  0.00  0.00     0.105 A 
ATOM      5  O   UNL d   1      33.163  19.602 -22.100  0.00  0.00    -0.304 OA
ATOM      6  C   UNL d   1      33.086  18.165 -22.545  0.00  0.00     0.049 A 
ATOM      7  C   UNL d   1      33.113  18.802 -24.066  0.00  0.00     0.007 A 
ATOM      8  O   UNL d   1      33.211  20.660 -23.963  0.00  0.00    -0.284 OA
ATOM      9  C   UNL d   1      33.058  17.669 -23.203  0.00  0.00     0.096 A 
ATOM     10  C   UNL d   1      33.071  17.988 -23.961  0.00  0.00     0.024 A 
ENDROOT
BRANCH   1  11
ATOM     11  C   UNL d   1      33.239  21.066 -22.214  0.00  0.00     0.053 C 
BRANCH  11  12
ATOM     12  C   UNL d   1      32.827  21.253 -21.519  0.00  0.00     0.102 A 
ATOM     13  O   UNL d   1      32.014  21.206 -21.402  0.00  0.00    -0.305 OA
ATOM     14  C   UNL d   1      31.848  21.444 -20.630  0.00  0.00     0.123 A 
ATOM     15  C   UNL d   1      32.563  21.642 -20.259  0.00  0.00     0.029 A 
ATOM     16  C   UNL d   1      33.172  21.525 -20.808  0.00  0.00     0.027 A 
ENDBRANCH  11  12
ENDBRANCH   1  11
BRANCH   9  17
ATOM     17  O   UNL d   1      33.015  16.851 -23.101  0.00  0.00    -0.328 OA
ATOM     18  C   UNL d   1      32.654  16.381 -23.671  0.00  0.00     0.181 C 
ENDBRANCH   9  17
TORSDOF 3
ENDMDL
MODEL 5
REMARK VINA RESULT:      -2.4      0.959      1.196
REMARK  3 active torsions:
REMARK  status: ('A' for Active; 'I' for Inactive)
REMARK    1  A    between atoms: C_6  and  C_1 
REMARK    2  A    between atoms: C_7  and  C_6 
REMARK    3  A    between atoms: O_17  and  C_15 
ROOT
ATOM      1  C   UNL d   1      31.348  16.846 -24.446  0.00  0.00     0.141 A 
ATOM      2  C   UNL d   1      30.277  16.054 -24.514  0.00  0.00     0.064 A 
ATOM      3  C   UNL d   1      31.074  16.113 -24.706  0.00  0.00     0.220 A 
ATOM      4  C   UNL d   1      30.052  16.751 -24.133  0.00  0.00     0.105 A 
ATOM      5  O   UNL d   1      30.718  17.248 -24.088  0.00  0.00    -0.304 OA
ATOM      6  C   UNL d   1      29.281  16.847 -23.876  0.00  0.00     0.049 A 
ATOM      7  C   UNL d   1      29.725  15.453 -24.638  0.00  0.00     0.007 A 
ATOM      8  O   UNL d   1      31.529  15.538 -25.096  0.00  0.00    -0.284 OA
ATOM      9  C   UNL d   1      28.728  16.247 -23.999  0.00  0.00     0.096 A 
ATOM     10  C   UNL d   1      28.952  15.553 -24.379  0.00  0.00     0.024 A 
ENDROOT
BRANCH   1  11
ATOM     11  C   UNL d   1      32.118  17.136 -24.525  0.00  0.00     0.053 C 
BRANCH  11  12
ATOM     12  C   UNL d   1      32.452  17.610 -23.932  0.00  0.00     0.102 A 
ATOM     13  O   UNL d   1      32.782  17.351 -23.223  0.00  0.00    -0.305 OA
ATOM     14  C   UNL d   1      33.046  18.010 -22.804  0.00  0.00     0.123 A 
ATOM     15  C   UNL d   1      32.882  18.688 -23.252  0.00  0.00     0.029 A 
ATOM     16  C   UNL d   1      32.514  18.443 -23.952  0.00  0.00     0.027 A 
ENDBRANCH  11  12
ENDBRANCH   1  11
BRANCH   9  17
ATOM     17  O   UNL d   1      27.951  16.344 -23.740  0.00  0.00    -0.328 OA
ATOM     18  C   UNL d   1      27.500  15.689 -23.531  0.00  0.00     0.181 C 
ENDBRANCH   9  17
TORSDOF 3
ENDMDL
MODEL 6
REMARK VINA RESULT:      -2.3      2.106      4.897
REMARK  3 active torsions:
REMARK  status: ('A' for Active; 'I' for Inactive)
REMARK    1  A    between atoms: C_6  and  C_1 
REMARK    2  A    between atoms: C_7  and  C_6 
REMARK    3  A    between atoms: O_17  and  C_15 
ROOT
ATOM      1  C   UNL d   1      33.241  19.354 -22.724  0.00  0.00     0.141 A 
ATOM      2  C   UNL d   1      33.241  20.497 -22.035  0.00  0.00     0.064 A 
ATOM      3  C   UNL d   1      33.241  19.679 -21.966  0.00  0.00     0.220 A 
ATOM      4  C   UNL d   1      33.241  20.686 -22.840  0.00  0.00     0.105 A 
ATOM      5  O   UNL d   1      33.241  19.976 -23.272  0.00  0.00    -0.304 OA
ATOM      6  C   UNL d   1      33.241  21.470 -23.075  0.00  0.00     0.049 A 
ATOM      7  C   UNL d   1      33.240  21.098 -21.469  0.00  0.00     0.007 A 
ATOM      8  O   UNL d   1      33.240  19.246 -21.257  0.00  0.00    -0.284 OA
ATOM      9  C   UNL d   1      33.241  22.071 -22.510  0.00  0.00     0.096 A 
ATOM     10  C   UNL d   1      33.240  21.882 -21.710  0.00  0.00     0.024 A 
ENDROOT
BRANCH   1  11
ATOM     11  C   UNL d   1      33.241  18.550 -22.913  0.00  0.00     0.053 C 
BRANCH  11  12
ATOM     12  C   UNL d   1      32.799  18.268 -23.556  0.00  0.00     0.102 A 
ATOM     13  O   UNL d   1      31.982  18.173 -23.588  0.00  0.00    -0.305 OA
ATOM     14  C   UNL d   1      31.784  17.878 -24.332  0.00  0.00     0.123 A 
ATOM     15  C   UNL d   1      32.481  17.787 -24.771  0.00  0.00     0.029 A 
ATOM     16  C   UNL d   1      33.113  18.028 -24.292  0.00  0.00     0.027 A 
ENDBRANCH  11  12
ENDBRANCH   1  11
BRANCH   9  17
ATOM     17  O   UNL d   1      33.241  22.860 -22.749  0.00  0.00    -0.328 OA
ATOM     18  C   UNL d   1      32.891  23.435 -22.275  0.00  0.00     0.181 C 
ENDBRANCH   9  17
TORSDOF 3
ENDMDL
MODEL 7
REMARK VINA RESULT:      -2.2      1.415      4.017
REMARK  3 active torsions:
REMARK  status: ('A' for Active; 'I' for Inactive)
REMARK    1  A    between atoms: C_6  and  C_1 
REMARK    2  A    between atoms: C_7  and  C_6 
REMARK    3  A    between atoms: O_17  and  C_15 
ROOT
ATOM      1  C   UNL d   1      29.930  16.726 -24.565  0.00  0.00     0.141 A 
ATOM      2  C   UNL d   1      31.185  17.170 -24.476  0.00  0.00     0.064 A 
ATOM      3  C   UNL d   1      30.428  17.362 -24.732  0.00  0.00     0.220 A 
ATOM      4  C   UNL d   1      31.161  16.413 -24.148  0.00  0.00     0.105 A 
ATOM      5  O   UNL d   1      30.380  16.132 -24.201  0.00  0.00    -0.304 OA
ATOM      6  C   UNL d   1      31.843  16.076 -23.845  0.00  0.00     0.049 A 
ATOM      7  C   UNL d   1      31.896  17.589 -24.500  0.00  0.00     0.007 A 
ATOM      8  O   UNL d   1      30.198  18.071 -25.097  0.00  0.00    -0.284 OA
ATOM      9  C   UNL d   1      32.554  16.494 -23.868  0.00  0.00     0.096 A 
ATOM     10  C   UNL d   1      32.578  17.248 -24.195  0.00  0.00     0.024 A 
ENDROOT
BRANCH   1  11
ATOM     11  C   UNL d   1      29.121  16.681 -24.728  0.00  0.00     0.053 C 
BRANCH  11  12
ATOM     12  C   UNL d   1      28.599  16.339 -24.182  0.00  0.00     0.102 A 
ATOM     13  O   UNL d   1      28.301  16.691 -23.500  0.00  0.00    -0.305 OA
ATOM     14  C   UNL d   1      27.803  16.150 -23.126  0.00  0.00     0.123 A 
ATOM     15  C   UNL d   1      27.789  15.454 -23.576  0.00  0.00     0.029 A 
ATOM     16  C   UNL d   1      28.281  15.568 -24.232  0.00  0.00     0.027 A 
ENDBRANCH  11  12
ENDBRANCH   1  11
BRANCH   9  17
ATOM     17  O   UNL d   1      33.240  16.154 -23.563  0.00  0.00    -0.328 OA
ATOM     18  C   UNL d   1      33.202  15.673 -22.896  0.00  0.00     0.181 C 
ENDBRANCH   9  17
TORSDOF 3
ENDMDL
MODEL 8
REMARK VINA RESULT:      -2.2      1.282      2.576
REMARK  3 active torsions:
REMARK  status: ('A' for Active; 'I' for Inactive)
REMARK    1  A    between atoms: C_6  and  C_1 
REMARK    2  A    between atoms: C_7  and  C_6 
REMARK    3  A    between atoms: O_17  and  C_15 
ROOT
ATOM      1  C   UNL d   1      32.934  19.205 -23.343  0.00  0.00     0.141 A 
ATOM      2  C   UNL d   1      32.466  18.217 -24.108  0.00  0.00     0.064 A 
ATOM      3  C   UNL d   1      32.759  18.985 -24.118  0.00  0.00     0.220 A 
ATOM      4  C   UNL d   1      32.458  17.956 -23.324  0.00  0.00     0.105 A 
ATOM      5  O   UNL d   1      32.749  18.570 -22.844  0.00  0.00    -0.304 OA
ATOM      6  C   UNL d   1      32.190  17.204 -23.146  0.00  0.00     0.049 A 
ATOM      7  C   UNL d   1      32.205  17.720 -24.713  0.00  0.00     0.007 A 
ATOM      8  O   UNL d   1      32.863  19.461 -24.790  0.00  0.00    -0.284 OA
ATOM      9  C   UNL d   1      31.929  16.706 -23.750  0.00  0.00     0.096 A 
ATOM     10  C   UNL d   1      31.937  16.965 -24.530  0.00  0.00     0.024 A 
ENDROOT
BRANCH   1  11
ATOM     11  C   UNL d   1      33.241  19.932 -23.098  0.00  0.00     0.053 C 
BRANCH  11  12
ATOM     12  C   UNL d   1      33.067  20.231 -22.345  0.00  0.00     0.102 A 
ATOM     13  O   UNL d   1      33.234  19.872 -21.622  0.00  0.00    -0.305 OA
ATOM     14  C   UNL d   1      32.963  20.365 -21.019  0.00  0.00     0.123 A 
ATOM     15  C   UNL d   1      32.623  21.038 -21.365  0.00  0.00     0.029 A 
ATOM     16  C   UNL d   1      32.686  20.958 -22.187  0.00  0.00     0.027 A 
ENDBRANCH  11  12
ENDBRANCH   1  11
BRANCH   9  17
ATOM     17  O   UNL d   1      31.660  15.947 -23.570  0.00  0.00    -0.328 OA
ATOM     18  C   UNL d   1      30.933  15.688 -23.857  0.00  0.00     0.181 C 
ENDBRANCH   9  17
TORSDOF 3
ENDMDL
