MODEL 1
REMARK VINA RESULT:      -6.7      0.000      0.000
REMARK  5 active torsions:
REMARK  status: ('A' for Active; 'I' for Inactive)
REMARK    1  A    between atoms: C_8  and  N_1 
REMARK    2  A    between atoms: C_5  and  C_21 
REMARK    3  A    between atoms: C_9  and  C_12 
REMARK       I    between atoms: N_20  and  C_9 
REMARK    4  A    between atoms: C_22  and  N_20 
REMARK    5  A    between atoms: C_21  and  C_22 
ROOT
ATOM      1  C   UNL d   1     -42.090-121.979 -51.017  0.00  0.00     0.026 C 
ENDROOT
BRANCH   1   2
ATOM      2  C   UNL d   1     -42.324-122.298 -50.297  0.00  0.00     0.059 A 
ATOM      3  C   UNL d   1     -43.137-122.387 -50.131  0.00  0.00     0.279 A 
ATOM      4  N   UNL d   1     -43.378-122.709 -49.406  0.00  0.00    -0.208 NA
ATOM      5  O   UNL d   1     -43.701-122.156 -50.688  0.00  0.00    -0.265 OA
ATOM      6  C   UNL d   1     -42.805-122.943 -48.844  0.00  0.00     0.085 A 
ATOM      7  C   UNL d   1     -42.001-122.852 -49.016  0.00  0.00     0.018 A 
ATOM      8  C   UNL d   1     -43.054-123.264 -48.122  0.00  0.00     0.019 A 
ATOM      9  C   UNL d   1     -41.760-122.532 -49.737  0.00  0.00     0.006 A 
ATOM     10  C   UNL d   1     -41.436-123.087 -48.452  0.00  0.00     0.002 A 
ATOM     11  C   UNL d   1     -41.678-123.407 -47.731  0.00  0.00     0.000 A 
ATOM     12  C   UNL d   1     -42.491-123.496 -47.565  0.00  0.00     0.002 A 
ATOM     13  C   UNL d   1     -41.123-123.640 -47.173  0.00  0.00     0.000 C 
ATOM     14  C   UNL d   1     -42.733-123.816 -46.844  0.00  0.00     0.000 C 
ENDBRANCH   1   2
BRANCH   1  15
ATOM     15  C   UNL d   1     -41.541-122.364 -51.489  0.00  0.00     0.102 C 
BRANCH  15  16
ATOM     16  N   UNL d   1     -41.592-122.335 -52.315  0.00  0.00    -0.206 NA
ATOM     17  C   UNL d   1     -41.444-123.013 -52.767  0.00  0.00     0.279 C 
ATOM     18  O   UNL d   1     -41.245-123.721 -52.400  0.00  0.00    -0.265 OA
BRANCH  17  19
ATOM     19  C   UNL d   1     -41.498-122.975 -53.593  0.00  0.00     0.059 A 
ATOM     20  C   UNL d   1     -41.902-122.372 -53.952  0.00  0.00     0.028 A 
ATOM     21  C   UNL d   1     -41.967-122.316 -54.761  0.00  0.00     0.127 A 
ATOM     22  C   UNL d   1     -41.611-122.889 -55.228  0.00  0.00     0.024 A 
ATOM     23  C   UNL d   1     -41.196-123.509 -54.897  0.00  0.00     0.002 A 
ATOM     24  C   UNL d   1     -41.143-123.545 -54.062  0.00  0.00     0.005 A 
BRANCH  21  25
ATOM     25  N   UNL d   1     -42.379-121.703 -55.132  0.00  0.00    -0.114 N 
ATOM     26  O   UNL d   1     -42.880-121.887 -55.794  0.00  0.00    -0.532 OA
ATOM     27  O   UNL d   1     -42.330-120.908 -54.892  0.00  0.00    -0.532 OA
ENDBRANCH  21  25
ENDBRANCH  17  19
ENDBRANCH  15  16
ENDBRANCH   1  15
TORSDOF 5
ENDMDL
