MODEL 1
REMARK VINA RESULT:      -5.1      0.000      0.000
REMARK  4 active torsions:
REMARK  status: ('A' for Active; 'I' for Inactive)
REMARK    1  A    between atoms: C_2  and  N_1 
REMARK    2  A    between atoms: N_7  and  C_3 
REMARK    3  A    between atoms: C_12  and  N_7 
REMARK    4  A    between atoms: C_13  and  C_12 
ROOT
ATOM      1  C   UNL d   1     -41.918-122.272 -54.270  0.00  0.00     0.200 A 
ATOM      2  C   UNL d   1     -41.550-122.771 -53.713  0.00  0.00     0.189 A 
ATOM      3  C   UNL d   1     -41.878-122.464 -55.060  0.00  0.00     0.210 A 
ATOM      4  N   UNL d   1     -41.152-123.450 -53.961  0.00  0.00    -0.203 NA
ATOM      5  N   UNL d   1     -41.491-123.127 -55.320  0.00  0.00    -0.202 NA
ATOM      6  C   UNL d   1     -41.123-123.627 -54.763  0.00  0.00     0.202 A 
ATOM      7  N   UNL d   1     -42.246-121.964 -55.617  0.00  0.00    -0.125 N 
ENDROOT
BRANCH   2   8
ATOM      8  N   UNL d   1     -41.578-122.597 -52.915  0.00  0.00    -0.224 NA
BRANCH   8   9
ATOM      9  C   UNL d   1     -41.133-123.025 -52.380  0.00  0.00     0.101 C 
BRANCH   9  10
ATOM     10  C   UNL d   1     -41.327-123.015 -51.575  0.00  0.00     0.019 A 
ATOM     11  C   UNL d   1     -41.727-123.663 -51.238  0.00  0.00     0.002 A 
ATOM     12  C   UNL d   1     -41.920-123.652 -50.436  0.00  0.00     0.000 A 
ATOM     13  C   UNL d   1     -41.723-123.016 -49.978  0.00  0.00     0.000 A 
ATOM     14  C   UNL d   1     -41.327-122.371 -50.308  0.00  0.00     0.000 A 
ATOM     15  C   UNL d   1     -41.914-123.002 -49.179  0.00  0.00     0.000 C 
ATOM     16  C   UNL d   1     -41.131-122.379 -51.117  0.00  0.00     0.002 A 
ENDBRANCH   9  10
ENDBRANCH   8   9
ENDBRANCH   2   8
BRANCH   1  17
ATOM     17  N   UNL d   1     -42.314-121.598 -54.029  0.00  0.00    -0.107 N 
ATOM     18  O   UNL d   1     -43.108-121.644 -53.864  0.00  0.00    -0.531 OA
ATOM     19  O   UNL d   1     -41.910-120.888 -53.954  0.00  0.00    -0.531 OA
ENDBRANCH   1  17
TORSDOF 4
ENDMDL
MODEL 2
REMARK VINA RESULT:      -4.2      1.729      4.022
REMARK  4 active torsions:
REMARK  status: ('A' for Active; 'I' for Inactive)
REMARK    1  A    between atoms: C_2  and  N_1 
REMARK    2  A    between atoms: N_7  and  C_3 
REMARK    3  A    between atoms: C_12  and  N_7 
REMARK    4  A    between atoms: C_13  and  C_12 
ROOT
ATOM      1  C   UNL d   1     -42.085-122.484 -50.805  0.00  0.00     0.200 A 
ATOM      2  C   UNL d   1     -41.689-122.761 -51.485  0.00  0.00     0.189 A 
ATOM      3  C   UNL d   1     -41.988-122.882 -50.102  0.00  0.00     0.210 A 
ATOM      4  N   UNL d   1     -41.208-123.429 -51.442  0.00  0.00    -0.203 NA
ATOM      5  N   UNL d   1     -41.518-123.540 -50.044  0.00  0.00    -0.202 NA
ATOM      6  C   UNL d   1     -41.122-123.817 -50.724  0.00  0.00     0.202 A 
ATOM      7  N   UNL d   1     -42.384-122.604 -49.422  0.00  0.00    -0.125 N 
ENDROOT
BRANCH   2   8
ATOM      8  N   UNL d   1     -41.772-122.377 -52.201  0.00  0.00    -0.224 NA
BRANCH   8   9
ATOM      9  C   UNL d   1     -41.277-122.551 -52.827  0.00  0.00     0.101 C 
BRANCH   9  10
ATOM     10  C   UNL d   1     -41.523-122.409 -53.605  0.00  0.00     0.019 A 
ATOM     11  C   UNL d   1     -42.000-121.748 -53.774  0.00  0.00     0.002 A 
ATOM     12  C   UNL d   1     -42.244-121.608 -54.549  0.00  0.00     0.000 A 
ATOM     13  C   UNL d   1     -42.023-122.109 -55.143  0.00  0.00     0.000 A 
ATOM     14  C   UNL d   1     -41.550-122.766 -54.980  0.00  0.00     0.000 A 
ATOM     15  C   UNL d   1     -42.265-121.973 -55.916  0.00  0.00     0.000 C 
ATOM     16  C   UNL d   1     -41.302-122.910 -54.198  0.00  0.00     0.002 A 
ENDBRANCH   9  10
ENDBRANCH   8   9
ENDBRANCH   2   8
BRANCH   1  17
ATOM     17  N   UNL d   1     -42.563-121.822 -50.842  0.00  0.00    -0.107 N 
ATOM     18  O   UNL d   1     -42.223-121.085 -50.797  0.00  0.00    -0.531 OA
ATOM     19  O   UNL d   1     -43.375-121.905 -50.924  0.00  0.00    -0.531 OA
ENDBRANCH   1  17
TORSDOF 4
ENDMDL
