MODEL 1
REMARK VINA RESULT:      -3.9      0.000      0.000
REMARK  7 active torsions:
REMARK  status: ('A' for Active; 'I' for Inactive)
REMARK    1  A    between atoms: C_3  and  N_1 
REMARK    2  A    between atoms: N_7  and  C_3 
REMARK    3  A    between atoms: C_9  and  C_4 
REMARK    4  A    between atoms: C_10  and  C_5 
REMARK    5  A    between atoms: C_15  and  N_7 
REMARK    6  A    between atoms: O_22  and  C_16 
REMARK    7  A    between atoms: O_23  and  C_17 
ROOT
ATOM      1  N   UNL d   1     -39.713  15.001  20.243  0.00  0.00    -0.203 N 
ATOM      2  N   UNL d   1     -39.247  15.198  19.604  0.00  0.00    -0.163 NA
ATOM      3  C   UNL d   1     -39.659  14.936  18.910  0.00  0.00     0.103 A 
ATOM      4  C   UNL d   1     -40.387  14.633  19.991  0.00  0.00     0.087 A 
ATOM      5  C   UNL d   1     -40.361  14.590  19.173  0.00  0.00     0.040 A 
ENDROOT
BRANCH   1   6
ATOM      6  C   UNL d   1     -39.518  15.159  21.061  0.00  0.00     0.222 C 
ATOM      7  S   UNL d   1     -39.898  15.783  21.445  0.00  0.00    -0.037 SA
BRANCH   6   8
ATOM      8  N   UNL d   1     -38.959  14.683  21.436  0.00  0.00    -0.217 NA
BRANCH   8   9
ATOM      9  C   UNL d   1     -38.679  14.918  22.175  0.00  0.00     0.084 A 
ATOM     10  C   UNL d   1     -38.287  15.637  22.249  0.00  0.00     0.019 A 
ATOM     11  C   UNL d   1     -38.002  15.873  23.008  0.00  0.00     0.002 A 
ATOM     12  C   UNL d   1     -38.111  15.405  23.647  0.00  0.00     0.000 A 
ATOM     13  C   UNL d   1     -38.502  14.684  23.584  0.00  0.00     0.002 A 
ATOM     14  C   UNL d   1     -38.786  14.440  22.850  0.00  0.00     0.019 A 
ENDBRANCH   8   9
ENDBRANCH   6   8
ENDBRANCH   1   6
BRANCH   4  15
ATOM     15  C   UNL d   1     -41.038  14.324  20.409  0.00  0.00     0.018 A 
ATOM     16  C   UNL d   1     -41.065  13.518  20.575  0.00  0.00     0.004 A 
ATOM     17  C   UNL d   1     -41.705  13.212  20.986  0.00  0.00     0.024 A 
ATOM     18  C   UNL d   1     -42.331  13.713  21.238  0.00  0.00     0.094 A 
ATOM     19  C   UNL d   1     -42.292  14.538  21.061  0.00  0.00     0.024 A 
ATOM     20  C   UNL d   1     -41.640  14.822  20.648  0.00  0.00     0.004 A 
BRANCH  18  21
ATOM     21  O   UNL d   1     -42.958  13.396  21.644  0.00  0.00    -0.328 OA
ATOM     22  C   UNL d   1     -43.339  12.726  21.371  0.00  0.00     0.181 C 
ENDBRANCH  18  21
ENDBRANCH   4  15
BRANCH   3  23
ATOM     23  C   UNL d   1     -39.384  15.026  18.136  0.00  0.00     0.019 A 
ATOM     24  C   UNL d   1     -38.623  14.785  17.937  0.00  0.00     0.004 A 
ATOM     25  C   UNL d   1     -38.340  14.871  17.166  0.00  0.00     0.024 A 
ATOM     26  C   UNL d   1     -38.830  15.203  16.590  0.00  0.00     0.094 A 
ATOM     27  C   UNL d   1     -39.611  15.449  16.796  0.00  0.00     0.024 A 
ATOM     28  C   UNL d   1     -39.886  15.360  17.567  0.00  0.00     0.004 A 
BRANCH  26  29
ATOM     29  O   UNL d   1     -38.533  15.288  15.802  0.00  0.00    -0.328 OA
ATOM     30  C   UNL d   1     -37.946  14.716  15.269  0.00  0.00     0.181 C 
ENDBRANCH  26  29
ENDBRANCH   3  23
TORSDOF 7
ENDMDL
MODEL 2
REMARK VINA RESULT:      -3.8      1.032      4.423
REMARK  7 active torsions:
REMARK  status: ('A' for Active; 'I' for Inactive)
REMARK    1  A    between atoms: C_3  and  N_1 
REMARK    2  A    between atoms: N_7  and  C_3 
REMARK    3  A    between atoms: C_9  and  C_4 
REMARK    4  A    between atoms: C_10  and  C_5 
REMARK    5  A    between atoms: C_15  and  N_7 
REMARK    6  A    between atoms: O_22  and  C_16 
REMARK    7  A    between atoms: O_23  and  C_17 
ROOT
ATOM      1  N   UNL d   1     -40.438  14.322  20.716  0.00  0.00    -0.203 N 
ATOM      2  N   UNL d   1     -40.981  13.993  21.227  0.00  0.00    -0.163 NA
ATOM      3  C   UNL d   1     -41.677  13.829  20.772  0.00  0.00     0.103 A 
ATOM      4  C   UNL d   1     -40.752  14.372  19.974  0.00  0.00     0.087 A 
ATOM      5  C   UNL d   1     -41.513  14.071  20.000  0.00  0.00     0.040 A 
ENDROOT
BRANCH   1   6
ATOM      6  C   UNL d   1     -39.650  14.576  20.932  0.00  0.00     0.222 C 
ATOM      7  S   UNL d   1     -39.025  14.044  20.848  0.00  0.00    -0.037 SA
BRANCH   6   8
ATOM      8  N   UNL d   1     -39.543  15.343  21.216  0.00  0.00    -0.217 NA
BRANCH   8   9
ATOM      9  C   UNL d   1     -39.129  15.444  21.922  0.00  0.00     0.084 A 
ATOM     10  C   UNL d   1     -38.359  15.164  21.983  0.00  0.00     0.019 A 
ATOM     11  C   UNL d   1     -37.941  15.270  22.709  0.00  0.00     0.002 A 
ATOM     12  C   UNL d   1     -38.287  15.638  23.328  0.00  0.00     0.000 A 
ATOM     13  C   UNL d   1     -39.057  15.922  23.277  0.00  0.00     0.002 A 
ATOM     14  C   UNL d   1     -39.479  15.826  22.576  0.00  0.00     0.019 A 
ENDBRANCH   8   9
ENDBRANCH   6   8
ENDBRANCH   1   6
BRANCH   4  15
ATOM     15  C   UNL d   1     -40.437  14.659  19.258  0.00  0.00     0.018 A 
ATOM     16  C   UNL d   1     -40.601  15.433  19.026  0.00  0.00     0.004 A 
ATOM     17  C   UNL d   1     -40.292  15.717  18.322  0.00  0.00     0.024 A 
ATOM     18  C   UNL d   1     -39.811  15.227  17.836  0.00  0.00     0.094 A 
ATOM     19  C   UNL d   1     -39.651  14.436  18.085  0.00  0.00     0.024 A 
ATOM     20  C   UNL d   1     -39.972  14.173  18.794  0.00  0.00     0.004 A 
BRANCH  18  21
ATOM     21  O   UNL d   1     -39.513  15.522  17.143  0.00  0.00    -0.328 OA
ATOM     22  C   UNL d   1     -39.281  15.024  16.538  0.00  0.00     0.181 C 
ENDBRANCH  18  21
ENDBRANCH   4  15
BRANCH   3  23
ATOM     23  C   UNL d   1     -42.369  13.492  21.073  0.00  0.00     0.019 A 
ATOM     24  C   UNL d   1     -42.381  12.699  21.294  0.00  0.00     0.004 A 
ATOM     25  C   UNL d   1     -43.068  12.355  21.596  0.00  0.00     0.024 A 
ATOM     26  C   UNL d   1     -43.750  12.815  21.676  0.00  0.00     0.094 A 
ATOM     27  C   UNL d   1     -43.736  13.627  21.449  0.00  0.00     0.024 A 
ATOM     28  C   UNL d   1     -43.047  13.964  21.149  0.00  0.00     0.004 A 
BRANCH  26  29
ATOM     29  O   UNL d   1     -44.450  12.454  21.987  0.00  0.00    -0.328 OA
ATOM     30  C   UNL d   1     -45.310  12.836  22.252  0.00  0.00     0.181 C 
ENDBRANCH  26  29
ENDBRANCH   3  23
TORSDOF 7
ENDMDL
MODEL 3
REMARK VINA RESULT:      -3.1      5.375      8.341
REMARK  7 active torsions:
REMARK  status: ('A' for Active; 'I' for Inactive)
REMARK    1  A    between atoms: C_3  and  N_1 
REMARK    2  A    between atoms: N_7  and  C_3 
REMARK    3  A    between atoms: C_9  and  C_4 
REMARK    4  A    between atoms: C_10  and  C_5 
REMARK    5  A    between atoms: C_15  and  N_7 
REMARK    6  A    between atoms: O_22  and  C_16 
REMARK    7  A    between atoms: O_23  and  C_17 
ROOT
ATOM      1  N   UNL d   1     -46.936  13.483  22.626  0.00  0.00    -0.203 N 
ATOM      2  N   UNL d   1     -46.162  13.642  22.428  0.00  0.00    -0.163 NA
ATOM      3  C   UNL d   1     -45.789  12.894  22.280  0.00  0.00     0.103 A 
ATOM      4  C   UNL d   1     -47.068  12.686  22.611  0.00  0.00     0.087 A 
ATOM      5  C   UNL d   1     -46.368  12.318  22.399  0.00  0.00     0.040 A 
ENDROOT
BRANCH   1   6
ATOM      6  C   UNL d   1     -47.524  14.073  22.821  0.00  0.00     0.222 C 
ATOM      7  S   UNL d   1     -47.765  14.145  23.608  0.00  0.00    -0.037 SA
BRANCH   6   8
ATOM      8  N   UNL d   1     -47.829  14.546  22.219  0.00  0.00    -0.217 NA
BRANCH   8   9
ATOM      9  C   UNL d   1     -48.533  14.952  22.360  0.00  0.00     0.084 A 
ATOM     10  C   UNL d   1     -49.148  14.895  21.818  0.00  0.00     0.019 A 
ATOM     11  C   UNL d   1     -49.866  15.313  21.967  0.00  0.00     0.002 A 
ATOM     12  C   UNL d   1     -49.948  15.758  22.626  0.00  0.00     0.000 A 
ATOM     13  C   UNL d   1     -49.338  15.822  23.174  0.00  0.00     0.002 A 
ATOM     14  C   UNL d   1     -48.631  15.421  23.043  0.00  0.00     0.019 A 
ENDBRANCH   8   9
ENDBRANCH   6   8
ENDBRANCH   1   6
BRANCH   4  15
ATOM     15  C   UNL d   1     -47.751  12.235  22.766  0.00  0.00     0.018 A 
ATOM     16  C   UNL d   1     -48.274  12.069  22.151  0.00  0.00     0.004 A 
ATOM     17  C   UNL d   1     -48.946  11.625  22.302  0.00  0.00     0.024 A 
ATOM     18  C   UNL d   1     -49.106  11.340  23.077  0.00  0.00     0.094 A 
ATOM     19  C   UNL d   1     -48.563  11.517  23.698  0.00  0.00     0.024 A 
ATOM     20  C   UNL d   1     -47.895  11.964  23.523  0.00  0.00     0.004 A 
BRANCH  18  21
ATOM     21  O   UNL d   1     -49.776  10.902  23.210  0.00  0.00    -0.328 OA
ATOM     22  C   UNL d   1     -50.388  11.198  23.664  0.00  0.00     0.181 C 
ENDBRANCH  18  21
ENDBRANCH   4  15
BRANCH   3  23
ATOM     23  C   UNL d   1     -44.998  12.796  22.061  0.00  0.00     0.019 A 
ATOM     24  C   UNL d   1     -44.668  13.272  21.477  0.00  0.00     0.004 A 
ATOM     25  C   UNL d   1     -43.879  13.182  21.253  0.00  0.00     0.024 A 
ATOM     26  C   UNL d   1     -43.417  12.604  21.621  0.00  0.00     0.094 A 
ATOM     27  C   UNL d   1     -43.757  12.117  22.220  0.00  0.00     0.024 A 
ATOM     28  C   UNL d   1     -44.545  12.213  22.439  0.00  0.00     0.004 A 
BRANCH  26  29
ATOM     29  O   UNL d   1     -42.609  12.517  21.386  0.00  0.00    -0.328 OA
ATOM     30  C   UNL d   1     -41.887  13.171  21.301  0.00  0.00     0.181 C 
ENDBRANCH  26  29
ENDBRANCH   3  23
TORSDOF 7
ENDMDL
MODEL 4
REMARK VINA RESULT:      -2.1      5.328      8.397
REMARK  7 active torsions:
REMARK  status: ('A' for Active; 'I' for Inactive)
REMARK    1  A    between atoms: C_3  and  N_1 
REMARK    2  A    between atoms: N_7  and  C_3 
REMARK    3  A    between atoms: C_9  and  C_4 
REMARK    4  A    between atoms: C_10  and  C_5 
REMARK    5  A    between atoms: C_15  and  N_7 
REMARK    6  A    between atoms: O_22  and  C_16 
REMARK    7  A    between atoms: O_23  and  C_17 
ROOT
ATOM      1  N   UNL d   1     -46.858  12.748  22.617  0.00  0.00    -0.203 N 
ATOM      2  N   UNL d   1     -46.135  12.393  22.495  0.00  0.00    -0.163 NA
ATOM      3  C   UNL d   1     -45.616  12.992  22.192  0.00  0.00     0.103 A 
ATOM      4  C   UNL d   1     -46.822  13.527  22.409  0.00  0.00     0.087 A 
ATOM      5  C   UNL d   1     -46.062  13.685  22.147  0.00  0.00     0.040 A 
ENDROOT
BRANCH   1   6
ATOM      6  C   UNL d   1     -47.555  12.354  22.920  0.00  0.00     0.222 C 
ATOM      7  S   UNL d   1     -47.788  12.506  23.697  0.00  0.00    -0.037 SA
BRANCH   6   8
ATOM      8  N   UNL d   1     -47.967  11.838  22.426  0.00  0.00    -0.217 NA
BRANCH   8   9
ATOM      9  C   UNL d   1     -48.771  11.723  22.565  0.00  0.00     0.084 A 
ATOM     10  C   UNL d   1     -49.311  11.871  21.963  0.00  0.00     0.019 A 
ATOM     11  C   UNL d   1     -50.133  11.752  22.111  0.00  0.00     0.002 A 
ATOM     12  C   UNL d   1     -50.386  11.500  22.827  0.00  0.00     0.000 A 
ATOM     13  C   UNL d   1     -49.854  11.349  23.436  0.00  0.00     0.002 A 
ATOM     14  C   UNL d   1     -49.048  11.460  23.307  0.00  0.00     0.019 A 
ENDBRANCH   8   9
ENDBRANCH   6   8
ENDBRANCH   1   6
BRANCH   4  15
ATOM     15  C   UNL d   1     -47.396  14.131  22.424  0.00  0.00     0.018 A 
ATOM     16  C   UNL d   1     -47.753  14.367  21.720  0.00  0.00     0.004 A 
ATOM     17  C   UNL d   1     -48.318  14.961  21.734  0.00  0.00     0.024 A 
ATOM     18  C   UNL d   1     -48.534  15.330  22.458  0.00  0.00     0.094 A 
ATOM     19  C   UNL d   1     -48.161  15.080  23.172  0.00  0.00     0.024 A 
ATOM     20  C   UNL d   1     -47.597  14.482  23.134  0.00  0.00     0.004 A 
BRANCH  18  21
ATOM     21  O   UNL d   1     -49.095  15.916  22.454  0.00  0.00    -0.328 OA
ATOM     22  C   UNL d   1     -49.849  15.779  22.737  0.00  0.00     0.181 C 
ENDBRANCH  18  21
ENDBRANCH   4  15
BRANCH   3  23
ATOM     23  C   UNL d   1     -44.823  12.872  21.991  0.00  0.00     0.019 A 
ATOM     24  C   UNL d   1     -44.464  13.346  21.423  0.00  0.00     0.004 A 
ATOM     25  C   UNL d   1     -43.672  13.232  21.216  0.00  0.00     0.024 A 
ATOM     26  C   UNL d   1     -43.240  12.634  21.586  0.00  0.00     0.094 A 
ATOM     27  C   UNL d   1     -43.610  12.148  22.168  0.00  0.00     0.024 A 
ATOM     28  C   UNL d   1     -44.400  12.267  22.369  0.00  0.00     0.004 A 
BRANCH  26  29
ATOM     29  O   UNL d   1     -42.429  12.524  21.369  0.00  0.00    -0.328 OA
ATOM     30  C   UNL d   1     -41.700  13.164  21.250  0.00  0.00     0.181 C 
ENDBRANCH  26  29
ENDBRANCH   3  23
TORSDOF 7
ENDMDL
