MODEL 1
REMARK VINA RESULT:      45.7      0.000      0.000
REMARK  5 active torsions:
REMARK  status: ('A' for Active; 'I' for Inactive)
REMARK    1  A    between atoms: C_8  and  C_1 
REMARK    2  A    between atoms: N_4  and  C_2 
REMARK       I    between atoms: C_6  and  N_4 
REMARK    3  A    between atoms: C_9  and  C_6 
REMARK    4  A    between atoms: O_20  and  C_15 
REMARK    5  A    between atoms: C_21  and  O_20 
ROOT
ATOM      1  C   UNL d   1      13.858  12.243  -2.601  0.00  0.00     0.177 A 
ATOM      2  C   UNL d   1      14.257  12.944  -2.426  0.00  0.00     0.114 A 
ATOM      3  O   UNL d   1      13.824  11.780  -1.907  0.00  0.00    -0.301 OA
ATOM      4  C   UNL d   1      14.474  12.926  -1.632  0.00  0.00     0.043 A 
ATOM      5  C   UNL d   1      14.200  12.192  -1.307  0.00  0.00     0.102 A 
ATOM      6  C   UNL d   1      14.876  13.460  -1.156  0.00  0.00     0.004 A 
ATOM      7  C   UNL d   1      14.342  12.026  -0.518  0.00  0.00     0.025 A 
ATOM      8  C   UNL d   1      15.020  13.292  -0.356  0.00  0.00     0.000 A 
ATOM      9  C   UNL d   1      14.758  12.586  -0.036  0.00  0.00     0.002 A 
ENDROOT
BRANCH   2  10
ATOM     10  N   UNL d   1      14.407  13.563  -2.986  0.00  0.00    -0.206 NA
ATOM     11  C   UNL d   1      13.802  14.091  -3.182  0.00  0.00     0.279 C 
ATOM     12  O   UNL d   1      13.056  14.031  -2.845  0.00  0.00    -0.265 OA
BRANCH  11  13
ATOM     13  C   UNL d   1      13.949  14.695  -3.728  0.00  0.00     0.058 A 
ATOM     14  C   UNL d   1      13.704  14.603  -4.494  0.00  0.00     0.007 A 
ATOM     15  C   UNL d   1      13.853  15.219  -5.052  0.00  0.00     0.025 A 
ATOM     16  C   UNL d   1      14.242  15.898  -4.808  0.00  0.00     0.100 A 
ATOM     17  C   UNL d   1      14.497  15.998  -4.019  0.00  0.00     0.025 A 
ATOM     18  C   UNL d   1      14.348  15.381  -3.461  0.00  0.00     0.007 A 
BRANCH  16  19
ATOM     19  O   UNL d   1      14.392  16.514  -5.365  0.00  0.00    -0.305 OA
BRANCH  19  20
ATOM     20  C   UNL d   1      13.799  16.748  -5.889  0.00  0.00     0.123 C 
ATOM     21  C   UNL d   1      13.809  17.503  -6.207  0.00  0.00     0.029 C 
ENDBRANCH  19  20
ENDBRANCH  16  19
ENDBRANCH  11  13
ENDBRANCH   2  10
BRANCH   1  22
ATOM     22  C   UNL d   1      13.556  12.063  -3.345  0.00  0.00     0.321 C 
ATOM     23  O   UNL d   1      14.040  12.156  -4.027  0.00  0.00    -0.261 OA
ATOM     24  N   UNL d   1      12.770  11.786  -3.431  0.00  0.00    -0.101 N 
ENDBRANCH   1  22
TORSDOF 5
ENDMDL
