MODEL 1
REMARK VINA RESULT:      -2.4      0.000      0.000
REMARK  8 active torsions:
REMARK  status: ('A' for Active; 'I' for Inactive)
REMARK    1  A    between atoms: C_2  and  N_1 
REMARK    2  A    between atoms: O_17  and  C_3 
REMARK    3  A    between atoms: O_18  and  C_4 
REMARK    4  A    between atoms: O_19  and  C_5 
REMARK    5  A    between atoms: O_21  and  C_6 
REMARK    6  A    between atoms: C_9  and  C_11 
REMARK    7  A    between atoms: C_12  and  C_9 
REMARK    8  A    between atoms: C_11  and  C_15 
ROOT
ATOM      1  C   UNL d   1      32.661  19.806 -22.180  0.00  0.00     0.000 C 
ENDROOT
BRANCH   1   2
ATOM      2  C   UNL d   1      33.235  20.371 -22.004  0.00  0.00     0.000 C 
BRANCH   2   3
ATOM      3  C   UNL d   1      33.034  21.046 -21.564  0.00  0.00     0.002 A 
ATOM      4  C   UNL d   1      32.868  21.743 -21.948  0.00  0.00     0.026 A 
ATOM      5  C   UNL d   1      32.667  22.414 -21.515  0.00  0.00     0.149 A 
ATOM      6  C   UNL d   1      32.634  22.380 -20.689  0.00  0.00     0.116 A 
ATOM      7  C   UNL d   1      32.803  21.670 -20.304  0.00  0.00     0.026 A 
ATOM      8  C   UNL d   1      33.003  20.999 -20.736  0.00  0.00     0.002 A 
BRANCH   5   9
ATOM      9  N   UNL d   1      32.499  23.122 -21.904  0.00  0.00    -0.112 N 
ATOM     10  O   UNL d   1      31.744  23.455 -21.848  0.00  0.00    -0.532 OA
ATOM     11  O   UNL d   1      33.081  23.504 -22.352  0.00  0.00    -0.532 OA
ENDBRANCH   5   9
BRANCH   6  12
ATOM     12  O   UNL d   1      32.433  23.051 -20.248  0.00  0.00    -0.326 OA
ATOM     13  C   UNL d   1      32.444  23.019 -19.421  0.00  0.00     0.181 C 
ENDBRANCH   6  12
ENDBRANCH   2   3
ENDBRANCH   1   2
BRANCH   1  14
ATOM     14  C   UNL d   1      32.790  19.268 -22.795  0.00  0.00     0.004 A 
ATOM     15  C   UNL d   1      32.770  18.457 -22.645  0.00  0.00     0.026 A 
ATOM     16  C   UNL d   1      32.900  17.920 -23.264  0.00  0.00     0.118 A 
ATOM     17  C   UNL d   1      33.049  18.193 -24.025  0.00  0.00     0.138 A 
ATOM     18  C   UNL d   1      33.070  19.004 -24.176  0.00  0.00     0.118 A 
ATOM     19  C   UNL d   1      32.941  19.541 -23.565  0.00  0.00     0.026 A 
BRANCH  16  20
ATOM     20  O   UNL d   1      32.879  17.109 -23.113  0.00  0.00    -0.326 OA
ATOM     21  C   UNL d   1      33.241  16.805 -22.438  0.00  0.00     0.181 C 
ENDBRANCH  16  20
BRANCH  17  22
ATOM     22  O   UNL d   1      33.178  17.657 -24.637  0.00  0.00    -0.324 OA
ATOM     23  C   UNL d   1      32.545  17.394 -25.092  0.00  0.00     0.182 C 
ENDBRANCH  17  22
BRANCH  18  24
ATOM     24  O   UNL d   1      33.219  19.279 -24.938  0.00  0.00    -0.326 OA
ATOM     25  C   UNL d   1      33.188  20.086 -25.096  0.00  0.00     0.181 C 
ENDBRANCH  18  24
ENDBRANCH   1  14
TORSDOF 8
ENDMDL
MODEL 2
REMARK VINA RESULT:      -1.9      1.293      2.305
REMARK  8 active torsions:
REMARK  status: ('A' for Active; 'I' for Inactive)
REMARK    1  A    between atoms: C_2  and  N_1 
REMARK    2  A    between atoms: O_17  and  C_3 
REMARK    3  A    between atoms: O_18  and  C_4 
REMARK    4  A    between atoms: O_19  and  C_5 
REMARK    5  A    between atoms: O_21  and  C_6 
REMARK    6  A    between atoms: C_9  and  C_11 
REMARK    7  A    between atoms: C_12  and  C_9 
REMARK    8  A    between atoms: C_11  and  C_15 
ROOT
ATOM      1  C   UNL d   1      33.228  19.025 -23.195  0.00  0.00     0.000 C 
ENDROOT
BRANCH   1   2
ATOM      2  C   UNL d   1      32.968  19.274 -22.452  0.00  0.00     0.000 C 
BRANCH   2   3
ATOM      3  C   UNL d   1      32.972  20.081 -22.259  0.00  0.00     0.002 A 
ATOM      4  C   UNL d   1      32.738  20.320 -21.518  0.00  0.00     0.026 A 
ATOM      5  C   UNL d   1      32.741  21.120 -21.322  0.00  0.00     0.149 A 
ATOM      6  C   UNL d   1      32.984  21.681 -21.879  0.00  0.00     0.116 A 
ATOM      7  C   UNL d   1      33.221  21.434 -22.629  0.00  0.00     0.026 A 
ATOM      8  C   UNL d   1      33.218  20.635 -22.826  0.00  0.00     0.002 A 
BRANCH   5   9
ATOM      9  N   UNL d   1      32.503  21.362 -20.571  0.00  0.00    -0.112 N 
ATOM     10  O   UNL d   1      31.727  21.622 -20.447  0.00  0.00    -0.532 OA
ATOM     11  O   UNL d   1      33.034  21.348 -19.936  0.00  0.00    -0.532 OA
ENDBRANCH   5   9
BRANCH   6  12
ATOM     12  O   UNL d   1      32.989  22.487 -21.689  0.00  0.00    -0.326 OA
ATOM     13  C   UNL d   1      32.879  23.052 -22.283  0.00  0.00     0.181 C 
ENDBRANCH   6  12
ENDBRANCH   2   3
ENDBRANCH   1   2
BRANCH   1  14
ATOM     14  C   UNL d   1      32.966  18.302 -23.500  0.00  0.00     0.004 A 
ATOM     15  C   UNL d   1      32.454  18.289 -24.146  0.00  0.00     0.026 A 
ATOM     16  C   UNL d   1      32.192  17.562 -24.451  0.00  0.00     0.118 A 
ATOM     17  C   UNL d   1      32.443  16.857 -24.110  0.00  0.00     0.138 A 
ATOM     18  C   UNL d   1      32.956  16.870 -23.463  0.00  0.00     0.118 A 
ATOM     19  C   UNL d   1      33.218  17.588 -23.158  0.00  0.00     0.026 A 
BRANCH  16  20
ATOM     20  O   UNL d   1      31.680  17.550 -25.097  0.00  0.00    -0.326 OA
ATOM     21  C   UNL d   1      31.002  18.019 -25.096  0.00  0.00     0.181 C 
ENDBRANCH  16  20
BRANCH  17  22
ATOM     22  O   UNL d   1      32.182  16.138 -24.414  0.00  0.00    -0.324 OA
ATOM     23  C   UNL d   1      32.565  15.803 -25.061  0.00  0.00     0.182 C 
ENDBRANCH  17  22
BRANCH  18  24
ATOM     24  O   UNL d   1      33.207  16.163 -23.121  0.00  0.00    -0.326 OA
ATOM     25  C   UNL d   1      32.828  15.876 -22.450  0.00  0.00     0.181 C 
ENDBRANCH  18  24
ENDBRANCH   1  14
TORSDOF 8
ENDMDL
MODEL 3
REMARK VINA RESULT:      -1.6      1.302      4.958
REMARK  8 active torsions:
REMARK  status: ('A' for Active; 'I' for Inactive)
REMARK    1  A    between atoms: C_2  and  N_1 
REMARK    2  A    between atoms: O_17  and  C_3 
REMARK    3  A    between atoms: O_18  and  C_4 
REMARK    4  A    between atoms: O_19  and  C_5 
REMARK    5  A    between atoms: O_21  and  C_6 
REMARK    6  A    between atoms: C_9  and  C_11 
REMARK    7  A    between atoms: C_12  and  C_9 
REMARK    8  A    between atoms: C_11  and  C_15 
ROOT
ATOM      1  C   UNL d   1      32.567  20.590 -21.840  0.00  0.00     0.000 C 
ENDROOT
BRANCH   1   2
ATOM      2  C   UNL d   1      33.201  20.219 -22.216  0.00  0.00     0.000 C 
BRANCH   2   3
ATOM      3  C   UNL d   1      33.097  19.473 -22.566  0.00  0.00     0.002 A 
ATOM      4  C   UNL d   1      32.857  19.421 -23.341  0.00  0.00     0.026 A 
ATOM      5  C   UNL d   1      32.754  18.683 -23.691  0.00  0.00     0.149 A 
ATOM      6  C   UNL d   1      32.894  17.994 -23.256  0.00  0.00     0.116 A 
ATOM      7  C   UNL d   1      33.137  18.052 -22.470  0.00  0.00     0.026 A 
ATOM      8  C   UNL d   1      33.241  18.789 -22.118  0.00  0.00     0.002 A 
BRANCH   5   9
ATOM      9  N   UNL d   1      32.510  18.630 -24.478  0.00  0.00    -0.112 N 
ATOM     10  O   UNL d   1      31.750  18.875 -24.692  0.00  0.00    -0.532 OA
ATOM     11  O   UNL d   1      33.021  18.333 -25.057  0.00  0.00    -0.532 OA
ENDBRANCH   5   9
BRANCH   6  12
ATOM     12  O   UNL d   1      32.792  17.249 -23.602  0.00  0.00    -0.326 OA
ATOM     13  C   UNL d   1      32.926  16.565 -23.156  0.00  0.00     0.181 C 
ENDBRANCH   6  12
ENDBRANCH   2   3
ENDBRANCH   1   2
BRANCH   1  14
ATOM     14  C   UNL d   1      32.669  21.344 -21.513  0.00  0.00     0.004 A 
ATOM     15  C   UNL d   1      32.875  21.423 -20.718  0.00  0.00     0.026 A 
ATOM     16  C   UNL d   1      32.976  22.181 -20.393  0.00  0.00     0.118 A 
ATOM     17  C   UNL d   1      32.872  22.849 -20.861  0.00  0.00     0.138 A 
ATOM     18  C   UNL d   1      32.666  22.769 -21.655  0.00  0.00     0.118 A 
ATOM     19  C   UNL d   1      32.564  22.021 -21.983  0.00  0.00     0.026 A 
BRANCH  16  20
ATOM     20  O   UNL d   1      33.182  22.260 -19.598  0.00  0.00    -0.326 OA
ATOM     21  C   UNL d   1      33.228  21.595 -19.115  0.00  0.00     0.181 C 
ENDBRANCH  16  20
BRANCH  17  22
ATOM     22  O   UNL d   1      32.973  23.599 -20.534  0.00  0.00    -0.324 OA
ATOM     23  C   UNL d   1      32.946  23.698 -19.718  0.00  0.00     0.182 C 
ENDBRANCH  17  22
BRANCH  18  24
ATOM     24  O   UNL d   1      32.561  23.439 -22.124  0.00  0.00    -0.326 OA
ATOM     25  C   UNL d   1      33.017  23.539 -22.802  0.00  0.00     0.181 C 
ENDBRANCH  18  24
ENDBRANCH   1  14
TORSDOF 8
ENDMDL
MODEL 4
REMARK VINA RESULT:      -1.2      1.245      1.772
REMARK  8 active torsions:
REMARK  status: ('A' for Active; 'I' for Inactive)
REMARK    1  A    between atoms: C_2  and  N_1 
REMARK    2  A    between atoms: O_17  and  C_3 
REMARK    3  A    between atoms: O_18  and  C_4 
REMARK    4  A    between atoms: O_19  and  C_5 
REMARK    5  A    between atoms: O_21  and  C_6 
REMARK    6  A    between atoms: C_9  and  C_11 
REMARK    7  A    between atoms: C_12  and  C_9 
REMARK    8  A    between atoms: C_11  and  C_15 
ROOT
ATOM      1  C   UNL d   1      32.257  19.258 -22.732  0.00  0.00     0.000 C 
ENDROOT
BRANCH   1   2
ATOM      2  C   UNL d   1      32.967  19.616 -22.511  0.00  0.00     0.000 C 
BRANCH   2   3
ATOM      3  C   UNL d   1      32.986  20.426 -22.333  0.00  0.00     0.002 A 
ATOM      4  C   UNL d   1      32.772  20.682 -21.591  0.00  0.00     0.026 A 
ATOM      5  C   UNL d   1      32.790  21.485 -21.411  0.00  0.00     0.149 A 
ATOM      6  C   UNL d   1      33.025  22.033 -21.984  0.00  0.00     0.116 A 
ATOM      7  C   UNL d   1      33.241  21.770 -22.735  0.00  0.00     0.026 A 
ATOM      8  C   UNL d   1      33.223  20.967 -22.916  0.00  0.00     0.002 A 
BRANCH   5   9
ATOM      9  N   UNL d   1      32.573  21.744 -20.658  0.00  0.00    -0.112 N 
ATOM     10  O   UNL d   1      33.155  21.891 -20.089  0.00  0.00    -0.532 OA
ATOM     11  O   UNL d   1      31.776  21.859 -20.466  0.00  0.00    -0.532 OA
ENDBRANCH   5   9
BRANCH   6  12
ATOM     12  O   UNL d   1      33.044  22.842 -21.809  0.00  0.00    -0.326 OA
ATOM     13  C   UNL d   1      33.190  23.391 -22.412  0.00  0.00     0.181 C 
ENDBRANCH   6  12
ENDBRANCH   2   3
ENDBRANCH   1   2
BRANCH   1  14
ATOM     14  C   UNL d   1      32.270  18.578 -23.203  0.00  0.00     0.004 A 
ATOM     15  C   UNL d   1      32.750  17.941 -22.993  0.00  0.00     0.026 A 
ATOM     16  C   UNL d   1      32.761  17.260 -23.469  0.00  0.00     0.118 A 
ATOM     17  C   UNL d   1      32.296  17.220 -24.146  0.00  0.00     0.138 A 
ATOM     18  C   UNL d   1      31.817  17.858 -24.356  0.00  0.00     0.118 A 
ATOM     19  C   UNL d   1      31.802  18.535 -23.888  0.00  0.00     0.026 A 
BRANCH  16  20
ATOM     20  O   UNL d   1      33.241  16.622 -23.259  0.00  0.00    -0.326 OA
ATOM     21  C   UNL d   1      33.182  16.291 -22.507  0.00  0.00     0.181 C 
ENDBRANCH  16  20
BRANCH  17  22
ATOM     22  O   UNL d   1      32.310  16.543 -24.615  0.00  0.00    -0.324 OA
ATOM     23  C   UNL d   1      31.612  16.138 -24.771  0.00  0.00     0.182 C 
ENDBRANCH  17  22
BRANCH  18  24
ATOM     24  O   UNL d   1      31.351  17.818 -25.034  0.00  0.00    -0.326 OA
ATOM     25  C   UNL d   1      30.642  18.236 -25.069  0.00  0.00     0.181 C 
ENDBRANCH  18  24
ENDBRANCH   1  14
TORSDOF 8
ENDMDL
MODEL 5
REMARK VINA RESULT:      -0.4      1.852      5.072
REMARK  8 active torsions:
REMARK  status: ('A' for Active; 'I' for Inactive)
REMARK    1  A    between atoms: C_2  and  N_1 
REMARK    2  A    between atoms: O_17  and  C_3 
REMARK    3  A    between atoms: O_18  and  C_4 
REMARK    4  A    between atoms: O_19  and  C_5 
REMARK    5  A    between atoms: O_21  and  C_6 
REMARK    6  A    between atoms: C_9  and  C_11 
REMARK    7  A    between atoms: C_12  and  C_9 
REMARK    8  A    between atoms: C_11  and  C_15 
ROOT
ATOM      1  C   UNL d   1      32.363  19.623 -23.025  0.00  0.00     0.000 C 
ENDROOT
BRANCH   1   2
ATOM      2  C   UNL d   1      32.909  19.219 -23.494  0.00  0.00     0.000 C 
BRANCH   2   3
ATOM      3  C   UNL d   1      32.690  18.511 -23.868  0.00  0.00     0.002 A 
ATOM      4  C   UNL d   1      31.941  18.212 -23.762  0.00  0.00     0.026 A 
ATOM      5  C   UNL d   1      31.721  17.510 -24.131  0.00  0.00     0.149 A 
ATOM      6  C   UNL d   1      32.261  17.107 -24.611  0.00  0.00     0.116 A 
ATOM      7  C   UNL d   1      33.020  17.414 -24.716  0.00  0.00     0.026 A 
ATOM      8  C   UNL d   1      33.241  18.116 -24.347  0.00  0.00     0.002 A 
BRANCH   5   9
ATOM      9  N   UNL d   1      30.962  17.207 -24.023  0.00  0.00    -0.112 N 
ATOM     10  O   UNL d   1      30.370  17.367 -24.580  0.00  0.00    -0.532 OA
ATOM     11  O   UNL d   1      30.783  16.744 -23.361  0.00  0.00    -0.532 OA
ENDBRANCH   5   9
BRANCH   6  12
ATOM     12  O   UNL d   1      32.046  16.401 -24.985  0.00  0.00    -0.326 OA
ATOM     13  C   UNL d   1      32.599  15.790 -25.063  0.00  0.00     0.181 C 
ENDBRANCH   6  12
ENDBRANCH   2   3
ENDBRANCH   1   2
BRANCH   1  14
ATOM     14  C   UNL d   1      32.583  20.333 -22.661  0.00  0.00     0.004 A 
ATOM     15  C   UNL d   1      32.710  20.356 -21.846  0.00  0.00     0.026 A 
ATOM     16  C   UNL d   1      32.931  21.069 -21.483  0.00  0.00     0.118 A 
ATOM     17  C   UNL d   1      33.022  21.752 -21.933  0.00  0.00     0.138 A 
ATOM     18  C   UNL d   1      32.894  21.729 -22.748  0.00  0.00     0.118 A 
ATOM     19  C   UNL d   1      32.676  21.024 -23.113  0.00  0.00     0.026 A 
BRANCH  16  20
ATOM     20  O   UNL d   1      33.058  21.092 -20.668  0.00  0.00    -0.326 OA
ATOM     21  C   UNL d   1      33.115  20.391 -20.239  0.00  0.00     0.181 C 
ENDBRANCH  16  20
BRANCH  17  22
ATOM     22  O   UNL d   1      33.240  22.458 -21.570  0.00  0.00    -0.324 OA
ATOM     23  C   UNL d   1      32.708  22.849 -21.080  0.00  0.00     0.182 C 
ENDBRANCH  17  22
BRANCH  18  24
ATOM     24  O   UNL d   1      32.985  22.412 -23.200  0.00  0.00    -0.326 OA
ATOM     25  C   UNL d   1      32.921  22.372 -24.019  0.00  0.00     0.181 C 
ENDBRANCH  18  24
ENDBRANCH   1  14
TORSDOF 8
ENDMDL
