MODEL 1
REMARK VINA RESULT:      24.9      0.000      0.000
REMARK  3 active torsions:
REMARK  status: ('A' for Active; 'I' for Inactive)
REMARK    1  A    between atoms: C_11  and  C_3 
REMARK    2  A    between atoms: O_13  and  C_10 
REMARK    3  A    between atoms: C_21  and  O_13 
ROOT
ATOM      1  C   UNL d   1      45.369 -15.975  44.368  0.00  0.00     0.203 A 
ATOM      2  C   UNL d   1      45.320 -15.154  44.319  0.00  0.00     0.101 A 
ATOM      3  C   UNL d   1      46.033 -16.363  44.073  0.00  0.00     0.064 A 
ATOM      4  C   UNL d   1      45.934 -14.722  43.976  0.00  0.00     0.108 A 
ATOM      5  C   UNL d   1      44.657 -14.765  44.613  0.00  0.00     0.203 A 
ATOM      6  C   UNL d   1      46.647 -15.932  43.731  0.00  0.00     0.126 A 
ATOM      7  O   UNL d   1      46.598 -15.112  43.682  0.00  0.00    -0.305 OA
ATOM      8  C   UNL d   1      45.886 -13.902  43.927  0.00  0.00     0.050 A 
ATOM      9  C   UNL d   1      44.606 -13.941  44.564  0.00  0.00     0.067 A 
ATOM     10  C   UNL d   1      45.220 -13.510  44.222  0.00  0.00     0.105 A 
ATOM     11  O   UNL d   1      44.756 -16.406  44.710  0.00  0.00    -0.286 OA
ATOM     12  O   UNL d   1      44.043 -15.196  44.955  0.00  0.00    -0.286 OA
ENDROOT
BRANCH   3  13
ATOM     13  C   UNL d   1      46.082 -17.184  44.122  0.00  0.00     0.005 A 
ATOM     14  C   UNL d   1      46.160 -17.557  44.865  0.00  0.00     0.003 A 
ATOM     15  C   UNL d   1      46.209 -18.377  44.913  0.00  0.00     0.042 A 
ATOM     16  C   UNL d   1      46.181 -18.837  44.224  0.00  0.00     0.196 A 
ATOM     17  C   UNL d   1      46.103 -18.464  43.482  0.00  0.00     0.042 A 
ATOM     18  O   UNL d   1      46.230 -19.658  44.274  0.00  0.00    -0.287 OA
ATOM     19  C   UNL d   1      46.054 -17.644  43.433  0.00  0.00     0.003 A 
ENDBRANCH   3  13
BRANCH  10  20
ATOM     20  O   UNL d   1      45.167 -12.682  44.174  0.00  0.00    -0.307 OA
BRANCH  20  21
ATOM     21  C   UNL d   1      45.143 -12.304  43.444  0.00  0.00     0.100 C 
ATOM     22  C   UNL d   1      44.418 -12.141  43.083  0.00  0.00     0.027 C 
ATOM     23  C   UNL d   1      45.845 -12.086  43.068  0.00  0.00     0.027 C 
ENDBRANCH  20  21
ENDBRANCH  10  20
TORSDOF 3
ENDMDL
