MODEL 1
REMARK VINA RESULT:      83.1      0.000      0.000
REMARK  4 active torsions:
REMARK  status: ('A' for Active; 'I' for Inactive)
REMARK    1  A    between atoms: C_4  and  C_1 
REMARK    2  A    between atoms: C_9  and  N_2 
REMARK    3  A    between atoms: C_10  and  N_3 
REMARK    4  A    between atoms: O_15  and  C_12 
ROOT
ATOM      1  C   UNL d   1     -51.387  24.452  33.832  0.00  0.00     0.133 A 
ATOM      2  N   UNL d   1     -52.123  24.152  33.646  0.00  0.00    -0.290 N 
ATOM      3  N   UNL d   1     -50.833  23.868  33.681  0.00  0.00    -0.290 N 
ATOM      4  C   UNL d   1     -51.240  23.205  33.400  0.00  0.00     0.101 A 
ATOM      5  C   UNL d   1     -52.004  23.382  33.382  0.00  0.00     0.101 A 
ENDROOT
BRANCH   1   6
ATOM      6  C   UNL d   1     -51.354  25.228  34.115  0.00  0.00     0.036 A 
ATOM      7  C   UNL d   1     -51.144  25.846  33.592  0.00  0.00     0.047 A 
ATOM      8  C   UNL d   1     -51.110  26.621  33.874  0.00  0.00     0.218 A 
ATOM      9  O   UNL d   1     -50.899  27.241  33.349  0.00  0.00    -0.284 OA
ATOM     10  C   UNL d   1     -51.283  26.777  34.663  0.00  0.00     0.133 A 
ATOM     11  C   UNL d   1     -51.490  26.165  35.174  0.00  0.00     0.028 A 
ATOM     12  C   UNL d   1     -51.523  25.394  34.894  0.00  0.00     0.005 A 
BRANCH  10  13
ATOM     13  O   UNL d   1     -51.250  27.566  34.954  0.00  0.00    -0.325 OA
ATOM     14  C   UNL d   1     -50.819  27.728  35.638  0.00  0.00     0.181 C 
ENDBRANCH  10  13
ENDBRANCH   1   6
BRANCH   2  15
ATOM     15  C   UNL d   1     -52.944  24.318  33.618  0.00  0.00     0.066 A 
ATOM     16  C   UNL d   1     -53.208  25.045  33.348  0.00  0.00     0.018 A 
ATOM     17  C   UNL d   1     -54.004  25.226  33.312  0.00  0.00     0.002 A 
ATOM     18  C   UNL d   1     -54.568  24.663  33.556  0.00  0.00     0.000 A 
ATOM     19  C   UNL d   1     -54.308  23.918  33.834  0.00  0.00     0.002 A 
ATOM     20  C   UNL d   1     -53.489  23.751  33.863  0.00  0.00     0.018 A 
ENDBRANCH   2  15
BRANCH   3  21
ATOM     21  C   UNL d   1     -50.013  23.810  33.748  0.00  0.00     0.066 A 
ATOM     22  C   UNL d   1     -49.664  23.254  34.251  0.00  0.00     0.018 A 
ATOM     23  C   UNL d   1     -48.865  23.198  34.316  0.00  0.00     0.002 A 
ATOM     24  C   UNL d   1     -48.359  23.701  33.878  0.00  0.00     0.000 A 
ATOM     25  C   UNL d   1     -48.710  24.259  33.373  0.00  0.00     0.002 A 
ATOM     26  C   UNL d   1     -49.529  24.315  33.307  0.00  0.00     0.018 A 
ENDBRANCH   3  21
TORSDOF 4
ENDMDL
MODEL 2
REMARK VINA RESULT:      84.3      1.694      4.013
REMARK  4 active torsions:
REMARK  status: ('A' for Active; 'I' for Inactive)
REMARK    1  A    between atoms: C_4  and  C_1 
REMARK    2  A    between atoms: C_9  and  N_2 
REMARK    3  A    between atoms: C_10  and  N_3 
REMARK    4  A    between atoms: O_15  and  C_12 
ROOT
ATOM      1  C   UNL d   1     -51.232  25.944  33.687  0.00  0.00     0.133 A 
ATOM      2  N   UNL d   1     -51.082  26.745  33.733  0.00  0.00    -0.290 N 
ATOM      3  N   UNL d   1     -52.044  25.839  33.715  0.00  0.00    -0.290 N 
ATOM      4  C   UNL d   1     -52.390  26.588  33.778  0.00  0.00     0.101 A 
ATOM      5  C   UNL d   1     -51.813  27.119  33.788  0.00  0.00     0.101 A 
ENDROOT
BRANCH   1   6
ATOM      6  C   UNL d   1     -50.580  25.439  33.627  0.00  0.00     0.036 A 
ATOM      7  C   UNL d   1     -50.666  24.633  33.835  0.00  0.00     0.047 A 
ATOM      8  C   UNL d   1     -50.016  24.129  33.775  0.00  0.00     0.218 A 
ATOM      9  O   UNL d   1     -50.102  23.320  33.984  0.00  0.00    -0.284 OA
ATOM     10  C   UNL d   1     -49.293  24.422  33.511  0.00  0.00     0.133 A 
ATOM     11  C   UNL d   1     -49.214  25.216  33.307  0.00  0.00     0.028 A 
ATOM     12  C   UNL d   1     -49.861  25.718  33.367  0.00  0.00     0.005 A 
BRANCH  10  13
ATOM     13  O   UNL d   1     -48.628  23.910  33.448  0.00  0.00    -0.325 OA
ATOM     14  C   UNL d   1     -48.099  23.853  34.078  0.00  0.00     0.181 C 
ENDBRANCH  10  13
ENDBRANCH   1   6
BRANCH   2  15
ATOM     15  C   UNL d   1     -50.483  27.330  33.746  0.00  0.00     0.066 A 
ATOM     16  C   UNL d   1     -49.806  27.217  34.192  0.00  0.00     0.018 A 
ATOM     17  C   UNL d   1     -49.210  27.776  34.218  0.00  0.00     0.002 A 
ATOM     18  C   UNL d   1     -49.286  28.482  33.782  0.00  0.00     0.000 A 
ATOM     19  C   UNL d   1     -49.974  28.607  33.323  0.00  0.00     0.002 A 
ATOM     20  C   UNL d   1     -50.573  28.023  33.309  0.00  0.00     0.018 A 
ENDBRANCH   2  15
BRANCH   3  21
ATOM     21  C   UNL d   1     -52.549  25.187  33.694  0.00  0.00     0.066 A 
ATOM     22  C   UNL d   1     -53.311  25.228  34.012  0.00  0.00     0.018 A 
ATOM     23  C   UNL d   1     -53.803  24.592  33.992  0.00  0.00     0.002 A 
ATOM     24  C   UNL d   1     -53.561  23.868  33.647  0.00  0.00     0.000 A 
ATOM     25  C   UNL d   1     -52.795  23.829  33.328  0.00  0.00     0.002 A 
ATOM     26  C   UNL d   1     -52.292  24.480  33.350  0.00  0.00     0.018 A 
ENDBRANCH   3  21
TORSDOF 4
ENDMDL
