MODEL 1
REMARK VINA RESULT:      -2.7      0.000      0.000
REMARK  3 active torsions:
REMARK  status: ('A' for Active; 'I' for Inactive)
REMARK    1  A    between atoms: N_6  and  C_1 
REMARK    2  A    between atoms: C_7  and  C_2 
REMARK    3  A    between atoms: C_9  and  C_5 
ROOT
ATOM      1  C   UNL d   1      33.223  21.520 -21.547  0.00  0.00     0.189 A 
ATOM      2  C   UNL d   1      33.219  21.743 -22.368  0.00  0.00     0.144 A 
ATOM      3  O   UNL d   1      33.228  20.671 -21.538  0.00  0.00    -0.271 OA
ATOM      4  N   UNL d   1      33.222  21.068 -22.824  0.00  0.00    -0.217 NA
ATOM      5  C   UNL d   1      33.226  20.432 -22.346  0.00  0.00     0.184 A 
ENDROOT
BRANCH   5   6
ATOM      6  C   UNL d   1      33.230  19.675 -22.640  0.00  0.00     0.041 A 
ATOM      7  C   UNL d   1      33.232  19.022 -22.131  0.00  0.00     0.004 A 
ATOM      8  C   UNL d   1      33.235  18.265 -22.455  0.00  0.00     0.011 A 
ATOM      9  C   UNL d   1      33.236  18.148 -23.250  0.00  0.00     0.058 A 
ATOM     10  C   UNL d   1      33.234  18.805 -23.758  0.00  0.00     0.011 A 
ATOM     11 CL   UNL d   1      33.239  17.437 -23.710  0.00  0.00    -0.082 Cl
ATOM     12  C   UNL d   1      33.230  19.573 -23.437  0.00  0.00     0.004 A 
ENDBRANCH   5   6
BRANCH   1  13
ATOM     13  N   UNL d   1      33.221  22.153 -21.131  0.00  0.00    -0.284 N 
ATOM     14  C   UNL d   1      33.219  22.997 -21.081  0.00  0.00     0.082 A 
ATOM     15  C   UNL d   1      33.217  23.358 -20.340  0.00  0.00     0.019 A 
ATOM     16  C   UNL d   1      33.217  22.899 -19.640  0.00  0.00     0.003 A 
ATOM     17  C   UNL d   1      33.219  22.078 -19.682  0.00  0.00     0.019 A 
ATOM     18  C   UNL d   1      33.221  21.694 -20.432  0.00  0.00     0.082 A 
ENDBRANCH   1  13
BRANCH   2  19
ATOM     19  C   UNL d   1      33.215  22.451 -22.447  0.00  0.00     0.145 C 
ATOM     20  N   UNL d   1      33.141  23.191 -23.207  0.00  0.00    -0.145 N 
ENDBRANCH   2  19
TORSDOF 3
ENDMDL
MODEL 2
REMARK VINA RESULT:      -2.7      1.805      4.063
REMARK  3 active torsions:
REMARK  status: ('A' for Active; 'I' for Inactive)
REMARK    1  A    between atoms: N_6  and  C_1 
REMARK    2  A    between atoms: C_7  and  C_2 
REMARK    3  A    between atoms: C_9  and  C_5 
ROOT
ATOM      1  C   UNL d   1      33.046  19.827 -22.827  0.00  0.00     0.189 A 
ATOM      2  C   UNL d   1      33.151  20.551 -23.264  0.00  0.00     0.144 A 
ATOM      3  O   UNL d   1      32.952  20.060 -22.016  0.00  0.00    -0.271 OA
ATOM      4  N   UNL d   1      33.121  21.177 -22.745  0.00  0.00    -0.217 NA
ATOM      5  C   UNL d   1      33.004  20.900 -22.009  0.00  0.00     0.184 A 
ENDROOT
BRANCH   5   6
ATOM      6  C   UNL d   1      32.949  21.396 -21.367  0.00  0.00     0.041 A 
ATOM      7  C   UNL d   1      33.232  21.163 -20.626  0.00  0.00     0.004 A 
ATOM      8  C   UNL d   1      33.164  21.684 -19.992  0.00  0.00     0.011 A 
ATOM      9  C   UNL d   1      32.831  22.410 -20.079  0.00  0.00     0.058 A 
ATOM     10  C   UNL d   1      32.548  22.641 -20.825  0.00  0.00     0.011 A 
ATOM     11 CL   UNL d   1      32.700  23.035 -19.523  0.00  0.00    -0.082 Cl
ATOM     12  C   UNL d   1      32.613  22.119 -21.470  0.00  0.00     0.004 A 
ENDBRANCH   5   6
BRANCH   1  13
ATOM     13  N   UNL d   1      33.076  19.251 -23.317  0.00  0.00    -0.284 N 
ATOM     14  C   UNL d   1      33.162  18.964 -24.107  0.00  0.00     0.082 A 
ATOM     15  C   UNL d   1      33.131  18.152 -24.249  0.00  0.00     0.019 A 
ATOM     16  C   UNL d   1      33.016  17.612 -23.620  0.00  0.00     0.003 A 
ATOM     17  C   UNL d   1      32.932  17.884 -22.849  0.00  0.00     0.019 A 
ATOM     18  C   UNL d   1      32.961  18.711 -22.687  0.00  0.00     0.082 A 
ENDBRANCH   1  13
BRANCH   2  19
ATOM     19  C   UNL d   1      33.237  20.425 -23.960  0.00  0.00     0.145 C 
ATOM     20  N   UNL d   1      33.241  20.939 -24.891  0.00  0.00    -0.145 N 
ENDBRANCH   2  19
TORSDOF 3
ENDMDL
MODEL 3
REMARK VINA RESULT:      -2.6      0.863      1.618
REMARK  3 active torsions:
REMARK  status: ('A' for Active; 'I' for Inactive)
REMARK    1  A    between atoms: N_6  and  C_1 
REMARK    2  A    between atoms: C_7  and  C_2 
REMARK    3  A    between atoms: C_9  and  C_5 
ROOT
ATOM      1  C   UNL d   1      33.129  21.339 -22.004  0.00  0.00     0.189 A 
ATOM      2  C   UNL d   1      33.202  20.812 -21.340  0.00  0.00     0.144 A 
ATOM      3  O   UNL d   1      33.109  20.842 -22.692  0.00  0.00    -0.271 OA
ATOM      4  N   UNL d   1      33.224  20.046 -21.614  0.00  0.00    -0.217 NA
ATOM      5  C   UNL d   1      33.171  20.052 -22.407  0.00  0.00     0.184 A 
ENDROOT
BRANCH   5   6
ATOM      6  C   UNL d   1      33.178  19.365 -22.843  0.00  0.00     0.041 A 
ATOM      7  C   UNL d   1      33.152  18.627 -22.471  0.00  0.00     0.004 A 
ATOM      8  C   UNL d   1      33.161  17.947 -22.936  0.00  0.00     0.011 A 
ATOM      9  C   UNL d   1      33.194  17.986 -23.737  0.00  0.00     0.058 A 
ATOM     10  C   UNL d   1      33.220  18.730 -24.107  0.00  0.00     0.011 A 
ATOM     11 CL   UNL d   1      33.208  17.378 -24.327  0.00  0.00    -0.082 Cl
ATOM     12  C   UNL d   1      33.211  19.421 -23.644  0.00  0.00     0.004 A 
ENDBRANCH   5   6
BRANCH   1  13
ATOM     13  N   UNL d   1      33.109  22.049 -21.741  0.00  0.00    -0.284 N 
ATOM     14  C   UNL d   1      33.088  22.589 -21.091  0.00  0.00     0.082 A 
ATOM     15  C   UNL d   1      33.070  23.400 -21.238  0.00  0.00     0.019 A 
ATOM     16  C   UNL d   1      33.072  23.691 -22.023  0.00  0.00     0.003 A 
ATOM     17  C   UNL d   1      33.092  23.172 -22.660  0.00  0.00     0.019 A 
ATOM     18  C   UNL d   1      33.111  22.340 -22.525  0.00  0.00     0.082 A 
ENDBRANCH   1  13
BRANCH   2  19
ATOM     19  C   UNL d   1      33.224  21.169 -20.724  0.00  0.00     0.145 C 
ATOM     20  N   UNL d   1      33.241  20.995 -19.675  0.00  0.00    -0.145 N 
ENDBRANCH   2  19
TORSDOF 3
ENDMDL
MODEL 4
REMARK VINA RESULT:      -2.5      4.560      5.843
REMARK  3 active torsions:
REMARK  status: ('A' for Active; 'I' for Inactive)
REMARK    1  A    between atoms: N_6  and  C_1 
REMARK    2  A    between atoms: C_7  and  C_2 
REMARK    3  A    between atoms: C_9  and  C_5 
ROOT
ATOM      1  C   UNL d   1      31.413  17.322 -24.347  0.00  0.00     0.189 A 
ATOM      2  C   UNL d   1      31.628  16.654 -23.865  0.00  0.00     0.144 A 
ATOM      3  O   UNL d   1      30.572  17.269 -24.452  0.00  0.00    -0.271 OA
ATOM      4  N   UNL d   1      30.956  16.227 -23.693  0.00  0.00    -0.217 NA
ATOM      5  C   UNL d   1      30.330  16.579 -24.033  0.00  0.00     0.184 A 
ENDROOT
BRANCH   5   6
ATOM      6  C   UNL d   1      29.578  16.280 -23.960  0.00  0.00     0.041 A 
ATOM      7  C   UNL d   1      29.246  15.816 -24.559  0.00  0.00     0.004 A 
ATOM      8  C   UNL d   1      28.482  15.525 -24.460  0.00  0.00     0.011 A 
ATOM      9  C   UNL d   1      28.055  15.683 -23.798  0.00  0.00     0.058 A 
ATOM     10  C   UNL d   1      28.391  16.150 -23.199  0.00  0.00     0.011 A 
ATOM     11 CL   UNL d   1      27.273  15.453 -23.569  0.00  0.00    -0.082 Cl
ATOM     12  C   UNL d   1      29.163  16.447 -23.292  0.00  0.00     0.004 A 
ENDBRANCH   5   6
BRANCH   1  13
ATOM     13  N   UNL d   1      32.042  17.713 -24.502  0.00  0.00    -0.284 N 
ATOM     14  C   UNL d   1      32.885  17.771 -24.511  0.00  0.00     0.082 A 
ATOM     15  C   UNL d   1      33.241  18.458 -24.798  0.00  0.00     0.019 A 
ATOM     16  C   UNL d   1      32.776  19.095 -25.078  0.00  0.00     0.003 A 
ATOM     17  C   UNL d   1      31.956  19.045 -25.073  0.00  0.00     0.019 A 
ATOM     18  C   UNL d   1      31.577  18.350 -24.783  0.00  0.00     0.082 A 
ENDBRANCH   1  13
BRANCH   2  19
ATOM     19  C   UNL d   1      32.328  16.639 -23.738  0.00  0.00     0.145 C 
ATOM     20  N   UNL d   1      33.037  16.158 -23.107  0.00  0.00    -0.145 N 
ENDBRANCH   2  19
TORSDOF 3
ENDMDL
MODEL 5
REMARK VINA RESULT:      -2.2      1.989      4.439
REMARK  3 active torsions:
REMARK  status: ('A' for Active; 'I' for Inactive)
REMARK    1  A    between atoms: N_6  and  C_1 
REMARK    2  A    between atoms: C_7  and  C_2 
REMARK    3  A    between atoms: C_9  and  C_5 
ROOT
ATOM      1  C   UNL d   1      33.001  18.427 -22.959  0.00  0.00     0.189 A 
ATOM      2  C   UNL d   1      33.110  19.116 -23.447  0.00  0.00     0.144 A 
ATOM      3  O   UNL d   1      32.993  18.712 -22.159  0.00  0.00    -0.271 OA
ATOM      4  N   UNL d   1      33.164  19.772 -22.968  0.00  0.00    -0.217 NA
ATOM      5  C   UNL d   1      33.096  19.546 -22.209  0.00  0.00     0.184 A 
ENDROOT
BRANCH   5   6
ATOM      6  C   UNL d   1      33.128  20.081 -21.598  0.00  0.00     0.041 A 
ATOM      7  C   UNL d   1      33.211  19.825 -20.816  0.00  0.00     0.004 A 
ATOM      8  C   UNL d   1      33.241  20.387 -20.215  0.00  0.00     0.011 A 
ATOM      9  C   UNL d   1      33.191  21.174 -20.372  0.00  0.00     0.058 A 
ATOM     10  C   UNL d   1      33.108  21.426 -21.159  0.00  0.00     0.011 A 
ATOM     11 CL   UNL d   1      33.208  21.848 -19.860  0.00  0.00    -0.082 Cl
ATOM     12  C   UNL d   1      33.077  20.864 -21.771  0.00  0.00     0.004 A 
ENDBRANCH   5   6
BRANCH   1  13
ATOM     13  N   UNL d   1      32.952  17.823 -23.412  0.00  0.00    -0.284 N 
ATOM     14  C   UNL d   1      32.839  17.490 -24.181  0.00  0.00     0.082 A 
ATOM     15  C   UNL d   1      32.859  16.671 -24.274  0.00  0.00     0.019 A 
ATOM     16  C   UNL d   1      32.990  16.169 -23.618  0.00  0.00     0.003 A 
ATOM     17  C   UNL d   1      33.101  16.485 -22.867  0.00  0.00     0.019 A 
ATOM     18  C   UNL d   1      33.083  17.320 -22.755  0.00  0.00     0.082 A 
ENDBRANCH   1  13
BRANCH   2  19
ATOM     19  C   UNL d   1      33.126  18.945 -24.139  0.00  0.00     0.145 C 
ATOM     20  N   UNL d   1      33.200  19.405 -25.095  0.00  0.00    -0.145 N 
ENDBRANCH   2  19
TORSDOF 3
ENDMDL
MODEL 6
REMARK VINA RESULT:      -1.4      5.228      6.345
REMARK  3 active torsions:
REMARK  status: ('A' for Active; 'I' for Inactive)
REMARK    1  A    between atoms: N_6  and  C_1 
REMARK    2  A    between atoms: C_7  and  C_2 
REMARK    3  A    between atoms: C_9  and  C_5 
ROOT
ATOM      1  C   UNL d   1      30.978  16.484 -23.964  0.00  0.00     0.189 A 
ATOM      2  C   UNL d   1      30.639  17.151 -24.370  0.00  0.00     0.144 A 
ATOM      3  O   UNL d   1      30.320  16.008 -23.715  0.00  0.00    -0.271 OA
ATOM      4  N   UNL d   1      29.828  17.079 -24.363  0.00  0.00    -0.217 NA
ATOM      5  C   UNL d   1      29.630  16.411 -23.981  0.00  0.00     0.184 A 
ENDROOT
BRANCH   5   6
ATOM      6  C   UNL d   1      28.855  16.187 -23.884  0.00  0.00     0.041 A 
ATOM      7  C   UNL d   1      28.481  16.260 -23.150  0.00  0.00     0.004 A 
ATOM      8  C   UNL d   1      27.695  16.026 -23.078  0.00  0.00     0.011 A 
ATOM      9  C   UNL d   1      27.286  15.729 -23.703  0.00  0.00     0.058 A 
ATOM     10  C   UNL d   1      27.665  15.656 -24.438  0.00  0.00     0.011 A 
ATOM     11 CL   UNL d   1      26.488  15.454 -23.768  0.00  0.00    -0.082 Cl
ATOM     12  C   UNL d   1      28.459  15.891 -24.518  0.00  0.00     0.004 A 
ENDBRANCH   5   6
BRANCH   1  13
ATOM     13  N   UNL d   1      31.731  16.559 -23.975  0.00  0.00    -0.284 N 
ATOM     14  C   UNL d   1      32.422  16.979 -24.220  0.00  0.00     0.082 A 
ATOM     15  C   UNL d   1      33.166  16.701 -23.996  0.00  0.00     0.019 A 
ATOM     16  C   UNL d   1      33.241  16.011 -23.529  0.00  0.00     0.003 A 
ATOM     17  C   UNL d   1      32.573  15.598 -23.286  0.00  0.00     0.019 A 
ATOM     18  C   UNL d   1      31.806  15.868 -23.508  0.00  0.00     0.082 A 
ENDBRANCH   1  13
BRANCH   2  19
ATOM     19  C   UNL d   1      31.143  17.595 -24.607  0.00  0.00     0.145 C 
ATOM     20  N   UNL d   1      31.245  18.536 -25.093  0.00  0.00    -0.145 N 
ENDBRANCH   2  19
TORSDOF 3
ENDMDL
MODEL 7
REMARK VINA RESULT:      -1.2      2.224      3.228
REMARK  3 active torsions:
REMARK  status: ('A' for Active; 'I' for Inactive)
REMARK    1  A    between atoms: N_6  and  C_1 
REMARK    2  A    between atoms: C_7  and  C_2 
REMARK    3  A    between atoms: C_9  and  C_5 
ROOT
ATOM      1  C   UNL d   1      32.804  19.793 -23.802  0.00  0.00     0.189 A 
ATOM      2  C   UNL d   1      32.808  19.453 -23.022  0.00  0.00     0.144 A 
ATOM      3  O   UNL d   1      32.632  19.153 -24.332  0.00  0.00    -0.271 OA
ATOM      4  N   UNL d   1      32.647  18.657 -23.081  0.00  0.00    -0.217 NA
ATOM      5  C   UNL d   1      32.542  18.470 -23.847  0.00  0.00     0.184 A 
ENDROOT
BRANCH   5   6
ATOM      6  C   UNL d   1      32.372  17.711 -24.083  0.00  0.00     0.041 A 
ATOM      7  C   UNL d   1      32.925  17.103 -23.987  0.00  0.00     0.004 A 
ATOM      8  C   UNL d   1      32.729  16.343 -24.235  0.00  0.00     0.011 A 
ATOM      9  C   UNL d   1      32.015  16.181 -24.567  0.00  0.00     0.058 A 
ATOM     10  C   UNL d   1      31.463  16.793 -24.662  0.00  0.00     0.011 A 
ATOM     11 CL   UNL d   1      31.688  15.458 -24.861  0.00  0.00    -0.082 Cl
ATOM     12  C   UNL d   1      31.655  17.564 -24.414  0.00  0.00     0.004 A 
ENDBRANCH   5   6
BRANCH   1  13
ATOM     13  N   UNL d   1      32.955  20.532 -23.737  0.00  0.00    -0.284 N 
ATOM     14  C   UNL d   1      33.105  21.210 -23.255  0.00  0.00     0.082 A 
ATOM     15  C   UNL d   1      33.241  21.940 -23.614  0.00  0.00     0.019 A 
ATOM     16  C   UNL d   1      33.231  22.015 -24.448  0.00  0.00     0.003 A 
ATOM     17  C   UNL d   1      33.085  21.360 -24.923  0.00  0.00     0.019 A 
ATOM     18  C   UNL d   1      32.945  20.607 -24.571  0.00  0.00     0.082 A 
ENDBRANCH   1  13
BRANCH   2  19
ATOM     19  C   UNL d   1      32.949  19.943 -22.524  0.00  0.00     0.145 C 
ATOM     20  N   UNL d   1      33.111  20.024 -21.476  0.00  0.00    -0.145 N 
ENDBRANCH   2  19
TORSDOF 3
ENDMDL
MODEL 8
REMARK VINA RESULT:      -0.3      2.488      4.373
REMARK  3 active torsions:
REMARK  status: ('A' for Active; 'I' for Inactive)
REMARK    1  A    between atoms: N_6  and  C_1 
REMARK    2  A    between atoms: C_7  and  C_2 
REMARK    3  A    between atoms: C_9  and  C_5 
ROOT
ATOM      1  C   UNL d   1      32.894  22.036 -21.694  0.00  0.00     0.189 A 
ATOM      2  C   UNL d   1      33.145  21.328 -21.293  0.00  0.00     0.144 A 
ATOM      3  O   UNL d   1      32.802  22.623 -21.088  0.00  0.00    -0.271 OA
ATOM      4  N   UNL d   1      33.201  21.483 -20.496  0.00  0.00    -0.217 NA
ATOM      5  C   UNL d   1      33.002  22.241 -20.364  0.00  0.00     0.184 A 
ENDROOT
BRANCH   5   6
ATOM      6  C   UNL d   1      33.004  22.562 -19.617  0.00  0.00     0.041 A 
ATOM      7  C   UNL d   1      33.207  22.103 -18.959  0.00  0.00     0.004 A 
ATOM      8  C   UNL d   1      33.201  22.452 -18.213  0.00  0.00     0.011 A 
ATOM      9  C   UNL d   1      33.005  23.224 -18.112  0.00  0.00     0.058 A 
ATOM     10  C   UNL d   1      32.802  23.682 -18.775  0.00  0.00     0.011 A 
ATOM     11 CL   UNL d   1      32.958  23.702 -17.415  0.00  0.00    -0.082 Cl
ATOM     12  C   UNL d   1      32.805  23.336 -19.531  0.00  0.00     0.004 A 
ENDBRANCH   5   6
BRANCH   1  13
ATOM     13  N   UNL d   1      32.844  21.883 -22.434  0.00  0.00    -0.284 N 
ATOM     14  C   UNL d   1      32.648  21.351 -23.061  0.00  0.00     0.082 A 
ATOM     15  C   UNL d   1      32.751  21.591 -23.843  0.00  0.00     0.019 A 
ATOM     16  C   UNL d   1      33.046  22.354 -24.020  0.00  0.00     0.003 A 
ATOM     17  C   UNL d   1      33.239  22.877 -23.415  0.00  0.00     0.019 A 
ATOM     18  C   UNL d   1      33.140  22.646 -22.611  0.00  0.00     0.082 A 
ENDBRANCH   1  13
BRANCH   2  19
ATOM     19  C   UNL d   1      33.241  20.790 -21.750  0.00  0.00     0.145 C 
ATOM     20  N   UNL d   1      33.240  19.726 -21.776  0.00  0.00    -0.145 N 
ENDBRANCH   2  19
TORSDOF 3
ENDMDL
