MODEL 1
REMARK VINA RESULT:      -3.8      0.000      0.000
REMARK  0 active torsions:
REMARK  status: ('A' for Active; 'I' for Inactive)
ROOT
ATOM      1  C   UNL d   1      30.842  17.218 -24.422  0.00  0.00     0.106 A 
ATOM      2  O   UNL d   1      30.214  17.627 -24.753  0.00  0.00    -0.273 OA
ATOM      3  C   UNL d   1      29.437  17.389 -24.589  0.00  0.00     0.300 A 
ATOM      4  C   UNL d   1      29.934  16.337 -23.763  0.00  0.00     0.007 A 
ATOM      5  C   UNL d   1      30.701  16.570 -23.924  0.00  0.00     0.023 A 
ATOM      6  C   UNL d   1      29.297  16.744 -24.094  0.00  0.00     0.064 A 
ATOM      7  C   UNL d   1      31.614  17.454 -24.584  0.00  0.00     0.062 A 
ATOM      8  C   UNL d   1      31.334  16.163 -23.594  0.00  0.00     0.005 A 
ATOM      9  C   UNL d   1      32.250  17.041 -24.249  0.00  0.00     0.198 A 
ATOM     10  O   UNL d   1      28.793  17.803 -24.925  0.00  0.00    -0.259 OA
ATOM     11  C   UNL d   1      32.110  16.395 -23.753  0.00  0.00     0.042 A 
ATOM     12  C   UNL d   1      29.794  15.689 -23.266  0.00  0.00     0.000 A 
ATOM     13  C   UNL d   1      28.526  16.511 -23.934  0.00  0.00     0.005 A 
ATOM     14  O   UNL d   1      33.031  17.278 -24.412  0.00  0.00    -0.286 OA
ATOM     15  C   UNL d   1      31.751  18.086 -25.069  0.00  0.00     0.005 C 
ATOM     16  C   UNL d   1      29.021  15.453 -23.103  0.00  0.00     0.000 A 
ATOM     17  C   UNL d   1      28.373  15.865 -23.438  0.00  0.00     0.000 A 
ENDROOT
TORSDOF 0
ENDMDL
MODEL 2
REMARK VINA RESULT:      -3.7      0.854      2.896
REMARK  0 active torsions:
REMARK  status: ('A' for Active; 'I' for Inactive)
ROOT
ATOM      1  C   UNL d   1      29.925  16.708 -23.984  0.00  0.00     0.106 A 
ATOM      2  O   UNL d   1      30.298  17.330 -24.365  0.00  0.00    -0.273 OA
ATOM      3  C   UNL d   1      31.126  17.353 -24.400  0.00  0.00     0.300 A 
ATOM      4  C   UNL d   1      31.190  16.128 -23.671  0.00  0.00     0.007 A 
ATOM      5  C   UNL d   1      30.374  16.103 -23.635  0.00  0.00     0.023 A 
ATOM      6  C   UNL d   1      31.572  16.751 -24.053  0.00  0.00     0.064 A 
ATOM      7  C   UNL d   1      29.103  16.685 -23.949  0.00  0.00     0.062 A 
ATOM      8  C   UNL d   1      29.995  15.482 -23.255  0.00  0.00     0.005 A 
ATOM      9  C   UNL d   1      28.725  16.055 -23.564  0.00  0.00     0.198 A 
ATOM     10  O   UNL d   1      31.511  17.986 -24.788  0.00  0.00    -0.259 OA
ATOM     11  C   UNL d   1      29.171  15.453 -23.216  0.00  0.00     0.042 A 
ATOM     12  C   UNL d   1      31.638  15.524 -23.323  0.00  0.00     0.000 A 
ATOM     13  C   UNL d   1      32.392  16.778 -24.090  0.00  0.00     0.005 A 
ATOM     14  O   UNL d   1      27.893  16.031 -23.527  0.00  0.00    -0.286 OA
ATOM     15  C   UNL d   1      28.666  17.274 -24.289  0.00  0.00     0.005 C 
ATOM     16  C   UNL d   1      32.461  15.547 -23.358  0.00  0.00     0.000 A 
ATOM     17  C   UNL d   1      32.851  16.179 -23.746  0.00  0.00     0.000 A 
ENDROOT
TORSDOF 0
ENDMDL
MODEL 3
REMARK VINA RESULT:      -3.4      1.140      1.772
REMARK  0 active torsions:
REMARK  status: ('A' for Active; 'I' for Inactive)
ROOT
ATOM      1  C   UNL d   1      31.513  16.925 -23.947  0.00  0.00     0.106 A 
ATOM      2  O   UNL d   1      31.347  16.327 -23.412  0.00  0.00    -0.273 OA
ATOM      3  C   UNL d   1      30.567  16.063 -23.320  0.00  0.00     0.300 A 
ATOM      4  C   UNL d   1      30.134  17.004 -24.302  0.00  0.00     0.007 A 
ATOM      5  C   UNL d   1      30.903  17.266 -24.394  0.00  0.00     0.023 A 
ATOM      6  C   UNL d   1      29.960  16.403 -23.765  0.00  0.00     0.064 A 
ATOM      7  C   UNL d   1      32.288  17.187 -24.039  0.00  0.00     0.062 A 
ATOM      8  C   UNL d   1      31.075  17.865 -24.929  0.00  0.00     0.005 A 
ATOM      9  C   UNL d   1      32.457  17.792 -24.580  0.00  0.00     0.198 A 
ATOM     10  O   UNL d   1      30.392  15.454 -22.775  0.00  0.00    -0.259 OA
ATOM     11  C   UNL d   1      31.850  18.131 -25.025  0.00  0.00     0.042 A 
ATOM     12  C   UNL d   1      29.525  17.345 -24.749  0.00  0.00     0.000 A 
ATOM     13  C   UNL d   1      29.188  16.139 -23.671  0.00  0.00     0.005 A 
ATOM     14  O   UNL d   1      33.241  18.058 -24.674  0.00  0.00    -0.286 OA
ATOM     15  C   UNL d   1      32.883  16.855 -23.603  0.00  0.00     0.005 C 
ATOM     16  C   UNL d   1      28.749  17.083 -24.657  0.00  0.00     0.000 A 
ATOM     17  C   UNL d   1      28.570  16.472 -24.112  0.00  0.00     0.000 A 
ENDROOT
TORSDOF 0
ENDMDL
MODEL 4
REMARK VINA RESULT:      -3.1      5.389      6.418
REMARK  0 active torsions:
REMARK  status: ('A' for Active; 'I' for Inactive)
ROOT
ATOM      1  C   UNL d   1      33.062  21.287 -22.185  0.00  0.00     0.106 A 
ATOM      2  O   UNL d   1      33.065  21.947 -22.670  0.00  0.00    -0.273 OA
ATOM      3  C   UNL d   1      32.976  22.701 -22.339  0.00  0.00     0.300 A 
ATOM      4  C   UNL d   1      32.881  22.118 -21.040  0.00  0.00     0.007 A 
ATOM      5  C   UNL d   1      32.969  21.374 -21.364  0.00  0.00     0.023 A 
ATOM      6  C   UNL d   1      32.884  22.787 -21.523  0.00  0.00     0.064 A 
ATOM      7  C   UNL d   1      33.151  20.537 -22.513  0.00  0.00     0.062 A 
ATOM      8  C   UNL d   1      32.967  20.709 -20.882  0.00  0.00     0.005 A 
ATOM      9  C   UNL d   1      33.148  19.869 -22.022  0.00  0.00     0.198 A 
ATOM     10  O   UNL d   1      32.978  23.377 -22.831  0.00  0.00    -0.259 OA
ATOM     11  C   UNL d   1      33.056  19.955 -21.205  0.00  0.00     0.042 A 
ATOM     12  C   UNL d   1      32.789  22.205 -20.220  0.00  0.00     0.000 A 
ATOM     13  C   UNL d   1      32.795  23.536 -21.198  0.00  0.00     0.005 A 
ATOM     14  O   UNL d   1      33.237  19.111 -22.353  0.00  0.00    -0.286 OA
ATOM     15  C   UNL d   1      33.241  20.453 -23.312  0.00  0.00     0.005 C 
ATOM     16  C   UNL d   1      32.700  22.955 -19.891  0.00  0.00     0.000 A 
ATOM     17  C   UNL d   1      32.702  23.635 -20.381  0.00  0.00     0.000 A 
ENDROOT
TORSDOF 0
ENDMDL
MODEL 5
REMARK VINA RESULT:      -2.9      3.942      5.168
REMARK  0 active torsions:
REMARK  status: ('A' for Active; 'I' for Inactive)
ROOT
ATOM      1  C   UNL d   1      33.229  20.012 -23.173  0.00  0.00     0.106 A 
ATOM      2  O   UNL d   1      33.233  20.789 -23.431  0.00  0.00    -0.273 OA
ATOM      3  C   UNL d   1      33.237  21.406 -22.877  0.00  0.00     0.300 A 
ATOM      4  C   UNL d   1      33.232  20.452 -21.816  0.00  0.00     0.007 A 
ATOM      5  C   UNL d   1      33.228  19.842 -22.360  0.00  0.00     0.023 A 
ATOM      6  C   UNL d   1      33.236  21.237 -22.069  0.00  0.00     0.064 A 
ATOM      7  C   UNL d   1      33.226  19.398 -23.722  0.00  0.00     0.062 A 
ATOM      8  C   UNL d   1      33.224  19.061 -22.107  0.00  0.00     0.005 A 
ATOM      9  C   UNL d   1      33.222  18.612 -23.461  0.00  0.00     0.198 A 
ATOM     10  O   UNL d   1      33.241  22.201 -23.136  0.00  0.00    -0.259 OA
ATOM     11  C   UNL d   1      33.221  18.443 -22.653  0.00  0.00     0.042 A 
ATOM     12  C   UNL d   1      33.231  20.282 -21.005  0.00  0.00     0.000 A 
ATOM     13  C   UNL d   1      33.239  21.851 -21.524  0.00  0.00     0.005 A 
ATOM     14  O   UNL d   1      33.218  17.991 -24.016  0.00  0.00    -0.286 OA
ATOM     15  C   UNL d   1      33.227  19.564 -24.514  0.00  0.00     0.005 C 
ATOM     16  C   UNL d   1      33.234  20.896 -20.455  0.00  0.00     0.000 A 
ATOM     17  C   UNL d   1      33.238  21.694 -20.710  0.00  0.00     0.000 A 
ENDROOT
TORSDOF 0
ENDMDL
MODEL 6
REMARK VINA RESULT:      -2.9      4.145      5.277
REMARK  0 active torsions:
REMARK  status: ('A' for Active; 'I' for Inactive)
ROOT
ATOM      1  C   UNL d   1      33.233  21.126 -22.409  0.00  0.00     0.106 A 
ATOM      2  O   UNL d   1      33.233  21.171 -23.226  0.00  0.00    -0.273 OA
ATOM      3  C   UNL d   1      33.234  20.475 -23.676  0.00  0.00     0.300 A 
ATOM      4  C   UNL d   1      33.234  19.701 -22.477  0.00  0.00     0.007 A 
ATOM      5  C   UNL d   1      33.233  20.386 -22.032  0.00  0.00     0.023 A 
ATOM      6  C   UNL d   1      33.235  19.739 -23.301  0.00  0.00     0.064 A 
ATOM      7  C   UNL d   1      33.232  21.817 -21.960  0.00  0.00     0.062 A 
ATOM      8  C   UNL d   1      33.233  20.347 -21.211  0.00  0.00     0.005 A 
ATOM      9  C   UNL d   1      33.231  21.772 -21.133  0.00  0.00     0.198 A 
ATOM     10  O   UNL d   1      33.234  20.516 -24.511  0.00  0.00    -0.259 OA
ATOM     11  C   UNL d   1      33.232  21.036 -20.758  0.00  0.00     0.042 A 
ATOM     12  C   UNL d   1      33.235  18.963 -22.101  0.00  0.00     0.000 A 
ATOM     13  C   UNL d   1      33.236  19.052 -23.750  0.00  0.00     0.005 A 
ATOM     14  O   UNL d   1      33.230  22.470 -20.679  0.00  0.00    -0.286 OA
ATOM     15  C   UNL d   1      33.231  22.537 -22.328  0.00  0.00     0.005 C 
ATOM     16  C   UNL d   1      33.236  18.271 -22.548  0.00  0.00     0.000 A 
ATOM     17  C   UNL d   1      33.236  18.308 -23.385  0.00  0.00     0.000 A 
ENDROOT
TORSDOF 0
ENDMDL
MODEL 7
REMARK VINA RESULT:      -2.6      1.445      2.200
REMARK  0 active torsions:
REMARK  status: ('A' for Active; 'I' for Inactive)
ROOT
ATOM      1  C   UNL d   1      32.006  17.524 -24.004  0.00  0.00     0.106 A 
ATOM      2  O   UNL d   1      32.100  16.912 -23.468  0.00  0.00    -0.273 OA
ATOM      3  C   UNL d   1      31.562  16.282 -23.466  0.00  0.00     0.300 A 
ATOM      4  C   UNL d   1      30.846  16.891 -24.539  0.00  0.00     0.007 A 
ATOM      5  C   UNL d   1      31.375  17.514 -24.543  0.00  0.00     0.023 A 
ATOM      6  C   UNL d   1      30.934  16.271 -24.002  0.00  0.00     0.064 A 
ATOM      7  C   UNL d   1      32.540  18.151 -24.007  0.00  0.00     0.062 A 
ATOM      8  C   UNL d   1      31.286  18.130 -25.079  0.00  0.00     0.005 A 
ATOM      9  C   UNL d   1      32.446  18.771 -24.549  0.00  0.00     0.198 A 
ATOM     10  O   UNL d   1      31.654  15.655 -22.921  0.00  0.00    -0.259 OA
ATOM     11  C   UNL d   1      31.818  18.760 -25.085  0.00  0.00     0.042 A 
ATOM     12  C   UNL d   1      30.216  16.880 -25.078  0.00  0.00     0.000 A 
ATOM     13  C   UNL d   1      30.404  15.645 -23.997  0.00  0.00     0.005 A 
ATOM     14  O   UNL d   1      32.985  19.405 -24.552  0.00  0.00    -0.286 OA
ATOM     15  C   UNL d   1      33.155  18.161 -23.481  0.00  0.00     0.005 C 
ATOM     16  C   UNL d   1      29.681  16.253 -25.076  0.00  0.00     0.000 A 
ATOM     17  C   UNL d   1      29.769  15.623 -24.531  0.00  0.00     0.000 A 
ENDROOT
TORSDOF 0
ENDMDL
MODEL 8
REMARK VINA RESULT:      -2.3      5.660      7.073
REMARK  0 active torsions:
REMARK  status: ('A' for Active; 'I' for Inactive)
ROOT
ATOM      1  C   UNL d   1      33.060  21.993 -21.444  0.00  0.00     0.106 A 
ATOM      2  O   UNL d   1      33.119  21.293 -21.865  0.00  0.00    -0.273 OA
ATOM      3  C   UNL d   1      33.178  21.315 -22.692  0.00  0.00     0.300 A 
ATOM      4  C   UNL d   1      33.120  22.741 -22.657  0.00  0.00     0.007 A 
ATOM      5  C   UNL d   1      33.061  22.721 -21.842  0.00  0.00     0.023 A 
ATOM      6  C   UNL d   1      33.179  22.040 -23.088  0.00  0.00     0.064 A 
ATOM      7  C   UNL d   1      33.001  21.973 -20.623  0.00  0.00     0.062 A 
ATOM      8  C   UNL d   1      33.002  23.420 -21.415  0.00  0.00     0.005 A 
ATOM      9  C   UNL d   1      32.942  22.681 -20.196  0.00  0.00     0.198 A 
ATOM     10  O   UNL d   1      33.238  20.603 -23.126  0.00  0.00    -0.259 OA
ATOM     11  C   UNL d   1      32.943  23.406 -20.592  0.00  0.00     0.042 A 
ATOM     12  C   UNL d   1      33.121  23.468 -23.055  0.00  0.00     0.000 A 
ATOM     13  C   UNL d   1      33.239  22.057 -23.906  0.00  0.00     0.005 A 
ATOM     14  O   UNL d   1      32.882  22.661 -19.366  0.00  0.00    -0.286 OA
ATOM     15  C   UNL d   1      33.000  21.263 -20.235  0.00  0.00     0.005 C 
ATOM     16  C   UNL d   1      33.180  23.489 -23.877  0.00  0.00     0.000 A 
ATOM     17  C   UNL d   1      33.241  22.778 -24.316  0.00  0.00     0.000 A 
ENDROOT
TORSDOF 0
ENDMDL
MODEL 9
REMARK VINA RESULT:      -2.2      3.200      4.055
REMARK  0 active torsions:
REMARK  status: ('A' for Active; 'I' for Inactive)
ROOT
ATOM      1  C   UNL d   1      33.215  17.964 -23.910  0.00  0.00     0.106 A 
ATOM      2  O   UNL d   1      33.220  18.544 -24.488  0.00  0.00    -0.273 OA
ATOM      3  C   UNL d   1      33.228  19.344 -24.268  0.00  0.00     0.300 A 
ATOM      4  C   UNL d   1      33.225  18.964 -22.892  0.00  0.00     0.007 A 
ATOM      5  C   UNL d   1      33.217  18.175 -23.107  0.00  0.00     0.023 A 
ATOM      6  C   UNL d   1      33.231  19.553 -23.469  0.00  0.00     0.064 A 
ATOM      7  C   UNL d   1      33.207  17.170 -24.127  0.00  0.00     0.062 A 
ATOM      8  C   UNL d   1      33.211  17.589 -22.531  0.00  0.00     0.005 A 
ATOM      9  C   UNL d   1      33.201  16.582 -23.543  0.00  0.00     0.198 A 
ATOM     10  O   UNL d   1      33.234  19.939 -24.855  0.00  0.00    -0.259 OA
ATOM     11  C   UNL d   1      33.204  16.792 -22.744  0.00  0.00     0.042 A 
ATOM     12  C   UNL d   1      33.227  19.174 -22.091  0.00  0.00     0.000 A 
ATOM     13  C   UNL d   1      33.238  20.346 -23.256  0.00  0.00     0.005 A 
ATOM     14  O   UNL d   1      33.193  15.779 -23.762  0.00  0.00    -0.286 OA
ATOM     15  C   UNL d   1      33.205  16.965 -24.910  0.00  0.00     0.005 C 
ATOM     16  C   UNL d   1      33.235  19.969 -21.872  0.00  0.00     0.000 A 
ATOM     17  C   UNL d   1      33.241  20.569 -22.457  0.00  0.00     0.000 A 
ENDROOT
TORSDOF 0
ENDMDL
