MODEL 1
REMARK VINA RESULT:      46.4      0.000      0.000
REMARK  4 active torsions:
REMARK  status: ('A' for Active; 'I' for Inactive)
REMARK    1  A    between atoms: C_5  and  N_1 
REMARK       I    between atoms: C_2  and  N_3 
REMARK    2  A    between atoms: C_6  and  C_2 
REMARK    3  A    between atoms: N_3  and  C_4 
REMARK    4  A    between atoms: O_18  and  C_11 
ROOT
ATOM      1  C   UNL d   1     -51.339  26.371  34.088  0.00  0.00     0.108 A 
ATOM      2  C   UNL d   1     -50.055  26.858  34.081  0.00  0.00     0.128 A 
ATOM      3  C   UNL d   1     -50.556  26.273  34.286  0.00  0.00     0.045 A 
ATOM      4  C   UNL d   1     -51.602  27.019  33.706  0.00  0.00     0.112 A 
ATOM      5  C   UNL d   1     -50.259  27.507  33.710  0.00  0.00     0.026 A 
ATOM      6  C   UNL d   1     -51.053  27.619  33.503  0.00  0.00     0.027 A 
ENDROOT
BRANCH   1   7
ATOM      7  N   UNL d   1     -51.921  25.737  34.303  0.00  0.00    -0.204 NA
ATOM      8  C   UNL d   1     -51.877  25.013  33.889  0.00  0.00     0.302 C 
ATOM      9  O   UNL d   1     -51.297  24.935  33.309  0.00  0.00    -0.263 OA
BRANCH   8  10
ATOM     10  C   UNL d   1     -52.392  24.385  34.045  0.00  0.00     0.158 A 
ATOM     11  O   UNL d   1     -52.988  24.331  34.616  0.00  0.00    -0.300 OA
ATOM     12  C   UNL d   1     -53.339  23.578  34.533  0.00  0.00     0.123 A 
ATOM     13  C   UNL d   1     -52.939  23.190  33.903  0.00  0.00     0.029 A 
ATOM     14  C   UNL d   1     -52.379  23.699  33.633  0.00  0.00     0.032 A 
ENDBRANCH   8  10
ENDBRANCH   1   7
BRANCH   4  15
ATOM     15  O   UNL d   1     -52.396  27.130  33.499  0.00  0.00    -0.327 OA
ATOM     16  C   UNL d   1     -52.674  27.939  33.311  0.00  0.00     0.181 C 
ENDBRANCH   4  15
BRANCH   2  17
ATOM     17  N   UNL d   1     -49.196  26.743  34.303  0.00  0.00    -0.114 N 
ATOM     18  O   UNL d   1     -48.778  27.330  34.780  0.00  0.00    -0.532 OA
ATOM     19  O   UNL d   1     -48.812  26.046  34.033  0.00  0.00    -0.532 OA
ENDBRANCH   2  17
TORSDOF 4
ENDMDL
MODEL 2
REMARK VINA RESULT:      48.6      1.543      3.745
REMARK  4 active torsions:
REMARK  status: ('A' for Active; 'I' for Inactive)
REMARK    1  A    between atoms: C_5  and  N_1 
REMARK       I    between atoms: C_2  and  N_3 
REMARK    2  A    between atoms: C_6  and  C_2 
REMARK    3  A    between atoms: N_3  and  C_4 
REMARK    4  A    between atoms: O_18  and  C_11 
ROOT
ATOM      1  C   UNL d   1     -50.460  26.109  33.464  0.00  0.00     0.108 A 
ATOM      2  C   UNL d   1     -50.621  24.746  33.408  0.00  0.00     0.128 A 
ATOM      3  C   UNL d   1     -50.125  25.367  33.480  0.00  0.00     0.045 A 
ATOM      4  C   UNL d   1     -51.243  26.219  33.381  0.00  0.00     0.112 A 
ATOM      5  C   UNL d   1     -51.389  24.799  33.326  0.00  0.00     0.026 A 
ATOM      6  C   UNL d   1     -51.741  25.549  33.308  0.00  0.00     0.027 A 
ENDROOT
BRANCH   1   7
ATOM      7  N   UNL d   1     -49.935  26.819  33.541  0.00  0.00    -0.204 NA
ATOM      8  C   UNL d   1     -49.678  27.032  34.307  0.00  0.00     0.302 C 
ATOM      9  O   UNL d   1     -49.929  26.568  34.939  0.00  0.00    -0.263 OA
BRANCH   8  10
ATOM     10  C   UNL d   1     -49.187  27.684  34.441  0.00  0.00     0.158 A 
ATOM     11  O   UNL d   1     -49.392  28.480  34.526  0.00  0.00    -0.300 OA
ATOM     12  C   UNL d   1     -48.684  28.904  34.651  0.00  0.00     0.123 A 
ATOM     13  C   UNL d   1     -48.058  28.342  34.638  0.00  0.00     0.029 A 
ATOM     14  C   UNL d   1     -48.392  27.623  34.511  0.00  0.00     0.032 A 
ENDBRANCH   8  10
ENDBRANCH   1   7
BRANCH   4  15
ATOM     15  O   UNL d   1     -51.595  26.969  33.363  0.00  0.00    -0.327 OA
ATOM     16  C   UNL d   1     -52.369  27.083  33.758  0.00  0.00     0.181 C 
ENDBRANCH   4  15
BRANCH   2  17
ATOM     17  N   UNL d   1     -50.246  23.934  33.427  0.00  0.00    -0.114 N 
ATOM     18  O   UNL d   1     -49.398  23.841  33.565  0.00  0.00    -0.532 OA
ATOM     19  O   UNL d   1     -50.745  23.269  33.307  0.00  0.00    -0.532 OA
ENDBRANCH   2  17
TORSDOF 4
ENDMDL
MODEL 3
REMARK VINA RESULT:      49.0      5.337      7.344
REMARK  4 active torsions:
REMARK  status: ('A' for Active; 'I' for Inactive)
REMARK    1  A    between atoms: C_5  and  N_1 
REMARK       I    between atoms: C_2  and  N_3 
REMARK    2  A    between atoms: C_6  and  C_2 
REMARK    3  A    between atoms: N_3  and  C_4 
REMARK    4  A    between atoms: O_18  and  C_11 
ROOT
ATOM      1  C   UNL d   1     -47.317  30.727  35.374  0.00  0.00     0.108 A 
ATOM      2  C   UNL d   1     -47.773  29.442  35.537  0.00  0.00     0.128 A 
ATOM      3  C   UNL d   1     -47.707  30.082  35.066  0.00  0.00     0.045 A 
ATOM      4  C   UNL d   1     -47.012  30.728  36.109  0.00  0.00     0.112 A 
ATOM      5  C   UNL d   1     -47.495  29.391  36.259  0.00  0.00     0.026 A 
ATOM      6  C   UNL d   1     -47.097  30.041  36.582  0.00  0.00     0.027 A 
ENDROOT
BRANCH   1   7
ATOM      7  N   UNL d   1     -47.227  31.454  34.874  0.00  0.00    -0.204 NA
ATOM      8  C   UNL d   1     -47.914  31.769  34.518  0.00  0.00     0.302 C 
ATOM      9  O   UNL d   1     -48.629  31.384  34.655  0.00  0.00    -0.263 OA
BRANCH   8  10
ATOM     10  C   UNL d   1     -47.892  32.445  34.042  0.00  0.00     0.158 A 
ATOM     11  O   UNL d   1     -47.238  32.873  33.776  0.00  0.00    -0.300 OA
ATOM     12  C   UNL d   1     -47.528  33.505  33.314  0.00  0.00     0.123 A 
ATOM     13  C   UNL d   1     -48.367  33.440  33.312  0.00  0.00     0.029 A 
ATOM     14  C   UNL d   1     -48.552  32.797  33.756  0.00  0.00     0.032 A 
ENDBRANCH   8  10
ENDBRANCH   1   7
BRANCH   4  15
ATOM     15  O   UNL d   1     -46.614  31.378  36.433  0.00  0.00    -0.327 OA
ATOM     16  C   UNL d   1     -46.121  31.258  37.147  0.00  0.00     0.181 C 
ENDBRANCH   4  15
BRANCH   2  17
ATOM     17  N   UNL d   1     -48.202  28.737  35.192  0.00  0.00    -0.114 N 
ATOM     18  O   UNL d   1     -48.041  28.471  34.386  0.00  0.00    -0.532 OA
ATOM     19  O   UNL d   1     -48.766  28.345  35.677  0.00  0.00    -0.532 OA
ENDBRANCH   2  17
TORSDOF 4
ENDMDL
