MODEL 1
REMARK VINA RESULT:      11.4      0.000      0.000
REMARK  1 active torsions:
REMARK  status: ('A' for Active; 'I' for Inactive)
REMARK    1  A    between atoms: C_7  and  N_1 
ROOT
ATOM      1  N   UNL d   1      23.748  12.496  -2.161  0.00  0.00    -0.226 N 
ATOM      2  C   UNL d   1      23.407  12.732  -2.876  0.00  0.00     0.359 A 
ATOM      3  C   UNL d   1      24.425  12.024  -2.161  0.00  0.00     0.273 A 
ATOM      4  N   UNL d   1      23.746  12.493  -3.589  0.00  0.00    -0.153 NA
ATOM      5  C   UNL d   1      24.424  12.021  -3.589  0.00  0.00     0.288 A 
ATOM      6  C   UNL d   1      24.764  11.786  -2.875  0.00  0.00     0.124 A 
ATOM      7  O   UNL d   1      22.729  13.204  -2.880  0.00  0.00    -0.244 OA
ATOM      8  O   UNL d   1      24.766  11.789  -1.447  0.00  0.00    -0.266 OA
ATOM      9  O   UNL d   1      24.763  11.783  -4.303  0.00  0.00    -0.265 OA
ENDROOT
BRANCH   1  10
ATOM     10  C   UNL d   1      23.409  12.735  -1.448  0.00  0.00     0.071 A 
ATOM     11  C   UNL d   1      23.763  13.352  -1.008  0.00  0.00     0.016 A 
ATOM     12  C   UNL d   1      24.448  13.717  -1.292  0.00  0.00     0.002 C 
ATOM     13  C   UNL d   1      23.428  13.592  -0.296  0.00  0.00     0.001 A 
ATOM     14  C   UNL d   1      22.743  13.225  -0.015  0.00  0.00     0.000 A 
ATOM     15  C   UNL d   1      22.396  12.616  -0.451  0.00  0.00     0.002 A 
ATOM     16  C   UNL d   1      22.731  12.369  -1.173  0.00  0.00     0.018 A 
ENDBRANCH   1  10
TORSDOF 1
ENDMDL
