MODEL 1
REMARK VINA RESULT:      -4.1      0.000      0.000
REMARK  6 active torsions:
REMARK  status: ('A' for Active; 'I' for Inactive)
REMARK       I    between atoms: C_8  and  N_1 
REMARK    1  A    between atoms: C_10  and  C_3 
REMARK    2  A    between atoms: C_4  and  S_14 
REMARK    3  A    between atoms: C_15  and  C_6 
REMARK    4  A    between atoms: C_16  and  C_8 
REMARK    5  A    between atoms: S_14  and  C_16 
REMARK    6  A    between atoms: O_26  and  C_23 
ROOT
ATOM      1  N   UNL d   1     -40.752  14.084  20.959  0.00  0.00    -0.195 N 
ATOM      2  N   UNL d   1     -40.407  14.038  21.685  0.00  0.00    -0.162 NA
ATOM      3  C   UNL d   1     -39.630  14.326  21.623  0.00  0.00     0.109 A 
ATOM      4  C   UNL d   1     -40.197  14.403  20.428  0.00  0.00     0.088 A 
ATOM      5  C   UNL d   1     -39.522  14.542  20.855  0.00  0.00     0.041 A 
ATOM      6  C   UNL d   1     -41.487  13.888  20.683  0.00  0.00     0.275 C 
ATOM      7  O   UNL d   1     -41.692  14.001  19.883  0.00  0.00    -0.266 OA
ENDROOT
BRANCH   4   8
ATOM      8  C   UNL d   1     -40.279  14.557  19.635  0.00  0.00     0.018 A 
ATOM      9  C   UNL d   1     -40.576  15.282  19.385  0.00  0.00     0.004 A 
ATOM     10  C   UNL d   1     -40.658  15.434  18.569  0.00  0.00     0.024 A 
ATOM     11  C   UNL d   1     -40.444  14.865  18.019  0.00  0.00     0.094 A 
ATOM     12  C   UNL d   1     -40.146  14.140  18.273  0.00  0.00     0.024 A 
ATOM     13  C   UNL d   1     -40.061  13.980  19.084  0.00  0.00     0.004 A 
BRANCH  11  14
ATOM     14  O   UNL d   1     -40.519  15.001  17.201  0.00  0.00    -0.328 OA
ATOM     15  C   UNL d   1     -40.969  15.631  16.916  0.00  0.00     0.181 C 
ENDBRANCH  11  14
ENDBRANCH   4   8
BRANCH   6  16
ATOM     16  C   UNL d   1     -42.057  13.567  21.205  0.00  0.00     0.128 C 
BRANCH  16  17
ATOM     17  S   UNL d   1     -42.639  13.047  20.921  0.00  0.00    -0.069 SA
BRANCH  17  18
ATOM     18  C   UNL d   1     -43.333  12.912  21.360  0.00  0.00     0.140 A 
ATOM     19  N   UNL d   1     -43.455  12.269  21.854  0.00  0.00    -0.232 NA
ATOM     20  C   UNL d   1     -44.208  12.344  22.180  0.00  0.00     0.088 A 
ATOM     21  C   UNL d   1     -44.627  11.865  22.712  0.00  0.00     0.020 A 
ATOM     22  C   UNL d   1     -44.549  13.027  21.889  0.00  0.00     0.049 A 
ATOM     23  C   UNL d   1     -45.389  12.077  22.949  0.00  0.00     0.002 A 
ATOM     24  C   UNL d   1     -45.729  12.777  22.647  0.00  0.00     0.001 A 
ATOM     25  C   UNL d   1     -45.305  13.245  22.120  0.00  0.00     0.008 A 
ATOM     26  S   UNL d   1     -44.007  13.389  21.375  0.00  0.00    -0.060 SA
ENDBRANCH  17  18
ENDBRANCH  16  17
ENDBRANCH   6  16
BRANCH   3  27
ATOM     27  C   UNL d   1     -39.095  14.370  22.251  0.00  0.00     0.049 A 
ATOM     28  S   UNL d   1     -38.805  14.963  22.727  0.00  0.00    -0.085 SA
ATOM     29  C   UNL d   1     -38.275  14.620  23.257  0.00  0.00     0.035 A 
ATOM     30  C   UNL d   1     -38.235  13.825  23.114  0.00  0.00     0.007 A 
ATOM     31  C   UNL d   1     -38.747  13.654  22.483  0.00  0.00     0.009 A 
ENDBRANCH   3  27
TORSDOF 6
ENDMDL
MODEL 2
REMARK VINA RESULT:      -3.8      1.988      5.122
REMARK  6 active torsions:
REMARK  status: ('A' for Active; 'I' for Inactive)
REMARK       I    between atoms: C_8  and  N_1 
REMARK    1  A    between atoms: C_10  and  C_3 
REMARK    2  A    between atoms: C_4  and  S_14 
REMARK    3  A    between atoms: C_15  and  C_6 
REMARK    4  A    between atoms: C_16  and  C_8 
REMARK    5  A    between atoms: S_14  and  C_16 
REMARK    6  A    between atoms: O_26  and  C_23 
ROOT
ATOM      1  N   UNL d   1     -40.216  14.599  20.443  0.00  0.00    -0.195 N 
ATOM      2  N   UNL d   1     -39.538  14.933  20.718  0.00  0.00    -0.162 NA
ATOM      3  C   UNL d   1     -39.548  14.899  21.549  0.00  0.00     0.109 A 
ATOM      4  C   UNL d   1     -40.665  14.348  21.096  0.00  0.00     0.088 A 
ATOM      5  C   UNL d   1     -40.239  14.541  21.758  0.00  0.00     0.041 A 
ATOM      6  C   UNL d   1     -40.509  14.477  19.699  0.00  0.00     0.275 C 
ATOM      7  O   UNL d   1     -41.247  14.107  19.581  0.00  0.00    -0.266 OA
ENDROOT
BRANCH   4   8
ATOM      8  C   UNL d   1     -41.389  13.981  21.108  0.00  0.00     0.018 A 
ATOM      9  C   UNL d   1     -42.079  14.428  21.084  0.00  0.00     0.004 A 
ATOM     10  C   UNL d   1     -42.819  14.045  21.096  0.00  0.00     0.024 A 
ATOM     11  C   UNL d   1     -42.861  13.226  21.131  0.00  0.00     0.094 A 
ATOM     12  C   UNL d   1     -42.167  12.781  21.155  0.00  0.00     0.024 A 
ATOM     13  C   UNL d   1     -41.425  13.155  21.144  0.00  0.00     0.004 A 
BRANCH  11  14
ATOM     14  O   UNL d   1     -43.591  12.828  21.144  0.00  0.00    -0.328 OA
ATOM     15  C   UNL d   1     -44.110  12.914  21.779  0.00  0.00     0.181 C 
ENDBRANCH  11  14
ENDBRANCH   4   8
BRANCH   6  16
ATOM     16  C   UNL d   1     -40.070  14.723  19.031  0.00  0.00     0.128 C 
BRANCH  16  17
ATOM     17  S   UNL d   1     -40.201  14.372  18.290  0.00  0.00    -0.069 SA
BRANCH  17  18
ATOM     18  C   UNL d   1     -39.701  14.545  17.647  0.00  0.00     0.140 A 
ATOM     19  N   UNL d   1     -39.253  13.990  17.242  0.00  0.00    -0.232 NA
ATOM     20  C   UNL d   1     -38.841  14.388  16.649  0.00  0.00     0.088 A 
ATOM     21  C   UNL d   1     -38.308  14.117  16.073  0.00  0.00     0.020 A 
ATOM     22  C   UNL d   1     -39.033  15.181  16.688  0.00  0.00     0.049 A 
ATOM     23  C   UNL d   1     -37.971  14.648  15.538  0.00  0.00     0.002 A 
ATOM     24  C   UNL d   1     -38.174  15.457  15.586  0.00  0.00     0.001 A 
ATOM     25  C   UNL d   1     -38.703  15.714  16.160  0.00  0.00     0.008 A 
ATOM     26  S   UNL d   1     -39.572  15.287  17.310  0.00  0.00    -0.060 SA
ENDBRANCH  17  18
ENDBRANCH  16  17
ENDBRANCH   6  16
BRANCH   3  27
ATOM     27  C   UNL d   1     -38.947  15.186  22.037  0.00  0.00     0.049 A 
ATOM     28  S   UNL d   1     -38.659  15.922  22.232  0.00  0.00    -0.085 SA
ATOM     29  C   UNL d   1     -38.038  15.813  22.763  0.00  0.00     0.035 A 
ATOM     30  C   UNL d   1     -37.940  15.021  22.897  0.00  0.00     0.007 A 
ATOM     31  C   UNL d   1     -38.506  14.615  22.446  0.00  0.00     0.009 A 
ENDBRANCH   3  27
TORSDOF 6
ENDMDL
MODEL 3
REMARK VINA RESULT:      -3.2      1.315      3.282
REMARK  6 active torsions:
REMARK  status: ('A' for Active; 'I' for Inactive)
REMARK       I    between atoms: C_8  and  N_1 
REMARK    1  A    between atoms: C_10  and  C_3 
REMARK    2  A    between atoms: C_4  and  S_14 
REMARK    3  A    between atoms: C_15  and  C_6 
REMARK    4  A    between atoms: C_16  and  C_8 
REMARK    5  A    between atoms: S_14  and  C_16 
REMARK    6  A    between atoms: O_26  and  C_23 
ROOT
ATOM      1  N   UNL d   1     -40.945  14.200  20.394  0.00  0.00    -0.195 N 
ATOM      2  N   UNL d   1     -41.181  14.404  19.652  0.00  0.00    -0.162 NA
ATOM      3  C   UNL d   1     -40.536  14.754  19.260  0.00  0.00     0.109 A 
ATOM      4  C   UNL d   1     -40.147  14.418  20.481  0.00  0.00     0.088 A 
ATOM      5  C   UNL d   1     -39.920  14.753  19.779  0.00  0.00     0.041 A 
ATOM      6  C   UNL d   1     -41.322  13.847  21.016  0.00  0.00     0.275 C 
ATOM      7  O   UNL d   1     -40.927  13.701  21.735  0.00  0.00    -0.266 OA
ENDROOT
BRANCH   4   8
ATOM      8  C   UNL d   1     -39.661  14.328  21.125  0.00  0.00     0.018 A 
ATOM      9  C   UNL d   1     -39.633  14.911  21.705  0.00  0.00     0.004 A 
ATOM     10  C   UNL d   1     -39.132  14.813  22.364  0.00  0.00     0.024 A 
ATOM     11  C   UNL d   1     -38.669  14.140  22.435  0.00  0.00     0.094 A 
ATOM     12  C   UNL d   1     -38.699  13.558  21.852  0.00  0.00     0.024 A 
ATOM     13  C   UNL d   1     -39.196  13.648  21.191  0.00  0.00     0.004 A 
BRANCH  11  14
ATOM     14  O   UNL d   1     -38.163  14.026  23.086  0.00  0.00    -0.328 OA
ATOM     15  C   UNL d   1     -37.940  14.660  23.564  0.00  0.00     0.181 C 
ENDBRANCH  11  14
ENDBRANCH   4   8
BRANCH   6  16
ATOM     16  C   UNL d   1     -42.125  13.621  20.944  0.00  0.00     0.128 C 
BRANCH  16  17
ATOM     17  S   UNL d   1     -42.395  12.916  21.288  0.00  0.00    -0.069 SA
BRANCH  17  18
ATOM     18  C   UNL d   1     -43.175  12.856  21.573  0.00  0.00     0.140 A 
ATOM     19  N   UNL d   1     -43.451  12.252  22.053  0.00  0.00    -0.232 NA
ATOM     20  C   UNL d   1     -44.247  12.400  22.208  0.00  0.00     0.088 A 
ATOM     21  C   UNL d   1     -44.807  11.983  22.655  0.00  0.00     0.020 A 
ATOM     22  C   UNL d   1     -44.460  13.091  21.826  0.00  0.00     0.049 A 
ATOM     23  C   UNL d   1     -45.581  12.265  22.717  0.00  0.00     0.002 A 
ATOM     24  C   UNL d   1     -45.789  12.971  22.324  0.00  0.00     0.001 A 
ATOM     25  C   UNL d   1     -45.226  13.377  21.883  0.00  0.00     0.008 A 
ATOM     26  S   UNL d   1     -43.794  13.383  21.427  0.00  0.00    -0.060 SA
ENDBRANCH  17  18
ENDBRANCH  16  17
ENDBRANCH   6  16
BRANCH   3  27
ATOM     27  C   UNL d   1     -40.558  15.039  18.485  0.00  0.00     0.049 A 
ATOM     28  S   UNL d   1     -40.628  15.772  18.137  0.00  0.00    -0.085 SA
ATOM     29  C   UNL d   1     -40.609  15.662  17.321  0.00  0.00     0.035 A 
ATOM     30  C   UNL d   1     -40.528  14.873  17.161  0.00  0.00     0.007 A 
ATOM     31  C   UNL d   1     -40.494  14.469  17.886  0.00  0.00     0.009 A 
ENDBRANCH   3  27
TORSDOF 6
ENDMDL
MODEL 4
REMARK VINA RESULT:      -1.1      2.199      5.991
REMARK  6 active torsions:
REMARK  status: ('A' for Active; 'I' for Inactive)
REMARK       I    between atoms: C_8  and  N_1 
REMARK    1  A    between atoms: C_10  and  C_3 
REMARK    2  A    between atoms: C_4  and  S_14 
REMARK    3  A    between atoms: C_15  and  C_6 
REMARK    4  A    between atoms: C_16  and  C_8 
REMARK    5  A    between atoms: S_14  and  C_16 
REMARK    6  A    between atoms: O_26  and  C_23 
ROOT
ATOM      1  N   UNL d   1     -44.488  12.494  22.315  0.00  0.00    -0.195 N 
ATOM      2  N   UNL d   1     -44.104  11.811  22.498  0.00  0.00    -0.162 NA
ATOM      3  C   UNL d   1     -44.619  11.333  22.944  0.00  0.00     0.109 A 
ATOM      4  C   UNL d   1     -45.252  12.458  22.642  0.00  0.00     0.088 A 
ATOM      5  C   UNL d   1     -45.308  11.743  23.020  0.00  0.00     0.041 A 
ATOM      6  C   UNL d   1     -44.273  13.155  21.900  0.00  0.00     0.275 C 
ATOM      7  O   UNL d   1     -44.801  13.792  21.798  0.00  0.00    -0.266 OA
ENDROOT
BRANCH   4   8
ATOM      8  C   UNL d   1     -45.847  13.008  22.611  0.00  0.00     0.018 A 
ATOM      9  C   UNL d   1     -46.429  12.954  22.031  0.00  0.00     0.004 A 
ATOM     10  C   UNL d   1     -47.038  13.523  22.004  0.00  0.00     0.024 A 
ATOM     11  C   UNL d   1     -47.058  14.134  22.551  0.00  0.00     0.094 A 
ATOM     12  C   UNL d   1     -46.474  14.185  23.130  0.00  0.00     0.024 A 
ATOM     13  C   UNL d   1     -45.863  13.622  23.165  0.00  0.00     0.004 A 
BRANCH  11  14
ATOM     14  O   UNL d   1     -47.659  14.710  22.538  0.00  0.00    -0.328 OA
ATOM     15  C   UNL d   1     -48.407  14.548  22.845  0.00  0.00     0.181 C 
ENDBRANCH  11  14
ENDBRANCH   4   8
BRANCH   6  16
ATOM     16  C   UNL d   1     -43.508  13.206  21.565  0.00  0.00     0.128 C 
BRANCH  16  17
ATOM     17  S   UNL d   1     -43.281  13.884  21.143  0.00  0.00    -0.069 SA
BRANCH  17  18
ATOM     18  C   UNL d   1     -42.478  14.096  21.086  0.00  0.00     0.140 A 
ATOM     19  N   UNL d   1     -42.199  14.867  21.061  0.00  0.00    -0.232 NA
ATOM     20  C   UNL d   1     -41.378  14.834  21.005  0.00  0.00     0.088 A 
ATOM     21  C   UNL d   1     -40.805  15.432  20.961  0.00  0.00     0.020 A 
ATOM     22  C   UNL d   1     -41.151  14.048  20.995  0.00  0.00     0.049 A 
ATOM     23  C   UNL d   1     -40.004  15.237  20.907  0.00  0.00     0.002 A 
ATOM     24  C   UNL d   1     -39.782  14.432  20.898  0.00  0.00     0.001 A 
ATOM     25  C   UNL d   1     -40.358  13.847  20.942  0.00  0.00     0.008 A 
ATOM     26  S   UNL d   1     -41.834  13.581  21.045  0.00  0.00    -0.060 SA
ENDBRANCH  17  18
ENDBRANCH  16  17
ENDBRANCH   6  16
BRANCH   3  27
ATOM     27  C   UNL d   1     -44.428  10.585  23.237  0.00  0.00     0.049 A 
ATOM     28  S   UNL d   1     -44.843   9.908  23.414  0.00  0.00    -0.085 SA
ATOM     29  C   UNL d   1     -44.302   9.351  23.693  0.00  0.00     0.035 A 
ATOM     30  C   UNL d   1     -43.562   9.677  23.691  0.00  0.00     0.007 A 
ATOM     31  C   UNL d   1     -43.627  10.454  23.406  0.00  0.00     0.009 A 
ENDBRANCH   3  27
TORSDOF 6
ENDMDL
