MODEL 1
REMARK VINA RESULT:      21.8      0.000      0.000
REMARK  4 active torsions:
REMARK  status: ('A' for Active; 'I' for Inactive)
REMARK    1  A    between atoms: C_14  and  N_3 
REMARK    2  A    between atoms: C_13  and  N_7 
REMARK       I    between atoms: N_9  and  C_10 
REMARK    3  A    between atoms: C_10  and  C_13 
REMARK    4  A    between atoms: C_19  and  C_14 
ROOT
ATOM      1  C   UNL d   1      45.585 -15.211  44.391  0.00  0.00     0.191 A 
ATOM      2  C   UNL d   1      45.121 -15.888  44.477  0.00  0.00     0.196 A 
ATOM      3  N   UNL d   1      45.157 -14.573  44.672  0.00  0.00    -0.191 N 
ATOM      4  N   UNL d   1      46.350 -15.269  44.062  0.00  0.00    -0.204 NA
ATOM      5  N   UNL d   1      44.403 -15.652  44.815  0.00  0.00    -0.122 NA
ATOM      6  N   UNL d   1      44.434 -14.839  44.932  0.00  0.00    -0.058 NA
ATOM      7  N   UNL d   1      46.162 -16.687  43.913  0.00  0.00    -0.249 N 
ATOM      8  C   UNL d   1      45.398 -16.620  44.243  0.00  0.00     0.289 A 
ATOM      9  C   UNL d   1      46.641 -16.011  43.821  0.00  0.00     0.187 A 
ATOM     10  O   UNL d   1      44.935 -17.297  44.329  0.00  0.00    -0.265 OA
ENDROOT
BRANCH   7  11
ATOM     11  C   UNL d   1      46.456 -17.412  43.674  0.00  0.00     0.146 C 
BRANCH  11  12
ATOM     12  C   UNL d   1      46.369 -18.088  44.127  0.00  0.00     0.283 C 
ATOM     13  N   UNL d   1      46.363 -18.846  43.782  0.00  0.00    -0.272 N 
ATOM     14  C   UNL d   1      46.447 -18.919  42.957  0.00  0.00     0.067 A 
ATOM     15  C   UNL d   1      46.275 -19.506  44.244  0.00  0.00     0.083 A 
ATOM     16  C   UNL d   1      46.441 -19.677  42.612  0.00  0.00     0.016 A 
ATOM     17  C   UNL d   1      46.536 -18.258  42.483  0.00  0.00     0.018 A 
ATOM     18  C   UNL d   1      46.526 -19.750  41.786  0.00  0.00     0.001 A 
ATOM     19  C   UNL d   1      46.353 -20.327  43.087  0.00  0.00     0.003 A 
ATOM     20  C   UNL d   1      46.614 -19.084  41.319  0.00  0.00     0.000 A 
ATOM     21  C   UNL d   1      46.620 -18.326  41.664  0.00  0.00     0.002 A 
ATOM     22  C   UNL d   1      46.269 -20.264  43.901  0.00  0.00     0.019 A 
ATOM     23  O   UNL d   1      46.284 -18.015  44.952  0.00  0.00    -0.265 OA
ENDBRANCH  11  12
ENDBRANCH   7  11
BRANCH   3  24
ATOM     24  C   UNL d   1      45.421 -13.788  44.687  0.00  0.00     0.104 C 
BRANCH  24  25
ATOM     25  C   UNL d   1      45.224 -13.276  44.091  0.00  0.00     0.019 A 
ATOM     26  C   UNL d   1      45.814 -12.911  43.645  0.00  0.00     0.002 A 
ATOM     27  C   UNL d   1      45.609 -12.399  43.048  0.00  0.00     0.000 A 
ATOM     28  C   UNL d   1      44.823 -12.238  42.879  0.00  0.00     0.000 A 
ATOM     29  C   UNL d   1      44.233 -12.603  43.324  0.00  0.00     0.000 A 
ATOM     30  C   UNL d   1      44.430 -13.115  43.921  0.00  0.00     0.002 A 
ENDBRANCH  24  25
ENDBRANCH   3  24
TORSDOF 4
ENDMDL
