MODEL 1
REMARK VINA RESULT:      11.7      0.000      0.000
REMARK  4 active torsions:
REMARK  status: ('A' for Active; 'I' for Inactive)
REMARK    1  A    between atoms: C_2  and  S_1 
REMARK    2  A    between atoms: C_15  and  S_1 
REMARK    3  A    between atoms: C_5  and  C_3 
REMARK    4  A    between atoms: C_16  and  C_5 
ROOT
ATOM      1  C   UNL d   1     -42.650-122.934 -50.788  0.00  0.00     0.094 A 
ATOM      2  C   UNL d   1     -42.320-123.424 -50.210  0.00  0.00     0.069 A 
ATOM      3  C   UNL d   1     -42.267-122.836 -51.511  0.00  0.00     0.031 A 
ATOM      4  C   UNL d   1     -41.558-123.227 -51.659  0.00  0.00     0.084 A 
ATOM      5  C   UNL d   1     -42.597-122.346 -52.086  0.00  0.00     0.029 A 
ATOM      6  N   UNL d   1     -41.228-123.717 -51.084  0.00  0.00    -0.244 NA
ATOM      7  C   UNL d   1     -41.610-123.816 -50.358  0.00  0.00     0.103 A 
ATOM      8  C   UNL d   1     -41.175-123.130 -52.383  0.00  0.00     0.046 A 
ATOM      9  C   UNL d   1     -42.215-122.249 -52.809  0.00  0.00     0.123 A 
ATOM     10  C   UNL d   1     -41.505-122.641 -52.957  0.00  0.00     0.124 A 
ATOM     11  O   UNL d   1     -42.544-121.760 -53.383  0.00  0.00    -0.301 OA
ATOM     12  O   UNL d   1     -41.123-122.543 -53.679  0.00  0.00    -0.301 OA
ATOM     13  C   UNL d   1     -42.162-121.659 -54.113  0.00  0.00     0.149 A 
ATOM     14  C   UNL d   1     -41.452-122.050 -54.262  0.00  0.00     0.149 A 
ENDROOT
BRANCH   1  15
ATOM     15  S   UNL d   1     -43.360-122.538 -50.647  0.00  0.00     0.210 S 
ATOM     16  O   UNL d   1     -42.933-121.865 -50.436  0.00  0.00    -0.217 OA
ATOM     17  O   UNL d   1     -43.787-123.211 -50.859  0.00  0.00    -0.217 OA
BRANCH  15  18
ATOM     18  C   UNL d   1     -44.061-122.128 -50.503  0.00  0.00     0.088 A 
ATOM     19  C   UNL d   1     -44.040-121.363 -50.197  0.00  0.00     0.011 A 
ATOM     20  C   UNL d   1     -44.750-120.957 -50.054  0.00  0.00     0.001 A 
ATOM     21  C   UNL d   1     -45.470-121.319 -50.218  0.00  0.00     0.000 A 
ATOM     22  C   UNL d   1     -45.494-122.079 -50.522  0.00  0.00     0.001 A 
ATOM     23  C   UNL d   1     -44.783-122.489 -50.666  0.00  0.00     0.011 A 
ENDBRANCH  15  18
ENDBRANCH   1  15
BRANCH   2  24
ATOM     24  C   UNL d   1     -42.703-123.525 -49.479  0.00  0.00     0.198 C 
ATOM     25  O   UNL d   1     -43.474-123.817 -49.453  0.00  0.00    -0.286 OA
BRANCH  24  26
ATOM     26  C   UNL d   1     -42.309-123.332 -48.780  0.00  0.00     0.039 A 
ATOM     27  C   UNL d   1     -42.691-122.892 -48.189  0.00  0.00     0.003 A 
ATOM     28  C   UNL d   1     -42.299-122.698 -47.489  0.00  0.00     0.000 A 
ATOM     29  C   UNL d   1     -41.520-122.942 -47.368  0.00  0.00     0.000 A 
ATOM     30  C   UNL d   1     -41.134-123.387 -47.965  0.00  0.00     0.000 A 
ATOM     31  C   UNL d   1     -41.123-122.754 -46.676  0.00  0.00     0.000 C 
ATOM     32  C   UNL d   1     -41.523-123.582 -48.665  0.00  0.00     0.003 A 
ENDBRANCH  24  26
ENDBRANCH   2  24
TORSDOF 4
ENDMDL
MODEL 2
REMARK VINA RESULT:      12.9      0.969      4.026
REMARK  4 active torsions:
REMARK  status: ('A' for Active; 'I' for Inactive)
REMARK    1  A    between atoms: C_2  and  S_1 
REMARK    2  A    between atoms: C_15  and  S_1 
REMARK    3  A    between atoms: C_5  and  C_3 
REMARK    4  A    between atoms: C_16  and  C_5 
ROOT
ATOM      1  C   UNL d   1     -42.589-122.803 -50.258  0.00  0.00     0.094 A 
ATOM      2  C   UNL d   1     -42.205-122.927 -50.979  0.00  0.00     0.069 A 
ATOM      3  C   UNL d   1     -42.239-123.057 -49.557  0.00  0.00     0.031 A 
ATOM      4  C   UNL d   1     -41.506-123.434 -49.574  0.00  0.00     0.084 A 
ATOM      5  C   UNL d   1     -42.623-122.933 -48.838  0.00  0.00     0.029 A 
ATOM      6  N   UNL d   1     -41.123-123.559 -50.292  0.00  0.00    -0.244 NA
ATOM      7  C   UNL d   1     -41.473-123.305 -50.996  0.00  0.00     0.103 A 
ATOM      8  C   UNL d   1     -41.156-123.688 -48.872  0.00  0.00     0.046 A 
ATOM      9  C   UNL d   1     -42.273-123.187 -48.138  0.00  0.00     0.123 A 
ATOM     10  C   UNL d   1     -41.540-123.564 -48.155  0.00  0.00     0.124 A 
ATOM     11  O   UNL d   1     -42.656-123.062 -47.421  0.00  0.00    -0.301 OA
ATOM     12  O   UNL d   1     -41.190-123.818 -47.455  0.00  0.00    -0.301 OA
ATOM     13  C   UNL d   1     -42.306-123.317 -46.711  0.00  0.00     0.149 A 
ATOM     14  C   UNL d   1     -41.574-123.694 -46.728  0.00  0.00     0.149 A 
ENDROOT
BRANCH   1  15
ATOM     15  S   UNL d   1     -43.323-122.427 -50.232  0.00  0.00     0.210 S 
ATOM     16  O   UNL d   1     -42.938-121.697 -50.220  0.00  0.00    -0.217 OA
ATOM     17  O   UNL d   1     -43.708-123.156 -50.244  0.00  0.00    -0.217 OA
BRANCH  15  18
ATOM     18  C   UNL d   1     -44.048-122.034 -50.206  0.00  0.00     0.088 A 
ATOM     19  C   UNL d   1     -44.076-121.221 -50.075  0.00  0.00     0.011 A 
ATOM     20  C   UNL d   1     -44.810-120.834 -50.050  0.00  0.00     0.001 A 
ATOM     21  C   UNL d   1     -45.505-121.261 -50.155  0.00  0.00     0.000 A 
ATOM     22  C   UNL d   1     -45.479-122.070 -50.286  0.00  0.00     0.001 A 
ATOM     23  C   UNL d   1     -44.744-122.462 -50.311  0.00  0.00     0.011 A 
ENDBRANCH  15  18
ENDBRANCH   1  15
BRANCH   2  24
ATOM     24  C   UNL d   1     -42.555-122.673 -51.689  0.00  0.00     0.198 C 
ATOM     25  O   UNL d   1     -43.258-122.240 -51.671  0.00  0.00    -0.286 OA
BRANCH  24  26
ATOM     26  C   UNL d   1     -42.199-122.854 -52.410  0.00  0.00     0.039 A 
ATOM     27  C   UNL d   1     -41.983-123.635 -52.590  0.00  0.00     0.003 A 
ATOM     28  C   UNL d   1     -41.627-123.817 -53.312  0.00  0.00     0.000 A 
ATOM     29  C   UNL d   1     -41.480-123.223 -53.865  0.00  0.00     0.000 A 
ATOM     30  C   UNL d   1     -41.698-122.433 -53.683  0.00  0.00     0.000 A 
ATOM     31  C   UNL d   1     -41.126-123.395 -54.584  0.00  0.00     0.000 C 
ATOM     32  C   UNL d   1     -42.054-122.248 -52.964  0.00  0.00     0.003 A 
ENDBRANCH  24  26
ENDBRANCH   2  24
TORSDOF 4
ENDMDL
MODEL 3
REMARK VINA RESULT:      13.7      2.125      3.519
REMARK  4 active torsions:
REMARK  status: ('A' for Active; 'I' for Inactive)
REMARK    1  A    between atoms: C_2  and  S_1 
REMARK    2  A    between atoms: C_15  and  S_1 
REMARK    3  A    between atoms: C_5  and  C_3 
REMARK    4  A    between atoms: C_16  and  C_5 
ROOT
ATOM      1  C   UNL d   1     -41.630-121.243 -52.402  0.00  0.00     0.094 A 
ATOM      2  C   UNL d   1     -41.503-121.632 -51.684  0.00  0.00     0.069 A 
ATOM      3  C   UNL d   1     -41.504-120.431 -52.458  0.00  0.00     0.031 A 
ATOM      4  C   UNL d   1     -41.250-120.006 -51.800  0.00  0.00     0.084 A 
ATOM      5  C   UNL d   1     -41.631-120.045 -53.175  0.00  0.00     0.029 A 
ATOM      6  N   UNL d   1     -41.123-120.392 -51.083  0.00  0.00    -0.244 NA
ATOM      7  C   UNL d   1     -41.249-121.207 -51.025  0.00  0.00     0.103 A 
ATOM      8  C   UNL d   1     -41.124-119.194 -51.856  0.00  0.00     0.046 A 
ATOM      9  C   UNL d   1     -41.505-119.233 -53.231  0.00  0.00     0.123 A 
ATOM     10  C   UNL d   1     -41.252-118.808 -52.572  0.00  0.00     0.124 A 
ATOM     11  O   UNL d   1     -41.632-118.848 -53.947  0.00  0.00    -0.301 OA
ATOM     12  O   UNL d   1     -41.125-117.997 -52.627  0.00  0.00    -0.301 OA
ATOM     13  C   UNL d   1     -41.506-118.029 -54.007  0.00  0.00     0.149 A 
ATOM     14  C   UNL d   1     -41.253-117.604 -53.348  0.00  0.00     0.149 A 
ENDROOT
BRANCH   1  15
ATOM     15  S   UNL d   1     -41.884-121.661 -53.067  0.00  0.00     0.210 S 
ATOM     16  O   UNL d   1     -41.124-121.601 -53.384  0.00  0.00    -0.217 OA
ATOM     17  O   UNL d   1     -42.643-121.722 -52.750  0.00  0.00    -0.217 OA
BRANCH  15  18
ATOM     18  C   UNL d   1     -42.121-122.078 -53.738  0.00  0.00     0.088 A 
ATOM     19  C   UNL d   1     -42.840-121.905 -54.102  0.00  0.00     0.011 A 
ATOM     20  C   UNL d   1     -43.071-122.329 -54.778  0.00  0.00     0.001 A 
ATOM     21  C   UNL d   1     -42.583-122.918 -55.081  0.00  0.00     0.000 A 
ATOM     22  C   UNL d   1     -41.868-123.091 -54.720  0.00  0.00     0.001 A 
ATOM     23  C   UNL d   1     -41.633-122.668 -54.042  0.00  0.00     0.011 A 
ENDBRANCH  15  18
ENDBRANCH   1  15
BRANCH   2  24
ATOM     24  C   UNL d   1     -41.629-122.451 -51.624  0.00  0.00     0.198 C 
ATOM     25  O   UNL d   1     -41.594-122.926 -52.298  0.00  0.00    -0.286 OA
BRANCH  24  26
ATOM     26  C   UNL d   1     -41.790-122.788 -50.888  0.00  0.00     0.039 A 
ATOM     27  C   UNL d   1     -41.183-122.897 -50.333  0.00  0.00     0.003 A 
ATOM     28  C   UNL d   1     -41.342-123.234 -49.596  0.00  0.00     0.000 A 
ATOM     29  C   UNL d   1     -42.109-123.469 -49.404  0.00  0.00     0.000 A 
ATOM     30  C   UNL d   1     -42.723-123.359 -49.965  0.00  0.00     0.000 A 
ATOM     31  C   UNL d   1     -42.276-123.805 -48.674  0.00  0.00     0.000 C 
ATOM     32  C   UNL d   1     -42.567-123.022 -50.701  0.00  0.00     0.003 A 
ENDBRANCH  24  26
ENDBRANCH   2  24
TORSDOF 4
ENDMDL
