MODEL 1
REMARK VINA RESULT:      -6.5      0.000      0.000
REMARK  5 active torsions:
REMARK  status: ('A' for Active; 'I' for Inactive)
REMARK    1  A    between atoms: C_7  and  C_1 
REMARK       I    between atoms: C_3  and  N_8 
REMARK       I    between atoms: N_10  and  C_3 
REMARK    2  A    between atoms: N_8  and  C_6 
REMARK    3  A    between atoms: O_14  and  C_7 
REMARK    4  A    between atoms: C_13  and  N_10 
REMARK    5  A    between atoms: C_23  and  O_14 
ROOT
ATOM      1  C   UNL d   1     -49.819  13.238  22.911  0.00  0.00     0.083 A 
ATOM      2  N   UNL d   1     -49.986  11.834  23.072  0.00  0.00    -0.244 NA
ATOM      3  C   UNL d   1     -50.283  12.565  22.852  0.00  0.00     0.087 A 
ATOM      4  C   UNL d   1     -49.053  13.185  23.190  0.00  0.00     0.028 A 
ATOM      5  C   UNL d   1     -48.743  12.451  23.414  0.00  0.00     0.104 A 
ATOM      6  C   UNL d   1     -49.207  11.778  23.355  0.00  0.00     0.099 A 
ATOM      7  C   UNL d   1     -51.062  12.621  22.569  0.00  0.00     0.021 C 
ATOM      8  C   UNL d   1     -48.900  11.040  23.579  0.00  0.00     0.022 C 
ENDROOT
BRANCH   5   9
ATOM      9  N   UNL d   1     -47.964  12.396  23.698  0.00  0.00    -0.189 NA
ATOM     10  C   UNL d   1     -47.330  12.532  23.198  0.00  0.00     0.369 C 
ATOM     11  N   UNL d   1     -46.554  12.479  23.470  0.00  0.00    -0.191 NA
ATOM     12  O   UNL d   1     -47.465  12.727  22.400  0.00  0.00    -0.242 OA
BRANCH  11  13
ATOM     13  C   UNL d   1     -45.926  12.615  22.971  0.00  0.00     0.086 A 
ATOM     14  C   UNL d   1     -45.865  13.336  22.574  0.00  0.00     0.020 A 
ATOM     15  C   UNL d   1     -45.222  13.470  22.065  0.00  0.00     0.008 A 
ATOM     16  C   UNL d   1     -44.650  12.886  21.958  0.00  0.00     0.035 A 
ATOM     17  C   UNL d   1     -44.711  12.165  22.354  0.00  0.00     0.008 A 
ATOM     18 BR   UNL d   1     -44.022  13.021  21.458  0.00  0.00    -0.049 Br
ATOM     19  C   UNL d   1     -45.349  12.025  22.863  0.00  0.00     0.020 A 
ENDBRANCH  11  13
ENDBRANCH   5   9
BRANCH   1  20
ATOM     20  C   UNL d   1     -50.124  13.968  22.690  0.00  0.00     0.302 C 
ATOM     21  O   UNL d   1     -50.271  14.125  21.906  0.00  0.00    -0.259 OA
BRANCH  20  22
ATOM     22  O   UNL d   1     -50.277  14.529  23.256  0.00  0.00    -0.271 OA
BRANCH  22  23
ATOM     23  C   UNL d   1     -50.357  15.311  23.035  0.00  0.00     0.126 C 
ATOM     24  C   UNL d   1     -50.646  15.862  23.574  0.00  0.00     0.029 C 
ENDBRANCH  22  23
ENDBRANCH  20  22
ENDBRANCH   1  20
TORSDOF 5
ENDMDL
MODEL 2
REMARK VINA RESULT:      -6.0      1.332      2.259
REMARK  5 active torsions:
REMARK  status: ('A' for Active; 'I' for Inactive)
REMARK    1  A    between atoms: C_7  and  C_1 
REMARK       I    between atoms: C_3  and  N_8 
REMARK       I    between atoms: N_10  and  C_3 
REMARK    2  A    between atoms: N_8  and  C_6 
REMARK    3  A    between atoms: O_14  and  C_7 
REMARK    4  A    between atoms: C_13  and  N_10 
REMARK    5  A    between atoms: C_23  and  O_14 
ROOT
ATOM      1  C   UNL d   1     -49.956  13.742  22.414  0.00  0.00     0.083 A 
ATOM      2  N   UNL d   1     -49.915  15.149  22.205  0.00  0.00    -0.244 NA
ATOM      3  C   UNL d   1     -50.307  14.432  22.144  0.00  0.00     0.087 A 
ATOM      4  C   UNL d   1     -49.211  13.764  22.748  0.00  0.00     0.028 A 
ATOM      5  C   UNL d   1     -48.807  14.483  22.815  0.00  0.00     0.104 A 
ATOM      6  C   UNL d   1     -49.158  15.173  22.545  0.00  0.00     0.099 A 
ATOM      7  C   UNL d   1     -51.064  14.408  21.804  0.00  0.00     0.021 C 
ATOM      8  C   UNL d   1     -48.756  15.897  22.610  0.00  0.00     0.022 C 
ENDROOT
BRANCH   5   9
ATOM      9  N   UNL d   1     -48.049  14.507  23.155  0.00  0.00    -0.189 NA
ATOM     10  C   UNL d   1     -47.442  14.055  22.844  0.00  0.00     0.369 C 
ATOM     11  N   UNL d   1     -46.686  14.072  23.174  0.00  0.00    -0.191 NA
ATOM     12  O   UNL d   1     -47.582  13.568  22.184  0.00  0.00    -0.242 OA
BRANCH  11  13
ATOM     13  C   UNL d   1     -46.084  13.621  22.863  0.00  0.00     0.086 A 
ATOM     14  C   UNL d   1     -45.966  12.850  23.133  0.00  0.00     0.020 A 
ATOM     15  C   UNL d   1     -45.350  12.394  22.812  0.00  0.00     0.008 A 
ATOM     16  C   UNL d   1     -44.861  12.710  22.228  0.00  0.00     0.035 A 
ATOM     17  C   UNL d   1     -44.980  13.481  21.959  0.00  0.00     0.008 A 
ATOM     18 BR   UNL d   1     -44.259  12.260  21.917  0.00  0.00    -0.049 Br
ATOM     19  C   UNL d   1     -45.591  13.941  22.274  0.00  0.00     0.020 A 
ENDBRANCH  11  13
ENDBRANCH   5   9
BRANCH   1  20
ATOM     20  C   UNL d   1     -50.354  13.026  22.348  0.00  0.00     0.302 C 
ATOM     21  O   UNL d   1     -50.566  12.745  21.615  0.00  0.00    -0.259 OA
BRANCH  20  22
ATOM     22  O   UNL d   1     -50.534  12.604  23.017  0.00  0.00    -0.271 OA
BRANCH  22  23
ATOM     23  C   UNL d   1     -50.485  11.789  23.003  0.00  0.00     0.126 C 
ATOM     24  C   UNL d   1     -50.337  11.375  23.698  0.00  0.00     0.029 C 
ENDBRANCH  22  23
ENDBRANCH  20  22
ENDBRANCH   1  20
TORSDOF 5
ENDMDL
