MODEL 1
REMARK VINA RESULT:      -2.8      0.000      0.000
REMARK  6 active torsions:
REMARK  status: ('A' for Active; 'I' for Inactive)
REMARK    1  A    between atoms: C_7  and  C_1 
REMARK    2  A    between atoms: C_6  and  C_2 
REMARK       I    between atoms: N_9  and  C_6 
REMARK    3  A    between atoms: O_16  and  C_7 
REMARK       I    between atoms: C_8  and  N_10 
REMARK    4  A    between atoms: C_14  and  C_8 
REMARK    5  A    between atoms: N_10  and  N_9 
REMARK    6  A    between atoms: C_20  and  O_16 
ROOT
ATOM      1  C   UNL d   1      56.812  -0.529  32.293  0.00  0.00     0.083 A 
ATOM      2  C   UNL d   1      57.548  -0.405  31.193  0.00  0.00     0.141 A 
ATOM      3  C   UNL d   1      57.384  -0.063  31.925  0.00  0.00     0.029 A 
ATOM      4  N   UNL d   1      57.086  -1.070  31.109  0.00  0.00    -0.240 NA
ATOM      5  C   UNL d   1      56.623  -1.158  31.788  0.00  0.00     0.087 A 
ATOM      6  C   UNL d   1      57.726   0.620  32.239  0.00  0.00     0.002 C 
ATOM      7  C   UNL d   1      56.083  -1.752  31.932  0.00  0.00     0.021 C 
ENDROOT
BRANCH   2   8
ATOM      8  C   UNL d   1      58.094  -0.113  30.639  0.00  0.00     0.314 C 
ATOM      9  N   UNL d   1      58.418  -0.617  30.078  0.00  0.00    -0.101 NA
ATOM     10  O   UNL d   1      58.310   0.682  30.653  0.00  0.00    -0.262 OA
BRANCH   9  11
ATOM     11  N   UNL d   1      58.961  -0.331  29.525  0.00  0.00    -0.102 NA
ATOM     12  C   UNL d   1      59.338  -0.844  29.004  0.00  0.00     0.297 C 
ATOM     13  O   UNL d   1      59.880  -0.546  28.455  0.00  0.00    -0.264 OA
BRANCH  12  14
ATOM     14  C   UNL d   1      59.171  -1.647  29.036  0.00  0.00     0.059 A 
ATOM     15  C   UNL d   1      59.670  -2.144  29.471  0.00  0.00     0.005 A 
ATOM     16  C   UNL d   1      59.505  -2.958  29.507  0.00  0.00     0.000 A 
ATOM     17  C   UNL d   1      58.847  -3.256  29.107  0.00  0.00     0.000 A 
ATOM     18  C   UNL d   1      58.356  -2.758  28.677  0.00  0.00     0.000 A 
ATOM     19  C   UNL d   1      58.520  -1.949  28.642  0.00  0.00     0.005 A 
ENDBRANCH  12  14
ENDBRANCH   9  11
ENDBRANCH   2   8
BRANCH   1  20
ATOM     20  C   UNL d   1      56.481  -0.395  33.040  0.00  0.00     0.302 C 
ATOM     21  O   UNL d   1      56.968  -0.363  33.706  0.00  0.00    -0.259 OA
BRANCH  20  22
ATOM     22  O   UNL d   1      55.663  -0.292  33.120  0.00  0.00    -0.271 OA
BRANCH  22  23
ATOM     23  C   UNL d   1      55.355  -0.046  33.831  0.00  0.00     0.126 C 
ATOM     24  C   UNL d   1      54.717   0.479  33.850  0.00  0.00     0.029 C 
ENDBRANCH  22  23
ENDBRANCH  20  22
ENDBRANCH   1  20
TORSDOF 6
ENDMDL
MODEL 2
REMARK VINA RESULT:      -1.5      1.279      4.631
REMARK  6 active torsions:
REMARK  status: ('A' for Active; 'I' for Inactive)
REMARK    1  A    between atoms: C_7  and  C_1 
REMARK    2  A    between atoms: C_6  and  C_2 
REMARK       I    between atoms: N_9  and  C_6 
REMARK    3  A    between atoms: O_16  and  C_7 
REMARK       I    between atoms: C_8  and  N_10 
REMARK    4  A    between atoms: C_14  and  C_8 
REMARK    5  A    between atoms: N_10  and  N_9 
REMARK    6  A    between atoms: C_20  and  O_16 
ROOT
ATOM      1  C   UNL d   1      58.639  -0.149  29.643  0.00  0.00     0.083 A 
ATOM      2  C   UNL d   1      58.473   0.327  30.872  0.00  0.00     0.141 A 
ATOM      3  C   UNL d   1      58.978  -0.115  30.393  0.00  0.00     0.029 A 
ATOM      4  N   UNL d   1      57.833   0.562  30.427  0.00  0.00    -0.240 NA
ATOM      5  C   UNL d   1      57.925   0.271  29.658  0.00  0.00     0.087 A 
ATOM      6  C   UNL d   1      59.693  -0.462  30.618  0.00  0.00     0.002 C 
ATOM      7  C   UNL d   1      57.410   0.379  29.036  0.00  0.00     0.021 C 
ENDROOT
BRANCH   2   8
ATOM      8  C   UNL d   1      58.602   0.500  31.675  0.00  0.00     0.314 C 
ATOM      9  N   UNL d   1      57.973   0.491  32.203  0.00  0.00    -0.101 NA
ATOM     10  O   UNL d   1      59.361   0.680  31.940  0.00  0.00    -0.262 OA
BRANCH   9  11
ATOM     11  N   UNL d   1      58.098   0.662  33.001  0.00  0.00    -0.102 NA
ATOM     12  C   UNL d   1      57.512   0.506  33.559  0.00  0.00     0.297 C 
ATOM     13  O   UNL d   1      57.648   0.681  34.355  0.00  0.00    -0.264 OA
BRANCH  12  14
ATOM     14  C   UNL d   1      56.800   0.177  33.317  0.00  0.00     0.059 A 
ATOM     15  C   UNL d   1      56.776  -0.626  33.119  0.00  0.00     0.005 A 
ATOM     16  C   UNL d   1      56.057  -0.964  32.873  0.00  0.00     0.000 A 
ATOM     17  C   UNL d   1      55.382  -0.492  32.831  0.00  0.00     0.000 A 
ATOM     18  C   UNL d   1      55.412   0.304  33.028  0.00  0.00     0.000 A 
ATOM     19  C   UNL d   1      56.127   0.640  33.272  0.00  0.00     0.005 A 
ENDBRANCH  12  14
ENDBRANCH   9  11
ENDBRANCH   2   8
BRANCH   1  20
ATOM     20  C   UNL d   1      58.955  -0.537  28.983  0.00  0.00     0.302 C 
ATOM     21  O   UNL d   1      59.503  -0.150  28.503  0.00  0.00    -0.259 OA
BRANCH  20  22
ATOM     22  O   UNL d   1      58.723  -1.311  28.805  0.00  0.00    -0.271 OA
BRANCH  22  23
ATOM     23  C   UNL d   1      59.252  -1.822  28.458  0.00  0.00     0.126 C 
ATOM     24  C   UNL d   1      59.347  -2.587  28.753  0.00  0.00     0.029 C 
ENDBRANCH  22  23
ENDBRANCH  20  22
ENDBRANCH   1  20
TORSDOF 6
ENDMDL
