MODEL 1
REMARK VINA RESULT:      -4.6      0.000      0.000
REMARK  5 active torsions:
REMARK  status: ('A' for Active; 'I' for Inactive)
REMARK       I    between atoms: C_8  and  N_1 
REMARK    1  A    between atoms: C_7  and  C_3 
REMARK    2  A    between atoms: S_4  and  N_9 
REMARK    3  A    between atoms: C_21  and  S_4 
REMARK    4  A    between atoms: C_11  and  C_5 
REMARK    5  A    between atoms: N_9  and  C_20 
ROOT
ATOM      1  N   UNL d   1      59.096  -0.720  29.460  0.00  0.00    -0.194 N 
ATOM      2  N   UNL d   1      58.690  -0.176  29.960  0.00  0.00    -0.163 NA
ATOM      3  C   UNL d   1      58.826  -1.462  29.613  0.00  0.00     0.093 A 
ATOM      4  C   UNL d   1      58.167  -0.610  30.420  0.00  0.00     0.103 A 
ATOM      5  C   UNL d   1      58.241  -1.415  30.215  0.00  0.00     0.041 A 
ATOM      6  C   UNL d   1      59.670  -0.524  28.909  0.00  0.00     0.281 C 
ATOM      7  O   UNL d   1      60.023  -1.111  28.455  0.00  0.00    -0.265 OA
ATOM      8  C   UNL d   1      59.895   0.265  28.808  0.00  0.00     0.068 C 
ENDROOT
BRANCH   4   9
ATOM      9  C   UNL d   1      57.646  -0.338  30.994  0.00  0.00     0.019 A 
ATOM     10  C   UNL d   1      57.026  -0.826  31.246  0.00  0.00     0.003 A 
ATOM     11  C   UNL d   1      56.507  -0.555  31.816  0.00  0.00     0.020 A 
ATOM     12  C   UNL d   1      56.597   0.197  32.141  0.00  0.00     0.094 A 
ATOM     13  C   UNL d   1      57.214   0.682  31.889  0.00  0.00     0.020 A 
ATOM     14  C   UNL d   1      57.743   0.415  31.312  0.00  0.00     0.003 A 
BRANCH  12  15
ATOM     15  N   UNL d   1      56.074   0.481  32.722  0.00  0.00    -0.158 NA
BRANCH  15  16
ATOM     16  S   UNL d   1      55.907   0.021  33.374  0.00  0.00     0.286 S 
ATOM     17  O   UNL d   1      55.718  -0.446  34.047  0.00  0.00    -0.198 OA
ATOM     18  O   UNL d   1      56.676  -0.290  33.358  0.00  0.00    -0.198 OA
BRANCH  16  19
ATOM     19  C   UNL d   1      55.132   0.333  33.394  0.00  0.00     0.117 C 
ATOM     20  C   UNL d   1      54.806   0.596  34.098  0.00  0.00     0.014 C 
ENDBRANCH  16  19
ENDBRANCH  15  16
ENDBRANCH  12  15
ENDBRANCH   4   9
BRANCH   3  21
ATOM     21  C   UNL d   1      59.080  -2.147  29.244  0.00  0.00     0.047 A 
ATOM     22  S   UNL d   1      59.826  -2.496  29.322  0.00  0.00    -0.085 SA
ATOM     23  C   UNL d   1      59.842  -3.175  28.855  0.00  0.00     0.035 A 
ATOM     24  C   UNL d   1      59.109  -3.250  28.487  0.00  0.00     0.007 A 
ATOM     25  C   UNL d   1      58.637  -2.616  28.726  0.00  0.00     0.009 A 
ENDBRANCH   3  21
TORSDOF 5
ENDMDL
MODEL 2
REMARK VINA RESULT:      -4.5      1.015      1.811
REMARK  5 active torsions:
REMARK  status: ('A' for Active; 'I' for Inactive)
REMARK       I    between atoms: C_8  and  N_1 
REMARK    1  A    between atoms: C_7  and  C_3 
REMARK    2  A    between atoms: S_4  and  N_9 
REMARK    3  A    between atoms: C_21  and  S_4 
REMARK    4  A    between atoms: C_11  and  C_5 
REMARK    5  A    between atoms: N_9  and  C_20 
ROOT
ATOM      1  N   UNL d   1      58.666  -0.794  29.652  0.00  0.00    -0.194 N 
ATOM      2  N   UNL d   1      58.013  -0.840  30.184  0.00  0.00    -0.163 NA
ATOM      3  C   UNL d   1      59.077  -0.120  29.808  0.00  0.00     0.093 A 
ATOM      4  C   UNL d   1      58.041  -0.177  30.665  0.00  0.00     0.103 A 
ATOM      5  C   UNL d   1      58.701   0.283  30.442  0.00  0.00     0.041 A 
ATOM      6  C   UNL d   1      58.850  -1.344  29.073  0.00  0.00     0.281 C 
ATOM      7  O   UNL d   1      59.505  -1.230  28.591  0.00  0.00    -0.265 OA
ATOM      8  C   UNL d   1      58.377  -2.015  28.974  0.00  0.00     0.068 C 
ENDROOT
BRANCH   4   9
ATOM      9  C   UNL d   1      57.529   0.035  31.271  0.00  0.00     0.019 A 
ATOM     10  C   UNL d   1      57.805   0.048  32.053  0.00  0.00     0.003 A 
ATOM     11  C   UNL d   1      57.296   0.258  32.656  0.00  0.00     0.020 A 
ATOM     12  C   UNL d   1      56.513   0.457  32.493  0.00  0.00     0.094 A 
ATOM     13  C   UNL d   1      56.239   0.444  31.716  0.00  0.00     0.020 A 
ATOM     14  C   UNL d   1      56.748   0.232  31.099  0.00  0.00     0.003 A 
BRANCH  12  15
ATOM     15  N   UNL d   1      55.987   0.673  33.100  0.00  0.00    -0.158 NA
BRANCH  15  16
ATOM     16  S   UNL d   1      55.596   0.093  33.520  0.00  0.00     0.286 S 
ATOM     17  O   UNL d   1      55.198  -0.496  33.970  0.00  0.00    -0.198 OA
ATOM     18  O   UNL d   1      55.426  -0.311  32.816  0.00  0.00    -0.198 OA
BRANCH  16  19
ATOM     19  C   UNL d   1      55.766   0.497  34.232  0.00  0.00     0.117 C 
ATOM     20  C   UNL d   1      55.265   0.433  34.877  0.00  0.00     0.014 C 
ENDBRANCH  16  19
ENDBRANCH  15  16
ENDBRANCH  12  15
ENDBRANCH   4   9
BRANCH   3  21
ATOM     21  C   UNL d   1      59.749   0.129  29.414  0.00  0.00     0.047 A 
ATOM     22  S   UNL d   1      60.531   0.019  29.663  0.00  0.00    -0.085 SA
ATOM     23  C   UNL d   1      61.030   0.357  29.101  0.00  0.00     0.035 A 
ATOM     24  C   UNL d   1      60.562   0.677  28.503  0.00  0.00     0.007 A 
ATOM     25  C   UNL d   1      59.772   0.537  28.695  0.00  0.00     0.009 A 
ENDBRANCH   3  21
TORSDOF 5
ENDMDL
MODEL 3
REMARK VINA RESULT:      -3.9      1.747      5.267
REMARK  5 active torsions:
REMARK  status: ('A' for Active; 'I' for Inactive)
REMARK       I    between atoms: C_8  and  N_1 
REMARK    1  A    between atoms: C_7  and  C_3 
REMARK    2  A    between atoms: S_4  and  N_9 
REMARK    3  A    between atoms: C_21  and  S_4 
REMARK    4  A    between atoms: C_11  and  C_5 
REMARK    5  A    between atoms: N_9  and  C_20 
ROOT
ATOM      1  N   UNL d   1      56.238  -0.891  32.499  0.00  0.00    -0.194 N 
ATOM      2  N   UNL d   1      56.749  -0.965  31.832  0.00  0.00    -0.163 NA
ATOM      3  C   UNL d   1      56.197  -0.115  32.706  0.00  0.00     0.093 A 
ATOM      4  C   UNL d   1      57.015  -0.212  31.642  0.00  0.00     0.103 A 
ATOM      5  C   UNL d   1      56.678   0.330  32.179  0.00  0.00     0.041 A 
ATOM      6  C   UNL d   1      55.850  -1.508  32.873  0.00  0.00     0.281 C 
ATOM      7  O   UNL d   1      55.367  -1.357  33.520  0.00  0.00    -0.265 OA
ATOM      8  C   UNL d   1      55.943  -2.283  32.600  0.00  0.00     0.068 C 
ENDROOT
BRANCH   4   9
ATOM      9  C   UNL d   1      57.523   0.011  31.037  0.00  0.00     0.019 A 
ATOM     10  C   UNL d   1      58.341  -0.069  31.141  0.00  0.00     0.003 A 
ATOM     11  C   UNL d   1      58.847   0.153  30.539  0.00  0.00     0.020 A 
ATOM     12  C   UNL d   1      58.550   0.454  29.832  0.00  0.00     0.094 A 
ATOM     13  C   UNL d   1      57.736   0.532  29.729  0.00  0.00     0.020 A 
ATOM     14  C   UNL d   1      57.218   0.310  30.333  0.00  0.00     0.003 A 
BRANCH  12  15
ATOM     15  N   UNL d   1      59.058   0.682  29.213  0.00  0.00    -0.158 NA
BRANCH  15  16
ATOM     16  S   UNL d   1      59.534   0.124  28.857  0.00  0.00     0.286 S 
ATOM     17  O   UNL d   1      60.041  -0.439  28.492  0.00  0.00    -0.198 OA
ATOM     18  O   UNL d   1      58.877  -0.366  28.730  0.00  0.00    -0.198 OA
BRANCH  16  19
ATOM     19  C   UNL d   1      60.199   0.615  28.983  0.00  0.00     0.117 C 
ATOM     20  C   UNL d   1      60.922   0.435  28.641  0.00  0.00     0.014 C 
ENDBRANCH  16  19
ENDBRANCH  15  16
ENDBRANCH  12  15
ENDBRANCH   4   9
BRANCH   3  21
ATOM     21  C   UNL d   1      55.759   0.190  33.326  0.00  0.00     0.047 A 
ATOM     22  S   UNL d   1      56.048   0.402  34.072  0.00  0.00    -0.085 SA
ATOM     23  C   UNL d   1      55.418   0.682  34.523  0.00  0.00     0.035 A 
ATOM     24  C   UNL d   1      54.737   0.646  34.061  0.00  0.00     0.007 A 
ATOM     25  C   UNL d   1      54.946   0.342  33.322  0.00  0.00     0.009 A 
ENDBRANCH   3  21
TORSDOF 5
ENDMDL
