MODEL 1
REMARK VINA RESULT:      -6.0      0.000      0.000
REMARK  9 active torsions:
REMARK  status: ('A' for Active; 'I' for Inactive)
REMARK    1  A    between atoms: S_3  and  C_1 
REMARK    2  A    between atoms: C_7  and  S_3 
REMARK    3  A    between atoms: N_8  and  C_4 
REMARK    4  A    between atoms: C_19  and  N_8 
REMARK    5  A    between atoms: C_20  and  N_8 
REMARK    6  A    between atoms: O_17  and  C_22 
REMARK    7  A    between atoms: O_18  and  C_21 
REMARK    8  A    between atoms: C_21  and  C_19 
REMARK    9  A    between atoms: C_22  and  C_20 
ROOT
ATOM      1  C   UNL d   1     -47.280  13.335  22.767  0.00  0.00     0.187 A 
ATOM      2  N   UNL d   1     -46.649  12.834  22.657  0.00  0.00    -0.209 NA
ATOM      3  C   UNL d   1     -45.971  13.306  22.588  0.00  0.00     0.181 A 
ATOM      4  S   UNL d   1     -46.199  14.090  22.657  0.00  0.00    -0.036 SA
ATOM      5  C   UNL d   1     -47.009  14.103  22.768  0.00  0.00     0.118 A 
ATOM      6 CL   UNL d   1     -47.657  14.601  22.881  0.00  0.00    -0.073 Cl
ENDROOT
BRANCH   1   7
ATOM      7  S   UNL d   1     -48.063  13.101  22.862  0.00  0.00     0.228 S 
ATOM      8  O   UNL d   1     -48.301  12.734  23.553  0.00  0.00    -0.216 OA
ATOM      9  O   UNL d   1     -48.608  13.238  22.260  0.00  0.00    -0.216 OA
BRANCH   7  10
ATOM     10  C   UNL d   1     -48.817  12.823  23.072  0.00  0.00     0.089 A 
ATOM     11  C   UNL d   1     -49.387  13.358  23.367  0.00  0.00     0.011 A 
ATOM     12  C   UNL d   1     -50.138  13.078  23.575  0.00  0.00     0.001 A 
ATOM     13  C   UNL d   1     -50.322  12.276  23.492  0.00  0.00     0.000 A 
ATOM     14  C   UNL d   1     -49.750  11.740  23.197  0.00  0.00     0.001 A 
ATOM     15  C   UNL d   1     -51.064  11.996  23.698  0.00  0.00     0.000 C 
ATOM     16  C   UNL d   1     -49.003  12.021  22.990  0.00  0.00     0.011 A 
ENDBRANCH   7  10
ENDBRANCH   1   7
BRANCH   3  17
ATOM     17  N   UNL d   1     -45.329  12.813  22.476  0.00  0.00    -0.280 N 
BRANCH  17  18
ATOM     18  C   UNL d   1     -44.910  12.835  21.768  0.00  0.00     0.108 C 
BRANCH  18  19
ATOM     19  C   UNL d   1     -44.097  12.972  21.773  0.00  0.00     0.135 C 
BRANCH  19  20
ATOM     20  O   UNL d   1     -43.682  13.019  21.063  0.00  0.00    -0.325 OA
ATOM     21  C   UNL d   1     -42.861  12.932  21.057  0.00  0.00     0.182 C 
ENDBRANCH  19  20
ENDBRANCH  18  19
ENDBRANCH  17  18
BRANCH  17  22
ATOM     22  C   UNL d   1     -44.824  12.226  22.757  0.00  0.00     0.108 C 
BRANCH  22  23
ATOM     23  C   UNL d   1     -45.130  11.567  23.127  0.00  0.00     0.135 C 
BRANCH  23  24
ATOM     24  O   UNL d   1     -44.623  10.994  23.434  0.00  0.00    -0.325 OA
ATOM     25  C   UNL d   1     -44.920  10.277  23.697  0.00  0.00     0.182 C 
ENDBRANCH  23  24
ENDBRANCH  22  23
ENDBRANCH  17  22
ENDBRANCH   3  17
TORSDOF 9
ENDMDL
MODEL 2
REMARK VINA RESULT:      -5.6      0.952      1.987
REMARK  9 active torsions:
REMARK  status: ('A' for Active; 'I' for Inactive)
REMARK    1  A    between atoms: S_3  and  C_1 
REMARK    2  A    between atoms: C_7  and  S_3 
REMARK    3  A    between atoms: N_8  and  C_4 
REMARK    4  A    between atoms: C_19  and  N_8 
REMARK    5  A    between atoms: C_20  and  N_8 
REMARK    6  A    between atoms: O_17  and  C_22 
REMARK    7  A    between atoms: O_18  and  C_21 
REMARK    8  A    between atoms: C_21  and  C_19 
REMARK    9  A    between atoms: C_22  and  C_20 
ROOT
ATOM      1  C   UNL d   1     -47.134  13.429  22.564  0.00  0.00     0.187 A 
ATOM      2  N   UNL d   1     -46.559  12.872  22.423  0.00  0.00    -0.209 NA
ATOM      3  C   UNL d   1     -45.832  13.212  22.630  0.00  0.00     0.181 A 
ATOM      4  S   UNL d   1     -45.975  13.974  22.895  0.00  0.00    -0.036 SA
ATOM      5  C   UNL d   1     -46.781  14.104  22.853  0.00  0.00     0.118 A 
ATOM      6 CL   UNL d   1     -47.374  14.661  22.991  0.00  0.00    -0.073 Cl
ENDROOT
BRANCH   1   7
ATOM      7  S   UNL d   1     -47.940  13.325  22.435  0.00  0.00     0.228 S 
ATOM      8  O   UNL d   1     -48.214  13.120  21.692  0.00  0.00    -0.216 OA
ATOM      9  O   UNL d   1     -48.472  13.428  23.056  0.00  0.00    -0.216 OA
BRANCH   7  10
ATOM     10  C   UNL d   1     -48.721  13.194  22.185  0.00  0.00     0.089 A 
ATOM     11  C   UNL d   1     -49.227  12.717  22.647  0.00  0.00     0.011 A 
ATOM     12  C   UNL d   1     -50.006  12.588  22.396  0.00  0.00     0.001 A 
ATOM     13  C   UNL d   1     -50.279  12.928  21.693  0.00  0.00     0.000 A 
ATOM     14  C   UNL d   1     -49.771  13.406  21.230  0.00  0.00     0.001 A 
ATOM     15  C   UNL d   1     -51.049  12.802  21.442  0.00  0.00     0.000 C 
ATOM     16  C   UNL d   1     -48.996  13.534  21.482  0.00  0.00     0.011 A 
ENDBRANCH   7  10
ENDBRANCH   1   7
BRANCH   3  17
ATOM     17  N   UNL d   1     -45.245  12.661  22.493  0.00  0.00    -0.280 N 
BRANCH  17  18
ATOM     18  C   UNL d   1     -45.367  11.872  22.690  0.00  0.00     0.108 C 
BRANCH  18  19
ATOM     19  C   UNL d   1     -44.903  11.514  23.271  0.00  0.00     0.135 C 
BRANCH  19  20
ATOM     20  O   UNL d   1     -45.011  10.718  23.454  0.00  0.00    -0.325 OA
ATOM     21  C   UNL d   1     -44.370  10.259  23.698  0.00  0.00     0.182 C 
ENDBRANCH  19  20
ENDBRANCH  18  19
ENDBRANCH  17  18
BRANCH  17  22
ATOM     22  C   UNL d   1     -44.491  12.477  22.218  0.00  0.00     0.108 C 
BRANCH  22  23
ATOM     23  C   UNL d   1     -44.196  12.845  21.552  0.00  0.00     0.135 C 
BRANCH  23  24
ATOM     24  O   UNL d   1     -43.507  12.567  21.197  0.00  0.00    -0.325 OA
ATOM     25  C   UNL d   1     -42.900  13.083  21.009  0.00  0.00     0.182 C 
ENDBRANCH  23  24
ENDBRANCH  22  23
ENDBRANCH  17  22
ENDBRANCH   3  17
TORSDOF 9
ENDMDL
MODEL 3
REMARK VINA RESULT:      -5.1      5.988      9.393
REMARK  9 active torsions:
REMARK  status: ('A' for Active; 'I' for Inactive)
REMARK    1  A    between atoms: S_3  and  C_1 
REMARK    2  A    between atoms: C_7  and  S_3 
REMARK    3  A    between atoms: N_8  and  C_4 
REMARK    4  A    between atoms: C_19  and  N_8 
REMARK    5  A    between atoms: C_20  and  N_8 
REMARK    6  A    between atoms: O_17  and  C_22 
REMARK    7  A    between atoms: O_18  and  C_21 
REMARK    8  A    between atoms: C_21  and  C_19 
REMARK    9  A    between atoms: C_22  and  C_20 
ROOT
ATOM      1  C   UNL d   1     -39.910  15.011  18.495  0.00  0.00     0.187 A 
ATOM      2  N   UNL d   1     -39.896  14.699  19.246  0.00  0.00    -0.209 NA
ATOM      3  C   UNL d   1     -40.450  15.120  19.697  0.00  0.00     0.181 A 
ATOM      4  S   UNL d   1     -40.794  15.684  19.213  0.00  0.00    -0.036 SA
ATOM      5  C   UNL d   1     -40.457  15.613  18.472  0.00  0.00     0.118 A 
ATOM      6 CL   UNL d   1     -40.461  15.922  17.706  0.00  0.00    -0.073 Cl
ENDROOT
BRANCH   1   7
ATOM      7  S   UNL d   1     -39.445  14.757  17.866  0.00  0.00     0.228 S 
ATOM      8  O   UNL d   1     -39.694  14.136  17.396  0.00  0.00    -0.216 OA
ATOM      9  O   UNL d   1     -38.727  15.131  17.709  0.00  0.00    -0.216 OA
BRANCH   7  10
ATOM     10  C   UNL d   1     -39.067  14.416  17.209  0.00  0.00     0.089 A 
ATOM     11  C   UNL d   1     -39.054  14.826  16.482  0.00  0.00     0.011 A 
ATOM     12  C   UNL d   1     -38.677  14.483  15.829  0.00  0.00     0.001 A 
ATOM     13  C   UNL d   1     -38.316  13.742  15.897  0.00  0.00     0.000 A 
ATOM     14  C   UNL d   1     -38.330  13.331  16.627  0.00  0.00     0.001 A 
ATOM     15  C   UNL d   1     -37.942  13.400  15.253  0.00  0.00     0.000 C 
ATOM     16  C   UNL d   1     -38.707  13.674  17.276  0.00  0.00     0.011 A 
ENDBRANCH   7  10
ENDBRANCH   1   7
BRANCH   3  17
ATOM     17  N   UNL d   1     -40.446  14.815  20.455  0.00  0.00    -0.280 N 
BRANCH  17  18
ATOM     18  C   UNL d   1     -41.155  14.685  20.851  0.00  0.00     0.108 C 
BRANCH  18  19
ATOM     19  C   UNL d   1     -41.413  13.915  20.995  0.00  0.00     0.135 C 
BRANCH  19  20
ATOM     20  O   UNL d   1     -42.086  13.783  21.452  0.00  0.00    -0.325 OA
ATOM     21  C   UNL d   1     -42.577  13.140  21.290  0.00  0.00     0.182 C 
ENDBRANCH  19  20
ENDBRANCH  18  19
ENDBRANCH  17  18
BRANCH  17  22
ATOM     22  C   UNL d   1     -40.029  14.535  21.107  0.00  0.00     0.108 C 
BRANCH  22  23
ATOM     23  C   UNL d   1     -39.412  14.970  21.417  0.00  0.00     0.135 C 
BRANCH  23  24
ATOM     24  O   UNL d   1     -39.130  14.805  22.173  0.00  0.00    -0.325 OA
ATOM     25  C   UNL d   1     -38.338  14.915  22.351  0.00  0.00     0.182 C 
ENDBRANCH  23  24
ENDBRANCH  22  23
ENDBRANCH  17  22
ENDBRANCH   3  17
TORSDOF 9
ENDMDL
MODEL 4
REMARK VINA RESULT:      -4.9      1.644      4.916
REMARK  9 active torsions:
REMARK  status: ('A' for Active; 'I' for Inactive)
REMARK    1  A    between atoms: S_3  and  C_1 
REMARK    2  A    between atoms: C_7  and  S_3 
REMARK    3  A    between atoms: N_8  and  C_4 
REMARK    4  A    between atoms: C_19  and  N_8 
REMARK    5  A    between atoms: C_20  and  N_8 
REMARK    6  A    between atoms: O_17  and  C_22 
REMARK    7  A    between atoms: O_18  and  C_21 
REMARK    8  A    between atoms: C_21  and  C_19 
REMARK    9  A    between atoms: C_22  and  C_20 
ROOT
ATOM      1  C   UNL d   1     -47.049  12.512  22.992  0.00  0.00     0.187 A 
ATOM      2  N   UNL d   1     -47.682  12.967  22.762  0.00  0.00    -0.209 NA
ATOM      3  C   UNL d   1     -48.360  12.637  23.107  0.00  0.00     0.181 A 
ATOM      4  S   UNL d   1     -48.129  11.984  23.545  0.00  0.00    -0.036 SA
ATOM      5  C   UNL d   1     -47.318  11.910  23.471  0.00  0.00     0.118 A 
ATOM      6 CL   UNL d   1     -46.668  11.456  23.698  0.00  0.00    -0.073 Cl
ENDROOT
BRANCH   1   7
ATOM      7  S   UNL d   1     -46.265  12.640  22.776  0.00  0.00     0.228 S 
ATOM      8  O   UNL d   1     -45.976  12.327  22.079  0.00  0.00    -0.216 OA
ATOM      9  O   UNL d   1     -45.773  13.086  23.264  0.00  0.00    -0.216 OA
BRANCH   7  10
ATOM     10  C   UNL d   1     -45.502  12.702  22.455  0.00  0.00     0.089 A 
ATOM     11  C   UNL d   1     -44.946  12.095  22.595  0.00  0.00     0.011 A 
ATOM     12  C   UNL d   1     -44.185  12.158  22.274  0.00  0.00     0.001 A 
ATOM     13  C   UNL d   1     -43.978  12.817  21.818  0.00  0.00     0.000 A 
ATOM     14  C   UNL d   1     -44.537  13.425  21.678  0.00  0.00     0.001 A 
ATOM     15  C   UNL d   1     -43.226  12.882  21.499  0.00  0.00     0.000 C 
ATOM     16  C   UNL d   1     -45.293  13.360  21.999  0.00  0.00     0.011 A 
ENDBRANCH   7  10
ENDBRANCH   1   7
BRANCH   3  17
ATOM     17  N   UNL d   1     -49.004  13.086  22.882  0.00  0.00    -0.280 N 
BRANCH  17  18
ATOM     18  C   UNL d   1     -49.330  13.630  23.406  0.00  0.00     0.108 C 
BRANCH  18  19
ATOM     19  C   UNL d   1     -49.476  14.404  23.161  0.00  0.00     0.135 C 
BRANCH  19  20
ATOM     20  O   UNL d   1     -49.416  15.026  23.698  0.00  0.00    -0.325 OA
ATOM     21  C   UNL d   1     -49.830  15.727  23.567  0.00  0.00     0.182 C 
ENDBRANCH  19  20
ENDBRANCH  18  19
ENDBRANCH  17  18
BRANCH  17  22
ATOM     22  C   UNL d   1     -49.564  13.294  22.317  0.00  0.00     0.108 C 
BRANCH  22  23
ATOM     23  C   UNL d   1     -49.955  12.715  21.895  0.00  0.00     0.135 C 
BRANCH  23  24
ATOM     24  O   UNL d   1     -50.275  12.887  21.156  0.00  0.00    -0.325 OA
ATOM     25  C   UNL d   1     -51.038  13.177  21.093  0.00  0.00     0.182 C 
ENDBRANCH  23  24
ENDBRANCH  22  23
ENDBRANCH  17  22
ENDBRANCH   3  17
TORSDOF 9
ENDMDL
MODEL 5
REMARK VINA RESULT:      -4.3      1.395      4.502
REMARK  9 active torsions:
REMARK  status: ('A' for Active; 'I' for Inactive)
REMARK    1  A    between atoms: S_3  and  C_1 
REMARK    2  A    between atoms: C_7  and  S_3 
REMARK    3  A    between atoms: N_8  and  C_4 
REMARK    4  A    between atoms: C_19  and  N_8 
REMARK    5  A    between atoms: C_20  and  N_8 
REMARK    6  A    between atoms: O_17  and  C_22 
REMARK    7  A    between atoms: O_18  and  C_21 
REMARK    8  A    between atoms: C_21  and  C_19 
REMARK    9  A    between atoms: C_22  and  C_20 
ROOT
ATOM      1  C   UNL d   1     -46.249  12.740  22.700  0.00  0.00     0.187 A 
ATOM      2  N   UNL d   1     -46.994  12.792  23.021  0.00  0.00    -0.209 NA
ATOM      3  C   UNL d   1     -47.371  13.438  22.662  0.00  0.00     0.181 A 
ATOM      4  S   UNL d   1     -46.848  13.771  22.127  0.00  0.00    -0.036 SA
ATOM      5  C   UNL d   1     -46.156  13.337  22.154  0.00  0.00     0.118 A 
ATOM      6 CL   UNL d   1     -45.397  13.274  21.836  0.00  0.00    -0.073 Cl
ENDROOT
BRANCH   1   7
ATOM      7  S   UNL d   1     -45.684  12.176  22.898  0.00  0.00     0.228 S 
ATOM      8  O   UNL d   1     -45.905  11.398  23.016  0.00  0.00    -0.216 OA
ATOM      9  O   UNL d   1     -44.894  12.397  22.978  0.00  0.00    -0.216 OA
BRANCH   7  10
ATOM     10  C   UNL d   1     -45.209  11.524  23.099  0.00  0.00     0.089 A 
ATOM     11  C   UNL d   1     -45.561  10.847  23.438  0.00  0.00     0.011 A 
ATOM     12  C   UNL d   1     -45.086  10.199  23.637  0.00  0.00     0.001 A 
ATOM     13  C   UNL d   1     -44.271  10.222  23.502  0.00  0.00     0.000 A 
ATOM     14  C   UNL d   1     -43.918  10.902  23.162  0.00  0.00     0.001 A 
ATOM     15  C   UNL d   1     -43.798   9.582  23.698  0.00  0.00     0.000 C 
ATOM     16  C   UNL d   1     -44.393  11.546  22.964  0.00  0.00     0.011 A 
ENDBRANCH   7  10
ENDBRANCH   1   7
BRANCH   3  17
ATOM     17  N   UNL d   1     -48.123  13.501  22.976  0.00  0.00    -0.280 N 
BRANCH  17  18
ATOM     18  C   UNL d   1     -48.353  14.192  23.359  0.00  0.00     0.108 C 
BRANCH  18  19
ATOM     19  C   UNL d   1     -48.845  14.732  22.976  0.00  0.00     0.135 C 
BRANCH  19  20
ATOM     20  O   UNL d   1     -49.132  15.389  23.382  0.00  0.00    -0.325 OA
ATOM     21  C   UNL d   1     -49.860  15.717  23.176  0.00  0.00     0.182 C 
ENDBRANCH  19  20
ENDBRANCH  18  19
ENDBRANCH  17  18
BRANCH  17  22
ATOM     22  C   UNL d   1     -48.864  13.173  23.120  0.00  0.00     0.108 C 
BRANCH  22  23
ATOM     23  C   UNL d   1     -48.947  12.365  23.192  0.00  0.00     0.135 C 
BRANCH  23  24
ATOM     24  O   UNL d   1     -49.517  12.051  23.697  0.00  0.00    -0.325 OA
ATOM     25  C   UNL d   1     -49.946  11.389  23.478  0.00  0.00     0.182 C 
ENDBRANCH  23  24
ENDBRANCH  22  23
ENDBRANCH  17  22
ENDBRANCH   3  17
TORSDOF 9
ENDMDL
MODEL 6
REMARK VINA RESULT:      -4.3      1.467      4.847
REMARK  9 active torsions:
REMARK  status: ('A' for Active; 'I' for Inactive)
REMARK    1  A    between atoms: S_3  and  C_1 
REMARK    2  A    between atoms: C_7  and  S_3 
REMARK    3  A    between atoms: N_8  and  C_4 
REMARK    4  A    between atoms: C_19  and  N_8 
REMARK    5  A    between atoms: C_20  and  N_8 
REMARK    6  A    between atoms: O_17  and  C_22 
REMARK    7  A    between atoms: O_18  and  C_21 
REMARK    8  A    between atoms: C_21  and  C_19 
REMARK    9  A    between atoms: C_22  and  C_20 
ROOT
ATOM      1  C   UNL d   1     -46.934  13.590  22.517  0.00  0.00     0.187 A 
ATOM      2  N   UNL d   1     -47.662  13.238  22.433  0.00  0.00    -0.209 NA
ATOM      3  C   UNL d   1     -48.232  13.799  22.655  0.00  0.00     0.181 A 
ATOM      4  S   UNL d   1     -47.840  14.486  22.870  0.00  0.00    -0.036 SA
ATOM      5  C   UNL d   1     -47.039  14.352  22.783  0.00  0.00     0.118 A 
ATOM      6 CL   UNL d   1     -46.294  14.697  22.864  0.00  0.00    -0.073 Cl
ENDROOT
BRANCH   1   7
ATOM      7  S   UNL d   1     -46.211  13.231  22.357  0.00  0.00     0.228 S 
ATOM      8  O   UNL d   1     -45.705  13.037  22.969  0.00  0.00    -0.216 OA
ATOM      9  O   UNL d   1     -45.997  13.067  21.578  0.00  0.00    -0.216 OA
BRANCH   7  10
ATOM     10  C   UNL d   1     -45.463  12.870  22.321  0.00  0.00     0.089 A 
ATOM     11  C   UNL d   1     -44.869  13.200  21.836  0.00  0.00     0.011 A 
ATOM     12  C   UNL d   1     -44.125  12.839  21.802  0.00  0.00     0.001 A 
ATOM     13  C   UNL d   1     -43.971  12.157  22.244  0.00  0.00     0.000 A 
ATOM     14  C   UNL d   1     -44.568  11.827  22.731  0.00  0.00     0.001 A 
ATOM     15  C   UNL d   1     -43.236  11.797  22.212  0.00  0.00     0.000 C 
ATOM     16  C   UNL d   1     -45.308  12.188  22.763  0.00  0.00     0.011 A 
ENDBRANCH   7  10
ENDBRANCH   1   7
BRANCH   3  17
ATOM     17  N   UNL d   1     -48.969  13.457  22.575  0.00  0.00    -0.280 N 
BRANCH  17  18
ATOM     18  C   UNL d   1     -49.293  13.025  23.196  0.00  0.00     0.108 C 
BRANCH  18  19
ATOM     19  C   UNL d   1     -49.396  12.210  23.123  0.00  0.00     0.135 C 
BRANCH  19  20
ATOM     20  O   UNL d   1     -49.814  11.793  23.698  0.00  0.00    -0.325 OA
ATOM     21  C   UNL d   1     -49.847  10.970  23.670  0.00  0.00     0.182 C 
ENDBRANCH  19  20
ENDBRANCH  18  19
ENDBRANCH  17  18
BRANCH  17  22
ATOM     22  C   UNL d   1     -49.641  13.309  22.122  0.00  0.00     0.108 C 
BRANCH  22  23
ATOM     23  C   UNL d   1     -49.913  13.873  21.599  0.00  0.00     0.135 C 
BRANCH  23  24
ATOM     24  O   UNL d   1     -50.656  13.789  21.252  0.00  0.00    -0.325 OA
ATOM     25  C   UNL d   1     -50.995  14.413  20.844  0.00  0.00     0.182 C 
ENDBRANCH  23  24
ENDBRANCH  22  23
ENDBRANCH  17  22
ENDBRANCH   3  17
TORSDOF 9
ENDMDL
MODEL 7
REMARK VINA RESULT:      -3.6      6.510      8.699
REMARK  9 active torsions:
REMARK  status: ('A' for Active; 'I' for Inactive)
REMARK    1  A    between atoms: S_3  and  C_1 
REMARK    2  A    between atoms: C_7  and  S_3 
REMARK    3  A    between atoms: N_8  and  C_4 
REMARK    4  A    between atoms: C_19  and  N_8 
REMARK    5  A    between atoms: C_20  and  N_8 
REMARK    6  A    between atoms: O_17  and  C_22 
REMARK    7  A    between atoms: O_18  and  C_21 
REMARK    8  A    between atoms: C_21  and  C_19 
REMARK    9  A    between atoms: C_22  and  C_20 
ROOT
ATOM      1  C   UNL d   1     -39.488  14.736  19.027  0.00  0.00     0.187 A 
ATOM      2  N   UNL d   1     -39.790  14.596  19.769  0.00  0.00    -0.209 NA
ATOM      3  C   UNL d   1     -39.172  14.299  20.235  0.00  0.00     0.181 A 
ATOM      4  S   UNL d   1     -38.500  14.261  19.768  0.00  0.00    -0.036 SA
ATOM      5  C   UNL d   1     -38.699  14.532  19.024  0.00  0.00     0.118 A 
ATOM      6 CL   UNL d   1     -38.404  14.678  18.267  0.00  0.00    -0.073 Cl
ENDROOT
BRANCH   1   7
ATOM      7  S   UNL d   1     -39.911  15.034  18.388  0.00  0.00     0.228 S 
ATOM      8  O   UNL d   1     -40.615  14.683  18.163  0.00  0.00    -0.216 OA
ATOM      9  O   UNL d   1     -39.625  15.687  17.975  0.00  0.00    -0.216 OA
BRANCH   7  10
ATOM     10  C   UNL d   1     -40.422  15.242  17.767  0.00  0.00     0.089 A 
ATOM     11  C   UNL d   1     -40.261  14.973  16.993  0.00  0.00     0.011 A 
ATOM     12  C   UNL d   1     -40.771  15.182  16.375  0.00  0.00     0.001 A 
ATOM     13  C   UNL d   1     -41.435  15.652  16.524  0.00  0.00     0.000 A 
ATOM     14  C   UNL d   1     -41.596  15.922  17.300  0.00  0.00     0.001 A 
ATOM     15  C   UNL d   1     -41.942  15.861  15.914  0.00  0.00     0.000 C 
ATOM     16  C   UNL d   1     -41.086  15.713  17.914  0.00  0.00     0.011 A 
ENDBRANCH   7  10
ENDBRANCH   1   7
BRANCH   3  17
ATOM     17  N   UNL d   1     -39.465  14.155  20.984  0.00  0.00    -0.280 N 
BRANCH  17  18
ATOM     18  C   UNL d   1     -38.975  14.236  21.640  0.00  0.00     0.108 C 
BRANCH  18  19
ATOM     19  C   UNL d   1     -39.067  14.881  22.146  0.00  0.00     0.135 C 
BRANCH  19  20
ATOM     20  O   UNL d   1     -38.506  15.029  22.731  0.00  0.00    -0.325 OA
ATOM     21  C   UNL d   1     -38.606  15.664  23.248  0.00  0.00     0.182 C 
ENDBRANCH  19  20
ENDBRANCH  18  19
ENDBRANCH  17  18
BRANCH  17  22
ATOM     22  C   UNL d   1     -40.089  13.940  21.475  0.00  0.00     0.108 C 
BRANCH  22  23
ATOM     23  C   UNL d   1     -40.775  13.635  21.155  0.00  0.00     0.135 C 
BRANCH  23  24
ATOM     24  O   UNL d   1     -41.469  13.623  21.600  0.00  0.00    -0.325 OA
ATOM     25  C   UNL d   1     -42.145  13.270  21.303  0.00  0.00     0.182 C 
ENDBRANCH  23  24
ENDBRANCH  22  23
ENDBRANCH  17  22
ENDBRANCH   3  17
TORSDOF 9
ENDMDL
MODEL 8
REMARK VINA RESULT:      -3.5      1.673      2.706
REMARK  9 active torsions:
REMARK  status: ('A' for Active; 'I' for Inactive)
REMARK    1  A    between atoms: S_3  and  C_1 
REMARK    2  A    between atoms: C_7  and  S_3 
REMARK    3  A    between atoms: N_8  and  C_4 
REMARK    4  A    between atoms: C_19  and  N_8 
REMARK    5  A    between atoms: C_20  and  N_8 
REMARK    6  A    between atoms: O_17  and  C_22 
REMARK    7  A    between atoms: O_18  and  C_21 
REMARK    8  A    between atoms: C_21  and  C_19 
REMARK    9  A    between atoms: C_22  and  C_20 
ROOT
ATOM      1  C   UNL d   1     -47.438  13.739  22.860  0.00  0.00     0.187 A 
ATOM      2  N   UNL d   1     -47.354  12.997  23.180  0.00  0.00    -0.209 NA
ATOM      3  C   UNL d   1     -46.591  12.732  22.992  0.00  0.00     0.181 A 
ATOM      4  S   UNL d   1     -46.220  13.320  22.558  0.00  0.00    -0.036 SA
ATOM      5  C   UNL d   1     -46.747  13.939  22.478  0.00  0.00     0.118 A 
ATOM      6 CL   UNL d   1     -46.844  14.693  22.158  0.00  0.00    -0.073 Cl
ENDROOT
BRANCH   1   7
ATOM      7  S   UNL d   1     -48.111  14.208  22.913  0.00  0.00     0.228 S 
ATOM      8  O   UNL d   1     -48.781  14.016  22.484  0.00  0.00    -0.216 OA
ATOM      9  O   UNL d   1     -48.111  14.873  23.400  0.00  0.00    -0.216 OA
BRANCH   7  10
ATOM     10  C   UNL d   1     -48.843  14.600  22.885  0.00  0.00     0.089 A 
ATOM     11  C   UNL d   1     -48.937  15.263  22.387  0.00  0.00     0.011 A 
ATOM     12  C   UNL d   1     -49.668  15.652  22.361  0.00  0.00     0.001 A 
ATOM     13  C   UNL d   1     -50.299  15.386  22.824  0.00  0.00     0.000 A 
ATOM     14  C   UNL d   1     -50.204  14.721  23.324  0.00  0.00     0.001 A 
ATOM     15  C   UNL d   1     -51.023  15.769  22.801  0.00  0.00     0.000 C 
ATOM     16  C   UNL d   1     -49.476  14.335  23.349  0.00  0.00     0.011 A 
ENDBRANCH   7  10
ENDBRANCH   1   7
BRANCH   3  17
ATOM     17  N   UNL d   1     -46.495  11.986  23.310  0.00  0.00    -0.280 N 
BRANCH  17  18
ATOM     18  C   UNL d   1     -47.121  11.620  23.698  0.00  0.00     0.108 C 
BRANCH  18  19
ATOM     19  C   UNL d   1     -47.526  10.999  23.335  0.00  0.00     0.135 C 
BRANCH  19  20
ATOM     20  O   UNL d   1     -48.193  10.675  23.694  0.00  0.00    -0.325 OA
ATOM     21  C   UNL d   1     -48.916  10.671  23.297  0.00  0.00     0.182 C 
ENDBRANCH  19  20
ENDBRANCH  18  19
ENDBRANCH  17  18
BRANCH  17  22
ATOM     22  C   UNL d   1     -46.020  11.329  23.454  0.00  0.00     0.108 C 
BRANCH  22  23
ATOM     23  C   UNL d   1     -45.208  11.392  23.403  0.00  0.00     0.135 C 
BRANCH  23  24
ATOM     24  O   UNL d   1     -44.729  10.769  23.649  0.00  0.00    -0.325 OA
ATOM     25  C   UNL d   1     -44.032  10.601  23.254  0.00  0.00     0.182 C 
ENDBRANCH  23  24
ENDBRANCH  22  23
ENDBRANCH  17  22
ENDBRANCH   3  17
TORSDOF 9
ENDMDL
