MODEL 1
REMARK VINA RESULT:      30.7      0.000      0.000
REMARK  1 active torsions:
REMARK  status: ('A' for Active; 'I' for Inactive)
REMARK    1  A    between atoms: C_9  and  C_3 
ROOT
ATOM      1  C   UNL d   1      13.949  13.190  -2.584  0.00  0.00     0.035 A 
ATOM      2  N   UNL d   1      13.511  11.784  -2.834  0.00  0.00    -0.239 NA
ATOM      3  C   UNL d   1      13.848  12.411  -2.381  0.00  0.00     0.083 A 
ATOM      4  N   UNL d   1      13.380  13.248  -3.990  0.00  0.00    -0.207 NA
ATOM      5  C   UNL d   1      13.740  13.568  -3.305  0.00  0.00     0.086 A 
ATOM      6  C   UNL d   1      13.141  12.469  -4.118  0.00  0.00     0.298 A 
ATOM      7  C   UNL d   1      14.293  13.605  -1.993  0.00  0.00     0.003 A 
ATOM      8  C   UNL d   1      13.204  11.815  -3.591  0.00  0.00     0.161 A 
ATOM      9  C   UNL d   1      13.890  14.371  -3.405  0.00  0.00     0.019 A 
ATOM     10  O   UNL d   1      12.793  12.314  -4.869  0.00  0.00    -0.263 OA
ATOM     11  C   UNL d   1      14.447  14.423  -2.091  0.00  0.00     0.000 A 
ATOM     12  C   UNL d   1      14.241  14.800  -2.806  0.00  0.00     0.002 A 
ATOM     13  C   UNL d   1      14.816  14.843  -1.443  0.00  0.00     0.000 C 
ENDROOT
BRANCH   3  14
ATOM     14  C   UNL d   1      14.107  12.207  -1.638  0.00  0.00     0.018 A 
ATOM     15  C   UNL d   1      14.903  12.107  -1.482  0.00  0.00     0.002 A 
ATOM     16  C   UNL d   1      15.166  11.893  -0.705  0.00  0.00     0.000 A 
ATOM     17  C   UNL d   1      14.600  11.790  -0.114  0.00  0.00     0.000 A 
ATOM     18  C   UNL d   1      13.803  11.892  -0.277  0.00  0.00     0.000 A 
ATOM     19  C   UNL d   1      13.556  12.103  -1.048  0.00  0.00     0.002 A 
ENDBRANCH   3  14
TORSDOF 1
ENDMDL
