MODEL 1
REMARK VINA RESULT:      37.1      0.000      0.000
REMARK  3 active torsions:
REMARK  status: ('A' for Active; 'I' for Inactive)
REMARK    1  A    between atoms: N_5  and  C_1 
REMARK    2  A    between atoms: C_8  and  C_3 
REMARK       I    between atoms: C_7  and  N_5 
REMARK    3  A    between atoms: C_13  and  C_7 
ROOT
ATOM      1  C   UNL d   1     -54.817-101.688 -41.121  0.00  0.00     0.297 A 
ATOM      2  O   UNL d   1     -54.834-101.450 -40.329  0.00  0.00    -0.253 OA
ATOM      3  C   UNL d   1     -54.769-102.131 -39.858  0.00  0.00     0.206 A 
ATOM      4  N   UNL d   1     -54.714-102.779 -40.362  0.00  0.00    -0.119 NA
ATOM      5  N   UNL d   1     -54.744-102.506 -41.141  0.00  0.00    -0.101 NA
ENDROOT
BRANCH   3   6
ATOM      6  C   UNL d   1     -54.763-102.145 -39.026  0.00  0.00     0.043 A 
ATOM      7  C   UNL d   1     -54.772-101.434 -38.606  0.00  0.00     0.004 A 
ATOM      8  C   UNL d   1     -54.765-101.447 -37.787  0.00  0.00     0.000 A 
ATOM      9  C   UNL d   1     -54.774-100.731 -37.373  0.00  0.00     0.000 A 
ATOM     10  C   UNL d   1     -54.750-102.168 -37.394  0.00  0.00     0.000 A 
ATOM     11  C   UNL d   1     -54.768-100.736 -36.558  0.00  0.00     0.000 A 
ATOM     12  C   UNL d   1     -54.753-101.456 -36.147  0.00  0.00     0.000 A 
ATOM     13  C   UNL d   1     -54.744-102.175 -36.552  0.00  0.00     0.000 A 
ATOM     14  C   UNL d   1     -54.742-102.872 -37.794  0.00  0.00     0.000 A 
ATOM     15  C   UNL d   1     -54.748-102.868 -38.614  0.00  0.00     0.004 A 
ENDBRANCH   3   6
BRANCH   1  16
ATOM     16  N   UNL d   1     -54.867-101.182 -41.774  0.00  0.00    -0.165 NA
ATOM     17  C   UNL d   1     -54.945-101.487 -42.529  0.00  0.00     0.282 C 
ATOM     18  O   UNL d   1     -54.976-102.308 -42.652  0.00  0.00    -0.265 OA
BRANCH  17  19
ATOM     19  C   UNL d   1     -54.995-100.979 -43.179  0.00  0.00     0.058 A 
ATOM     20  C   UNL d   1     -55.310-101.262 -43.886  0.00  0.00     0.005 A 
ATOM     21  C   UNL d   1     -55.361-100.751 -44.539  0.00  0.00     0.000 A 
ATOM     22  C   UNL d   1     -55.098 -99.971 -44.482  0.00  0.00     0.000 A 
ATOM     23  C   UNL d   1     -54.784 -99.698 -43.770  0.00  0.00     0.000 A 
ATOM     24  C   UNL d   1     -54.731-100.201 -43.114  0.00  0.00     0.005 A 
ENDBRANCH  17  19
ENDBRANCH   1  16
TORSDOF 3
ENDMDL
