MODEL 1
REMARK VINA RESULT:      -4.7      0.000      0.000
REMARK  2 active torsions:
REMARK  status: ('A' for Active; 'I' for Inactive)
REMARK    1  A    between atoms: C_6  and  C_3 
REMARK    2  A    between atoms: C_9  and  C_6 
ROOT
ATOM      1  C   UNL d   1      55.243   0.577  33.255  0.00  0.00     0.011 C 
ENDROOT
BRANCH   1   2
ATOM      2  C   UNL d   1      55.318   0.616  34.088  0.00  0.00     0.092 A 
ATOM      3  C   UNL d   1      54.742   0.652  34.639  0.00  0.00     0.288 A 
ATOM      4  N   UNL d   1      55.078   0.681  35.364  0.00  0.00    -0.163 NA
ATOM      5  O   UNL d   1      53.898   0.658  34.462  0.00  0.00    -0.265 OA
ATOM      6  C   UNL d   1      55.908   0.660  35.230  0.00  0.00     0.313 A 
ATOM      7  S   UNL d   1      56.015   0.620  34.434  0.00  0.00    -0.021 SA
ATOM      8  O   UNL d   1      56.497   0.680  35.835  0.00  0.00    -0.258 OA
ENDBRANCH   1   2
BRANCH   1   9
ATOM      9  C   UNL d   1      55.781   0.193  32.760  0.00  0.00     0.001 A 
ATOM     10  C   UNL d   1      55.894  -0.624  32.753  0.00  0.00     0.001 A 
ATOM     11  C   UNL d   1      56.429  -0.960  32.256  0.00  0.00     0.011 A 
ATOM     12  C   UNL d   1      56.888  -0.482  31.728  0.00  0.00     0.058 A 
ATOM     13  C   UNL d   1      56.775   0.335  31.735  0.00  0.00     0.011 A 
ATOM     14 CL   UNL d   1      57.442  -0.811  31.210  0.00  0.00    -0.082 Cl
ATOM     15  C   UNL d   1      56.215   0.682  32.257  0.00  0.00     0.001 A 
ENDBRANCH   1   9
TORSDOF 2
ENDMDL
MODEL 2
REMARK VINA RESULT:      -4.7      1.743      2.260
REMARK  2 active torsions:
REMARK  status: ('A' for Active; 'I' for Inactive)
REMARK    1  A    between atoms: C_6  and  C_3 
REMARK    2  A    between atoms: C_9  and  C_6 
ROOT
ATOM      1  C   UNL d   1      56.341   0.622  32.242  0.00  0.00     0.011 C 
ENDROOT
BRANCH   1   2
ATOM      2  C   UNL d   1      56.040  -0.031  32.670  0.00  0.00     0.092 A 
ATOM      3  C   UNL d   1      55.542  -0.031  33.293  0.00  0.00     0.288 A 
ATOM      4  N   UNL d   1      55.409  -0.787  33.520  0.00  0.00    -0.163 NA
ATOM      5  O   UNL d   1      55.211   0.680  33.652  0.00  0.00    -0.265 OA
ATOM      6  C   UNL d   1      55.859  -1.263  32.993  0.00  0.00     0.313 A 
ATOM      7  S   UNL d   1      56.233  -0.762  32.487  0.00  0.00    -0.021 SA
ATOM      8  O   UNL d   1      55.895  -2.107  33.015  0.00  0.00    -0.258 OA
ENDBRANCH   1   2
BRANCH   1   9
ATOM      9  C   UNL d   1      57.083   0.633  31.879  0.00  0.00     0.001 A 
ATOM     10  C   UNL d   1      57.795   0.673  32.294  0.00  0.00     0.001 A 
ATOM     11  C   UNL d   1      58.497   0.682  31.905  0.00  0.00     0.011 A 
ATOM     12  C   UNL d   1      58.523   0.651  31.058  0.00  0.00     0.058 A 
ATOM     13  C   UNL d   1      57.811   0.612  30.643  0.00  0.00     0.011 A 
ATOM     14 CL   UNL d   1      59.236   0.660  30.641  0.00  0.00    -0.082 Cl
ATOM     15  C   UNL d   1      57.079   0.603  31.055  0.00  0.00     0.001 A 
ENDBRANCH   1   9
TORSDOF 2
ENDMDL
MODEL 3
REMARK VINA RESULT:      -4.6      3.104      3.838
REMARK  2 active torsions:
REMARK  status: ('A' for Active; 'I' for Inactive)
REMARK    1  A    between atoms: C_6  and  C_3 
REMARK    2  A    between atoms: C_9  and  C_6 
ROOT
ATOM      1  C   UNL d   1      56.997   0.600  31.161  0.00  0.00     0.011 C 
ENDROOT
BRANCH   1   2
ATOM      2  C   UNL d   1      57.814   0.562  30.986  0.00  0.00     0.092 A 
ATOM      3  C   UNL d   1      58.168   0.414  30.286  0.00  0.00     0.288 A 
ATOM      4  N   UNL d   1      58.961   0.433  30.386  0.00  0.00    -0.163 NA
ATOM      5  O   UNL d   1      57.745   0.259  29.550  0.00  0.00    -0.265 OA
ATOM      6  C   UNL d   1      59.082   0.605  31.200  0.00  0.00     0.313 A 
ATOM      7  S   UNL d   1      58.354   0.676  31.534  0.00  0.00    -0.021 SA
ATOM      8  O   UNL d   1      59.837   0.682  31.571  0.00  0.00    -0.258 OA
ENDBRANCH   1   2
BRANCH   1   9
ATOM      9  C   UNL d   1      56.638   0.190  31.781  0.00  0.00     0.001 A 
ATOM     10  C   UNL d   1      56.624  -0.633  31.839  0.00  0.00     0.001 A 
ATOM     11  C   UNL d   1      56.264  -0.995  32.459  0.00  0.00     0.011 A 
ATOM     12  C   UNL d   1      55.891  -0.539  33.068  0.00  0.00     0.058 A 
ATOM     13  C   UNL d   1      55.905   0.283  33.011  0.00  0.00     0.011 A 
ATOM     14 CL   UNL d   1      55.516  -0.895  33.714  0.00  0.00    -0.082 Cl
ATOM     15  C   UNL d   1      56.282   0.657  32.360  0.00  0.00     0.001 A 
ENDBRANCH   1   9
TORSDOF 2
ENDMDL
MODEL 4
REMARK VINA RESULT:      -4.3      3.084      3.960
REMARK  2 active torsions:
REMARK  status: ('A' for Active; 'I' for Inactive)
REMARK    1  A    between atoms: C_6  and  C_3 
REMARK    2  A    between atoms: C_9  and  C_6 
ROOT
ATOM      1  C   UNL d   1      57.560   0.681  32.089  0.00  0.00     0.011 C 
ENDROOT
BRANCH   1   2
ATOM      2  C   UNL d   1      57.825   0.660  31.295  0.00  0.00     0.092 A 
ATOM      3  C   UNL d   1      58.575   0.659  31.021  0.00  0.00     0.288 A 
ATOM      4  N   UNL d   1      58.559   0.635  30.222  0.00  0.00    -0.163 NA
ATOM      5  O   UNL d   1      59.277   0.681  31.521  0.00  0.00    -0.265 OA
ATOM      6  C   UNL d   1      57.745   0.621  30.012  0.00  0.00     0.313 A 
ATOM      7  S   UNL d   1      57.327   0.638  30.699  0.00  0.00    -0.021 SA
ATOM      8  O   UNL d   1      57.449   0.595  29.221  0.00  0.00    -0.258 OA
ENDBRANCH   1   2
BRANCH   1   9
ATOM      9  C   UNL d   1      56.925   0.236  32.375  0.00  0.00     0.001 A 
ATOM     10  C   UNL d   1      56.907  -0.588  32.372  0.00  0.00     0.001 A 
ATOM     11  C   UNL d   1      56.271  -0.986  32.660  0.00  0.00     0.011 A 
ATOM     12  C   UNL d   1      55.604  -0.566  32.973  0.00  0.00     0.058 A 
ATOM     13  C   UNL d   1      55.623   0.259  32.975  0.00  0.00     0.011 A 
ATOM     14 CL   UNL d   1      54.942  -0.959  33.273  0.00  0.00    -0.082 Cl
ATOM     15  C   UNL d   1      56.291   0.670  32.673  0.00  0.00     0.001 A 
ENDBRANCH   1   9
TORSDOF 2
ENDMDL
MODEL 5
REMARK VINA RESULT:      -4.0      2.645      3.495
REMARK  2 active torsions:
REMARK  status: ('A' for Active; 'I' for Inactive)
REMARK    1  A    between atoms: C_6  and  C_3 
REMARK    2  A    between atoms: C_9  and  C_6 
ROOT
ATOM      1  C   UNL d   1      56.953  -0.321  33.018  0.00  0.00     0.011 C 
ENDROOT
BRANCH   1   2
ATOM      2  C   UNL d   1      57.298   0.027  32.339  0.00  0.00     0.092 A 
ATOM      3  C   UNL d   1      57.958   0.471  32.288  0.00  0.00     0.288 A 
ATOM      4  N   UNL d   1      58.073   0.681  31.525  0.00  0.00    -0.163 NA
ATOM      5  O   UNL d   1      58.456   0.682  32.960  0.00  0.00    -0.265 OA
ATOM      6  C   UNL d   1      57.436   0.336  31.098  0.00  0.00     0.313 A 
ATOM      7  S   UNL d   1      56.982  -0.057  31.633  0.00  0.00    -0.021 SA
ATOM      8  O   UNL d   1      57.318   0.405  30.264  0.00  0.00    -0.258 OA
ENDBRANCH   1   2
BRANCH   1   9
ATOM      9  C   UNL d   1      56.201  -0.129  33.303  0.00  0.00     0.001 A 
ATOM     10  C   UNL d   1      55.507  -0.485  33.036  0.00  0.00     0.001 A 
ATOM     11  C   UNL d   1      54.794  -0.271  33.339  0.00  0.00     0.011 A 
ATOM     12  C   UNL d   1      54.740   0.326  33.938  0.00  0.00     0.058 A 
ATOM     13  C   UNL d   1      55.435   0.682  34.204  0.00  0.00     0.011 A 
ATOM     14 CL   UNL d   1      54.015   0.558  34.260  0.00  0.00    -0.082 Cl
ATOM     15  C   UNL d   1      56.178   0.454  33.885  0.00  0.00     0.001 A 
ENDBRANCH   1   9
TORSDOF 2
ENDMDL
