MODEL 1
REMARK VINA RESULT:       0.9      0.000      0.000
REMARK  6 active torsions:
REMARK  status: ('A' for Active; 'I' for Inactive)
REMARK       I    between atoms: C_2  and  N_1 
REMARK    1  A    between atoms: C_3  and  C_2 
REMARK    2  A    between atoms: C_12  and  C_4 
REMARK       I    between atoms: C_5  and  N_8 
REMARK    3  A    between atoms: C_6  and  C_5 
REMARK       I    between atoms: N_9  and  C_6 
REMARK    4  A    between atoms: N_8  and  C_12 
REMARK    5  A    between atoms: C_19  and  N_9 
REMARK    6  A    between atoms: C_21  and  C_19 
ROOT
ATOM      1  C   UNL d   1      32.877  18.821 -24.264  0.00  0.00     0.337 C 
ATOM      2  N   UNL d   1      32.405  18.236 -24.592  0.00  0.00    -0.199 NA
ATOM      3  O   UNL d   1      33.241  19.375 -24.751  0.00  0.00    -0.260 OA
ENDROOT
BRANCH   2   4
ATOM      4  C   UNL d   1      32.041  17.682 -24.105  0.00  0.00     0.146 C 
BRANCH   4   5
ATOM      5  C   UNL d   1      31.838  16.936 -24.411  0.00  0.00     0.190 A 
ATOM      6  N   UNL d   1      31.094  16.589 -24.351  0.00  0.00    -0.250 N 
ATOM      7  C   UNL d   1      30.387  16.846 -24.003  0.00  0.00     0.272 C 
ATOM      8  C   UNL d   1      31.141  15.855 -24.729  0.00  0.00     0.112 A 
ATOM      9  O   UNL d   1      30.357  17.583 -23.628  0.00  0.00    -0.266 OA
ATOM     10  C   UNL d   1      31.904  15.758 -25.016  0.00  0.00     0.144 A 
ATOM     11  O   UNL d   1      32.333  16.438 -24.813  0.00  0.00    -0.285 OA
BRANCH   7  12
ATOM     12  C   UNL d   1      29.715  16.373 -24.028  0.00  0.00     0.086 A 
ATOM     13  S   UNL d   1      29.167  16.232 -24.635  0.00  0.00    -0.082 SA
ATOM     14  C   UNL d   1      28.596  15.696 -24.337  0.00  0.00     0.036 A 
ATOM     15  C   UNL d   1      28.803  15.519 -23.558  0.00  0.00     0.008 A 
ATOM     16  C   UNL d   1      29.488  15.931 -23.363  0.00  0.00     0.012 A 
ENDBRANCH   7  12
ENDBRANCH   4   5
ENDBRANCH   2   4
BRANCH   1  17
ATOM     17  C   UNL d   1      32.991  18.859 -23.446  0.00  0.00     0.337 C 
ATOM     18  N   UNL d   1      32.858  19.553 -23.046  0.00  0.00    -0.202 NA
ATOM     19  O   UNL d   1      33.241  18.189 -23.039  0.00  0.00    -0.260 OA
BRANCH  18  20
ATOM     20  C   UNL d   1      32.972  19.592 -22.227  0.00  0.00     0.102 C 
BRANCH  20  21
ATOM     21  C   UNL d   1      32.907  20.305 -21.831  0.00  0.00     0.019 A 
ATOM     22  C   UNL d   1      32.919  21.016 -22.234  0.00  0.00     0.002 A 
ATOM     23  C   UNL d   1      32.855  21.730 -21.851  0.00  0.00     0.011 A 
ATOM     24  C   UNL d   1      32.775  21.738 -21.019  0.00  0.00     0.058 A 
ATOM     25  C   UNL d   1      32.761  21.032 -20.600  0.00  0.00     0.011 A 
ATOM     26 CL   UNL d   1      32.708  22.466 -20.619  0.00  0.00    -0.082 Cl
ATOM     27  C   UNL d   1      32.827  20.314 -21.000  0.00  0.00     0.002 A 
ENDBRANCH  20  21
ENDBRANCH  18  20
ENDBRANCH   1  17
TORSDOF 6
ENDMDL
MODEL 2
REMARK VINA RESULT:       1.5      2.104      3.318
REMARK  6 active torsions:
REMARK  status: ('A' for Active; 'I' for Inactive)
REMARK       I    between atoms: C_2  and  N_1 
REMARK    1  A    between atoms: C_3  and  C_2 
REMARK    2  A    between atoms: C_12  and  C_4 
REMARK       I    between atoms: C_5  and  N_8 
REMARK    3  A    between atoms: C_6  and  C_5 
REMARK       I    between atoms: N_9  and  C_6 
REMARK    4  A    between atoms: N_8  and  C_12 
REMARK    5  A    between atoms: C_19  and  N_9 
REMARK    6  A    between atoms: C_21  and  C_19 
ROOT
ATOM      1  C   UNL d   1      32.488  21.573 -22.427  0.00  0.00     0.337 C 
ATOM      2  N   UNL d   1      32.536  21.070 -23.072  0.00  0.00    -0.199 NA
ATOM      3  O   UNL d   1      32.191  22.334 -22.522  0.00  0.00    -0.260 OA
ENDROOT
BRANCH   2   4
ATOM      4  C   UNL d   1      32.834  20.309 -22.977  0.00  0.00     0.146 C 
BRANCH   4   5
ATOM      5  C   UNL d   1      32.964  19.832 -23.646  0.00  0.00     0.190 A 
ATOM      6  N   UNL d   1      32.906  19.012 -23.657  0.00  0.00    -0.250 N 
ATOM      7  C   UNL d   1      32.719  18.458 -23.068  0.00  0.00     0.272 C 
ATOM      8  C   UNL d   1      33.079  18.770 -24.430  0.00  0.00     0.112 A 
ATOM      9  O   UNL d   1      32.548  18.717 -22.302  0.00  0.00    -0.266 OA
ATOM     10  C   UNL d   1      33.240  19.436 -24.881  0.00  0.00     0.144 A 
ATOM     11  O   UNL d   1      33.166  20.096 -24.384  0.00  0.00    -0.285 OA
BRANCH   7  12
ATOM     12  C   UNL d   1      32.703  17.655 -23.242  0.00  0.00     0.086 A 
ATOM     13  S   UNL d   1      32.227  17.217 -23.763  0.00  0.00    -0.082 SA
ATOM     14  C   UNL d   1      32.464  16.416 -23.705  0.00  0.00     0.036 A 
ATOM     15  C   UNL d   1      33.077  16.377 -23.153  0.00  0.00     0.008 A 
ATOM     16  C   UNL d   1      33.227  17.133 -22.867  0.00  0.00     0.012 A 
ENDBRANCH   7  12
ENDBRANCH   4   5
ENDBRANCH   2   4
BRANCH   1  17
ATOM     17  C   UNL d   1      32.736  21.322 -21.679  0.00  0.00     0.337 C 
ATOM     18  N   UNL d   1      32.971  21.865 -21.122  0.00  0.00    -0.202 NA
ATOM     19  O   UNL d   1      32.744  20.518 -21.502  0.00  0.00    -0.260 OA
BRANCH  18  20
ATOM     20  C   UNL d   1      33.219  21.614 -20.374  0.00  0.00     0.102 C 
BRANCH  20  21
ATOM     21  C   UNL d   1      33.187  22.122 -19.732  0.00  0.00     0.019 A 
ATOM     22  C   UNL d   1      33.241  21.842 -18.967  0.00  0.00     0.002 A 
ATOM     23  C   UNL d   1      33.210  22.337 -18.323  0.00  0.00     0.011 A 
ATOM     24  C   UNL d   1      33.120  23.158 -18.447  0.00  0.00     0.058 A 
ATOM     25  C   UNL d   1      33.065  23.456 -19.210  0.00  0.00     0.011 A 
ATOM     26 CL   UNL d   1      33.088  23.672 -17.792  0.00  0.00    -0.082 Cl
ATOM     27  C   UNL d   1      33.098  22.943 -19.856  0.00  0.00     0.002 A 
ENDBRANCH  20  21
ENDBRANCH  18  20
ENDBRANCH   1  17
TORSDOF 6
ENDMDL
MODEL 3
REMARK VINA RESULT:       1.7      2.592      5.682
REMARK  6 active torsions:
REMARK  status: ('A' for Active; 'I' for Inactive)
REMARK       I    between atoms: C_2  and  N_1 
REMARK    1  A    between atoms: C_3  and  C_2 
REMARK    2  A    between atoms: C_12  and  C_4 
REMARK       I    between atoms: C_5  and  N_8 
REMARK    3  A    between atoms: C_6  and  C_5 
REMARK       I    between atoms: N_9  and  C_6 
REMARK    4  A    between atoms: N_8  and  C_12 
REMARK    5  A    between atoms: C_19  and  N_9 
REMARK    6  A    between atoms: C_21  and  C_19 
ROOT
ATOM      1  C   UNL d   1      32.859  18.838 -22.651  0.00  0.00     0.337 C 
ATOM      2  N   UNL d   1      32.800  19.599 -22.353  0.00  0.00    -0.199 NA
ATOM      3  O   UNL d   1      33.231  18.252 -22.208  0.00  0.00    -0.260 OA
ENDROOT
BRANCH   2   4
ATOM      4  C   UNL d   1      32.429  20.185 -22.796  0.00  0.00     0.146 C 
BRANCH   4   5
ATOM      5  C   UNL d   1      32.706  20.968 -22.757  0.00  0.00     0.190 A 
ATOM      6  N   UNL d   1      32.674  21.446 -22.089  0.00  0.00    -0.250 N 
ATOM      7  C   UNL d   1      32.386  21.313 -21.322  0.00  0.00     0.272 C 
ATOM      8  C   UNL d   1      33.009  22.173 -22.298  0.00  0.00     0.112 A 
ATOM      9  O   UNL d   1      32.055  20.581 -21.130  0.00  0.00    -0.266 OA
ATOM     10  C   UNL d   1      33.241  22.136 -23.084  0.00  0.00     0.144 A 
ATOM     11  O   UNL d   1      33.048  21.380 -23.364  0.00  0.00    -0.285 OA
BRANCH   7  12
ATOM     12  C   UNL d   1      32.428  21.906 -20.754  0.00  0.00     0.086 A 
ATOM     13  S   UNL d   1      33.022  22.099 -20.207  0.00  0.00    -0.082 SA
ATOM     14  C   UNL d   1      32.753  22.760 -19.769  0.00  0.00     0.036 A 
ATOM     15  C   UNL d   1      32.004  22.959 -20.053  0.00  0.00     0.008 A 
ATOM     16  C   UNL d   1      31.800  22.439 -20.656  0.00  0.00     0.012 A 
ENDBRANCH   7  12
ENDBRANCH   4   5
ENDBRANCH   2   4
BRANCH   1  17
ATOM     17  C   UNL d   1      32.548  18.652 -23.394  0.00  0.00     0.337 C 
ATOM     18  N   UNL d   1      31.919  18.143 -23.459  0.00  0.00    -0.202 NA
ATOM     19  O   UNL d   1      32.881  18.986 -24.069  0.00  0.00    -0.260 OA
BRANCH  18  20
ATOM     20  C   UNL d   1      31.607  17.957 -24.202  0.00  0.00     0.102 C 
BRANCH  20  21
ATOM     21  C   UNL d   1      30.974  17.442 -24.272  0.00  0.00     0.019 A 
ATOM     22  C   UNL d   1      31.077  16.679 -24.545  0.00  0.00     0.002 A 
ATOM     23  C   UNL d   1      30.456  16.159 -24.618  0.00  0.00     0.011 A 
ATOM     24  C   UNL d   1      29.689  16.413 -24.407  0.00  0.00     0.058 A 
ATOM     25  C   UNL d   1      29.569  17.177 -24.130  0.00  0.00     0.011 A 
ATOM     26 CL   UNL d   1      29.047  15.886 -24.479  0.00  0.00    -0.082 Cl
ATOM     27  C   UNL d   1      30.207  17.695 -24.061  0.00  0.00     0.002 A 
ENDBRANCH  20  21
ENDBRANCH  18  20
ENDBRANCH   1  17
TORSDOF 6
ENDMDL
