MODEL 1
REMARK VINA RESULT:      21.5      0.000      0.000
REMARK  5 active torsions:
REMARK  status: ('A' for Active; 'I' for Inactive)
REMARK    1  A    between atoms: C_6  and  N_2 
REMARK    2  A    between atoms: C_8  and  C_6 
REMARK    3  A    between atoms: C_13  and  C_8 
REMARK    4  A    between atoms: C_9  and  O_12 
REMARK    5  A    between atoms: O_12  and  C_13 
ROOT
ATOM      1  N   UNL d   1      16.084  13.355  -0.624  0.00  0.00    -0.227 NA
ATOM      2  N   UNL d   1      14.844  12.851  -0.622  0.00  0.00    -0.289 N 
ATOM      3  C   UNL d   1      15.646  12.654  -0.762  0.00  0.00     0.148 A 
ATOM      4  C   UNL d   1      14.794  13.639  -0.408  0.00  0.00     0.083 A 
ATOM      5  C   UNL d   1      15.595  13.965  -0.409  0.00  0.00     0.099 A 
ATOM      6  C   UNL d   1      15.948  11.912  -0.991  0.00  0.00     0.041 C 
ATOM      7  C   UNL d   1      14.153  14.102  -0.215  0.00  0.00     0.019 A 
ATOM      8  C   UNL d   1      15.659  14.771  -0.203  0.00  0.00     0.021 A 
ATOM      9  C   UNL d   1      14.291  14.878  -0.025  0.00  0.00     0.002 A 
ATOM     10  C   UNL d   1      15.039  15.182  -0.026  0.00  0.00     0.002 A 
ENDROOT
BRANCH   2  11
ATOM     11  C   UNL d   1      14.339  12.241  -0.728  0.00  0.00     0.084 C 
BRANCH  11  12
ATOM     12  C   UNL d   1      13.739  12.252  -1.294  0.00  0.00     0.046 C 
BRANCH  12  13
ATOM     13  C   UNL d   1      13.758  11.806  -1.980  0.00  0.00     0.124 C 
BRANCH  13  14
ATOM     14  O   UNL d   1      13.149  11.798  -2.524  0.00  0.00    -0.305 OA
BRANCH  14  15
ATOM     15  C   UNL d   1      13.171  12.214  -3.236  0.00  0.00     0.100 A 
ATOM     16  C   UNL d   1      13.304  11.783  -3.942  0.00  0.00     0.025 A 
ATOM     17  C   UNL d   1      13.330  12.183  -4.678  0.00  0.00     0.002 A 
ATOM     18  C   UNL d   1      13.224  13.013  -4.708  0.00  0.00     0.000 A 
ATOM     19  C   UNL d   1      13.090  13.444  -4.002  0.00  0.00     0.002 A 
ATOM     20  C   UNL d   1      13.069  13.030  -3.292  0.00  0.00     0.025 A 
ENDBRANCH  14  15
ENDBRANCH  13  14
ENDBRANCH  12  13
ENDBRANCH  11  12
ENDBRANCH   2  11
TORSDOF 5
ENDMDL
