MODEL 1
REMARK VINA RESULT:      -9.6      0.000      0.000
REMARK  6 active torsions:
REMARK  status: ('A' for Active; 'I' for Inactive)
REMARK    1  A    between atoms: N_8  and  C_1 
REMARK    2  A    between atoms: C_6  and  N_2 
REMARK       I    between atoms: C_12  and  N_8 
REMARK    3  A    between atoms: C_20  and  C_12 
REMARK    4  A    between atoms: O_24  and  C_13 
REMARK    5  A    between atoms: O_25  and  C_15 
REMARK    6  A    between atoms: C_19  and  C_20 
ROOT
ATOM      1  C   UNL d   1      53.375  32.016  53.238  0.00  0.00     0.169 A 
ATOM      2  N   UNL d   1      53.955  32.017  53.828  0.00  0.00    -0.212 N 
ATOM      3  C   UNL d   1      53.061  31.248  53.179  0.00  0.00     0.065 A 
ATOM      4  N   UNL d   1      54.001  31.249  54.135  0.00  0.00    -0.163 NA
ATOM      5  C   UNL d   1      53.449  30.776  53.734  0.00  0.00     0.114 A 
ATOM      6  S   UNL d   1      52.564  30.007  53.094  0.00  0.00     0.091 S 
ATOM      7  C   UNL d   1      53.144  30.008  53.684  0.00  0.00     0.090 A 
ATOM      8  C   UNL d   1      52.515  30.775  52.784  0.00  0.00     0.073 A 
ATOM      9  O   UNL d   1      52.111  29.355  52.854  0.00  0.00    -0.247 OA
ENDROOT
BRANCH   1  10
ATOM     10  N   UNL d   1      53.142  32.667  52.780  0.00  0.00    -0.189 NA
ATOM     11  C   UNL d   1      52.372  32.945  52.813  0.00  0.00     0.281 C 
ATOM     12  O   UNL d   1      51.813  32.574  53.312  0.00  0.00    -0.265 OA
BRANCH  11  13
ATOM     13  C   UNL d   1      52.138  33.593  52.358  0.00  0.00     0.063 C 
BRANCH  13  14
ATOM     14  C   UNL d   1      51.427  33.946  52.517  0.00  0.00     0.007 A 
ATOM     15  C   UNL d   1      50.804  33.915  51.966  0.00  0.00     0.026 A 
ATOM     16  C   UNL d   1      50.082  34.277  52.134  0.00  0.00     0.116 A 
ATOM     17  C   UNL d   1      49.983  34.670  52.853  0.00  0.00     0.116 A 
ATOM     18  C   UNL d   1      50.590  34.706  53.403  0.00  0.00     0.026 A 
ATOM     19  C   UNL d   1      51.314  34.341  53.232  0.00  0.00     0.002 A 
BRANCH  16  20
ATOM     20  O   UNL d   1      49.470  34.246  51.590  0.00  0.00    -0.326 OA
ATOM     21  C   UNL d   1      49.631  34.302  50.784  0.00  0.00     0.181 C 
ENDBRANCH  16  20
BRANCH  17  22
ATOM     22  O   UNL d   1      49.261  35.031  53.022  0.00  0.00    -0.326 OA
ATOM     23  C   UNL d   1      49.180  35.516  53.684  0.00  0.00     0.181 C 
ENDBRANCH  17  22
ENDBRANCH  13  14
ENDBRANCH  11  13
ENDBRANCH   1  10
BRANCH   2  24
ATOM     24  C   UNL d   1      54.407  32.664  54.069  0.00  0.00     0.085 A 
ATOM     25  C   UNL d   1      54.372  32.916  54.849  0.00  0.00     0.018 A 
ATOM     26  C   UNL d   1      54.825  33.563  55.089  0.00  0.00     0.002 A 
ATOM     27  C   UNL d   1      53.890  32.527  55.386  0.00  0.00     0.002 C 
ATOM     28  C   UNL d   1      54.792  33.816  55.864  0.00  0.00     0.000 C 
ATOM     29  C   UNL d   1      55.306  33.947  54.540  0.00  0.00     0.000 A 
ATOM     30  C   UNL d   1      55.331  33.683  53.765  0.00  0.00     0.002 A 
ATOM     31  C   UNL d   1      54.889  33.048  53.519  0.00  0.00     0.019 A 
ENDBRANCH   2  24
TORSDOF 6
ENDMDL
MODEL 2
REMARK VINA RESULT:      -8.0      1.359      4.012
REMARK  6 active torsions:
REMARK  status: ('A' for Active; 'I' for Inactive)
REMARK    1  A    between atoms: N_8  and  C_1 
REMARK    2  A    between atoms: C_6  and  N_2 
REMARK       I    between atoms: C_12  and  N_8 
REMARK    3  A    between atoms: C_20  and  C_12 
REMARK    4  A    between atoms: O_24  and  C_13 
REMARK    5  A    between atoms: O_25  and  C_15 
REMARK    6  A    between atoms: C_19  and  C_20 
ROOT
ATOM      1  C   UNL d   1      52.787  33.400  53.071  0.00  0.00     0.169 A 
ATOM      2  N   UNL d   1      53.172  33.896  53.611  0.00  0.00    -0.212 N 
ATOM      3  C   UNL d   1      52.056  33.746  52.871  0.00  0.00     0.065 A 
ATOM      4  N   UNL d   1      52.679  34.548  53.747  0.00  0.00    -0.163 NA
ATOM      5  C   UNL d   1      51.993  34.454  53.290  0.00  0.00     0.114 A 
ATOM      6  S   UNL d   1      50.884  34.311  52.559  0.00  0.00     0.091 S 
ATOM      7  C   UNL d   1      51.268  34.807  53.099  0.00  0.00     0.090 A 
ATOM      8  C   UNL d   1      51.374  33.656  52.420  0.00  0.00     0.073 A 
ATOM      9  O   UNL d   1      50.141  34.444  52.216  0.00  0.00    -0.247 OA
ENDROOT
BRANCH   1  10
ATOM     10  N   UNL d   1      53.076  32.682  52.775  0.00  0.00    -0.189 NA
ATOM     11  C   UNL d   1      52.646  31.991  52.868  0.00  0.00     0.281 C 
ATOM     12  O   UNL d   1      51.909  32.005  53.263  0.00  0.00    -0.265 OA
BRANCH  11  13
ATOM     13  C   UNL d   1      52.931  31.274  52.574  0.00  0.00     0.063 C 
BRANCH  13  14
ATOM     14  C   UNL d   1      52.956  30.632  53.066  0.00  0.00     0.007 A 
ATOM     15  C   UNL d   1      52.272  30.182  53.215  0.00  0.00     0.026 A 
ATOM     16  C   UNL d   1      52.303  29.529  53.717  0.00  0.00     0.116 A 
ATOM     17  C   UNL d   1      53.020  29.325  54.071  0.00  0.00     0.116 A 
ATOM     18  C   UNL d   1      53.700  29.760  53.932  0.00  0.00     0.026 A 
ATOM     19  C   UNL d   1      53.665  30.417  53.427  0.00  0.00     0.002 A 
BRANCH  16  20
ATOM     20  O   UNL d   1      51.628  29.088  53.861  0.00  0.00    -0.326 OA
ATOM     21  C   UNL d   1      50.884  29.413  53.719  0.00  0.00     0.181 C 
ENDBRANCH  16  20
BRANCH  17  22
ATOM     22  O   UNL d   1      53.053  28.672  54.574  0.00  0.00    -0.326 OA
ATOM     23  C   UNL d   1      53.748  28.487  54.976  0.00  0.00     0.181 C 
ENDBRANCH  17  22
ENDBRANCH  13  14
ENDBRANCH  11  13
ENDBRANCH   1  10
BRANCH   2  24
ATOM     24  C   UNL d   1      53.911  33.766  53.954  0.00  0.00     0.085 A 
ATOM     25  C   UNL d   1      53.979  33.731  54.771  0.00  0.00     0.018 A 
ATOM     26  C   UNL d   1      54.718  33.601  55.113  0.00  0.00     0.002 A 
ATOM     27  C   UNL d   1      53.316  33.824  55.244  0.00  0.00     0.002 C 
ATOM     28  C   UNL d   1      54.790  33.565  55.926  0.00  0.00     0.000 C 
ATOM     29  C   UNL d   1      55.379  33.508  54.628  0.00  0.00     0.000 A 
ATOM     30  C   UNL d   1      55.295  33.546  53.814  0.00  0.00     0.002 A 
ATOM     31  C   UNL d   1      54.572  33.674  53.468  0.00  0.00     0.019 A 
ENDBRANCH   2  24
TORSDOF 6
ENDMDL
MODEL 3
REMARK VINA RESULT:      -7.9      1.901      4.624
REMARK  6 active torsions:
REMARK  status: ('A' for Active; 'I' for Inactive)
REMARK    1  A    between atoms: N_8  and  C_1 
REMARK    2  A    between atoms: C_6  and  N_2 
REMARK       I    between atoms: C_12  and  N_8 
REMARK    3  A    between atoms: C_20  and  C_12 
REMARK    4  A    between atoms: O_24  and  C_13 
REMARK    5  A    between atoms: O_25  and  C_15 
REMARK    6  A    between atoms: C_19  and  C_20 
ROOT
ATOM      1  C   UNL d   1      53.334  33.670  53.537  0.00  0.00     0.169 A 
ATOM      2  N   UNL d   1      52.749  34.252  53.476  0.00  0.00    -0.212 N 
ATOM      3  C   UNL d   1      53.847  33.877  54.159  0.00  0.00     0.065 A 
ATOM      4  N   UNL d   1      52.900  34.821  54.060  0.00  0.00    -0.163 NA
ATOM      5  C   UNL d   1      53.577  34.588  54.480  0.00  0.00     0.114 A 
ATOM      6  S   UNL d   1      54.666  34.222  55.162  0.00  0.00     0.091 S 
ATOM      7  C   UNL d   1      54.081  34.804  55.101  0.00  0.00     0.090 A 
ATOM      8  C   UNL d   1      54.518  33.650  54.578  0.00  0.00     0.073 A 
ATOM      9  O   UNL d   1      55.289  34.210  55.708  0.00  0.00    -0.247 OA
ENDROOT
BRANCH   1  10
ATOM     10  N   UNL d   1      53.402  32.993  53.063  0.00  0.00    -0.189 NA
ATOM     11  C   UNL d   1      53.426  32.248  53.402  0.00  0.00     0.281 C 
ATOM     12  O   UNL d   1      53.382  32.163  54.233  0.00  0.00    -0.265 OA
BRANCH  11  13
ATOM     13  C   UNL d   1      53.494  31.573  52.932  0.00  0.00     0.063 C 
BRANCH  13  14
ATOM     14  C   UNL d   1      53.373  30.848  53.269  0.00  0.00     0.007 A 
ATOM     15  C   UNL d   1      52.626  30.482  53.236  0.00  0.00     0.026 A 
ATOM     16  C   UNL d   1      52.509  29.742  53.582  0.00  0.00     0.116 A 
ATOM     17  C   UNL d   1      53.139  29.368  53.961  0.00  0.00     0.116 A 
ATOM     18  C   UNL d   1      53.879  29.719  54.000  0.00  0.00     0.026 A 
ATOM     19  C   UNL d   1      53.994  30.462  53.652  0.00  0.00     0.002 A 
BRANCH  16  20
ATOM     20  O   UNL d   1      51.773  29.384  53.548  0.00  0.00    -0.326 OA
ATOM     21  C   UNL d   1      51.090  29.845  53.516  0.00  0.00     0.181 C 
ENDBRANCH  16  20
BRANCH  17  22
ATOM     22  O   UNL d   1      53.023  28.628  54.307  0.00  0.00    -0.326 OA
ATOM     23  C   UNL d   1      53.602  28.297  54.791  0.00  0.00     0.181 C 
ENDBRANCH  17  22
ENDBRANCH  13  14
ENDBRANCH  11  13
ENDBRANCH   1  10
BRANCH   2  24
ATOM     24  C   UNL d   1      52.128  34.267  52.934  0.00  0.00     0.085 A 
ATOM     25  C   UNL d   1      51.353  34.252  53.203  0.00  0.00     0.018 A 
ATOM     26  C   UNL d   1      50.732  34.266  52.660  0.00  0.00     0.002 A 
ATOM     27  C   UNL d   1      51.197  34.223  54.007  0.00  0.00     0.002 C 
ATOM     28  C   UNL d   1      49.960  34.252  52.924  0.00  0.00     0.000 C 
ATOM     29  C   UNL d   1      50.900  34.295  51.853  0.00  0.00     0.000 A 
ATOM     30  C   UNL d   1      51.679  34.310  51.599  0.00  0.00     0.002 A 
ATOM     31  C   UNL d   1      52.296  34.296  52.126  0.00  0.00     0.019 A 
ENDBRANCH   2  24
TORSDOF 6
ENDMDL
MODEL 4
REMARK VINA RESULT:      -7.0      1.844      3.133
REMARK  6 active torsions:
REMARK  status: ('A' for Active; 'I' for Inactive)
REMARK    1  A    between atoms: N_8  and  C_1 
REMARK    2  A    between atoms: C_6  and  N_2 
REMARK       I    between atoms: C_12  and  N_8 
REMARK    3  A    between atoms: C_20  and  C_12 
REMARK    4  A    between atoms: O_24  and  C_13 
REMARK    5  A    between atoms: O_25  and  C_15 
REMARK    6  A    between atoms: C_19  and  C_20 
ROOT
ATOM      1  C   UNL d   1      52.509  33.606  53.762  0.00  0.00     0.169 A 
ATOM      2  N   UNL d   1      53.154  33.111  53.603  0.00  0.00    -0.212 N 
ATOM      3  C   UNL d   1      52.800  34.355  53.981  0.00  0.00     0.065 A 
ATOM      4  N   UNL d   1      53.844  33.554  53.723  0.00  0.00    -0.163 NA
ATOM      5  C   UNL d   1      53.624  34.319  53.955  0.00  0.00     0.114 A 
ATOM      6  S   UNL d   1      53.280  35.555  54.331  0.00  0.00     0.091 S 
ATOM      7  C   UNL d   1      53.925  35.061  54.171  0.00  0.00     0.090 A 
ATOM      8  C   UNL d   1      52.586  35.115  54.212  0.00  0.00     0.073 A 
ATOM      9  O   UNL d   1      53.319  36.348  54.567  0.00  0.00    -0.247 OA
ENDROOT
BRANCH   1  10
ATOM     10  N   UNL d   1      51.709  33.396  53.715  0.00  0.00    -0.189 NA
ATOM     11  C   UNL d   1      51.194  33.825  53.245  0.00  0.00     0.281 C 
ATOM     12  O   UNL d   1      51.472  34.482  52.807  0.00  0.00    -0.265 OA
BRANCH  11  13
ATOM     13  C   UNL d   1      50.396  33.619  53.195  0.00  0.00     0.063 C 
BRANCH  13  14
ATOM     14  C   UNL d   1      49.901  34.073  52.744  0.00  0.00     0.007 A 
ATOM     15  C   UNL d   1      49.379  34.615  53.099  0.00  0.00     0.026 A 
ATOM     16  C   UNL d   1      48.877  35.075  52.633  0.00  0.00     0.116 A 
ATOM     17  C   UNL d   1      48.898  34.994  51.812  0.00  0.00     0.116 A 
ATOM     18  C   UNL d   1      49.408  34.463  51.452  0.00  0.00     0.026 A 
ATOM     19  C   UNL d   1      49.911  34.002  51.923  0.00  0.00     0.002 A 
BRANCH  16  20
ATOM     20  O   UNL d   1      48.363  35.608  52.984  0.00  0.00    -0.326 OA
ATOM     21  C   UNL d   1      48.568  35.973  53.695  0.00  0.00     0.181 C 
ENDBRANCH  16  20
BRANCH  17  22
ATOM     22  O   UNL d   1      48.396  35.453  51.346  0.00  0.00    -0.326 OA
ATOM     23  C   UNL d   1      48.013  35.125  50.694  0.00  0.00     0.181 C 
ENDBRANCH  17  22
ENDBRANCH  13  14
ENDBRANCH  11  13
ENDBRANCH   1  10
BRANCH   2  24
ATOM     24  C   UNL d   1      53.118  32.322  53.368  0.00  0.00     0.085 A 
ATOM     25  C   UNL d   1      53.392  31.735  53.872  0.00  0.00     0.018 A 
ATOM     26  C   UNL d   1      53.356  30.945  53.636  0.00  0.00     0.002 A 
ATOM     27  C   UNL d   1      53.699  31.933  54.606  0.00  0.00     0.002 C 
ATOM     28  C   UNL d   1      53.628  30.359  54.135  0.00  0.00     0.000 C 
ATOM     29  C   UNL d   1      53.045  30.757  52.895  0.00  0.00     0.000 A 
ATOM     30  C   UNL d   1      52.776  31.354  52.403  0.00  0.00     0.002 A 
ATOM     31  C   UNL d   1      52.807  32.133  52.626  0.00  0.00     0.019 A 
ENDBRANCH   2  24
TORSDOF 6
ENDMDL
