MODEL 1
REMARK VINA RESULT:      19.5      0.000      0.000
REMARK  0 active torsions:
REMARK  status: ('A' for Active; 'I' for Inactive)
ROOT
ATOM      1  N   UNL d   1     -57.509 -98.805 -43.912  0.00  0.00    -0.248 N 
ATOM      2  C   UNL d   1     -57.076 -98.789 -44.603  0.00  0.00     0.208 A 
ATOM      3  C   UNL d   1     -58.360 -98.806 -43.940  0.00  0.00     0.268 A 
ATOM      4  C   UNL d   1     -58.729 -98.791 -44.645  0.00  0.00     0.074 A 
ATOM      5  N   UNL d   1     -57.485 -98.773 -45.333  0.00  0.00    -0.218 NA
ATOM      6  C   UNL d   1     -58.293 -98.775 -45.340  0.00  0.00     0.088 A 
ATOM      7  S   UNL d   1     -56.239 -98.787 -44.596  0.00  0.00    -0.038 SA
ATOM      8  O   UNL d   1     -58.801 -98.823 -43.237  0.00  0.00    -0.267 OA
ATOM      9  C   UNL d   1     -57.130 -98.821 -43.151  0.00  0.00     0.104 C 
ATOM     10  C   UNL d   1     -59.565 -98.792 -44.680  0.00  0.00     0.006 A 
ATOM     11  C   UNL d   1     -58.691 -98.759 -46.090  0.00  0.00     0.019 A 
ATOM     12  C   UNL d   1     -59.954 -98.777 -45.408  0.00  0.00     0.000 A 
ATOM     13  C   UNL d   1     -59.515 -98.760 -46.107  0.00  0.00     0.002 A 
ENDROOT
TORSDOF 0
ENDMDL
