MODEL 1
REMARK VINA RESULT:      73.6      0.000      0.000
REMARK  4 active torsions:
REMARK  status: ('A' for Active; 'I' for Inactive)
REMARK    1  A    between atoms: N_8  and  C_1 
REMARK    2  A    between atoms: C_13  and  N_4 
REMARK    3  A    between atoms: C_6  and  N_8 
REMARK    4  A    between atoms: C_14  and  C_9 
ROOT
ATOM      1  C   UNL d   1     -55.473-100.617 -44.045  0.00  0.00     0.135 A 
ATOM      2  C   UNL d   1     -56.211-100.551 -43.669  0.00  0.00     0.296 A 
ATOM      3  N   UNL d   1     -56.032 -99.477 -44.435  0.00  0.00    -0.238 N 
ATOM      4  N   UNL d   1     -56.555 -99.845 -43.913  0.00  0.00    -0.209 N 
ATOM      5  C   UNL d   1     -55.375 -99.956 -44.510  0.00  0.00     0.102 A 
ATOM      6  O   UNL d   1     -56.535-101.094 -43.150  0.00  0.00    -0.264 OA
ATOM      7  C   UNL d   1     -56.154 -98.759 -44.812  0.00  0.00     0.120 C 
ATOM      8  C   UNL d   1     -54.713 -99.792 -44.985  0.00  0.00     0.022 C 
ENDROOT
BRANCH   1   9
ATOM      9  N   UNL d   1     -54.943-101.243 -43.957  0.00  0.00    -0.329 N 
ATOM     10  H   UNL d   1     -54.461-101.465 -44.593  0.00  0.00     0.168 HD
BRANCH   9  11
ATOM     11  C   UNL d   1     -54.891-101.643 -43.246  0.00  0.00     0.172 A 
ATOM     12  N   UNL d   1     -54.890-101.310 -42.498  0.00  0.00    -0.222 NA
ATOM     13  C   UNL d   1     -54.828-101.922 -41.945  0.00  0.00     0.090 A 
ATOM     14  C   UNL d   1     -54.792-102.628 -42.355  0.00  0.00     0.057 A 
ATOM     15  S   UNL d   1     -54.830-102.460 -43.166  0.00  0.00    -0.048 SA
BRANCH  13  16
ATOM     16  C   UNL d   1     -54.808-101.828 -41.129  0.00  0.00     0.018 A 
ATOM     17  C   UNL d   1     -54.850-102.481 -40.626  0.00  0.00     0.002 A 
ATOM     18  C   UNL d   1     -54.828-102.376 -39.810  0.00  0.00     0.000 A 
ATOM     19  C   UNL d   1     -54.765-101.621 -39.498  0.00  0.00     0.000 A 
ATOM     20  C   UNL d   1     -54.724-100.973 -39.984  0.00  0.00     0.000 A 
ATOM     21  C   UNL d   1     -54.744-101.062 -40.806  0.00  0.00     0.002 A 
ENDBRANCH  13  16
ENDBRANCH   9  11
ENDBRANCH   1   9
BRANCH   4  22
ATOM     22  C   UNL d   1     -57.285 -99.554 -43.680  0.00  0.00     0.085 A 
ATOM     23  C   UNL d   1     -57.349 -99.080 -43.007  0.00  0.00     0.019 A 
ATOM     24  C   UNL d   1     -58.088 -98.793 -42.782  0.00  0.00     0.002 A 
ATOM     25  C   UNL d   1     -58.758 -98.978 -43.226  0.00  0.00     0.000 A 
ATOM     26  C   UNL d   1     -58.694 -99.452 -43.898  0.00  0.00     0.002 A 
ATOM     27  C   UNL d   1     -57.960 -99.741 -44.128  0.00  0.00     0.019 A 
ENDBRANCH   4  22
TORSDOF 4
ENDMDL
