MODEL 1
REMARK VINA RESULT:       2.4      0.000      0.000
REMARK  2 active torsions:
REMARK  status: ('A' for Active; 'I' for Inactive)
REMARK    1  A    between atoms: N_11  and  C_2 
REMARK    2  A    between atoms: C_16  and  N_11 
ROOT
ATOM      1  C   UNL d   1     -41.275-122.181 -51.895  0.00  0.00     0.024 A 
ATOM      2  C   UNL d   1     -41.278-122.589 -51.186  0.00  0.00     0.139 A 
ATOM      3  C   UNL d   1     -41.323-122.586 -52.610  0.00  0.00     0.022 A 
ATOM      4  C   UNL d   1     -41.329-123.410 -51.177  0.00  0.00     0.297 A 
ATOM      5  C   UNL d   1     -41.224-121.351 -51.900  0.00  0.00     0.005 A 
ATOM      6  C   UNL d   1     -41.321-122.175 -53.324  0.00  0.00     0.041 A 
ATOM      7  C   UNL d   1     -41.270-121.351 -53.338  0.00  0.00     0.196 A 
ATOM      8  N   UNL d   1     -41.377-123.814 -51.891  0.00  0.00    -0.207 NA
ATOM      9  C   UNL d   1     -41.374-123.406 -52.600  0.00  0.00     0.085 A 
ATOM     10  C   UNL d   1     -41.221-120.940 -52.614  0.00  0.00     0.039 A 
ATOM     11  O   UNL d   1     -41.331-123.817 -50.468  0.00  0.00    -0.264 OA
ATOM     12  O   UNL d   1     -41.267-120.932 -54.067  0.00  0.00    -0.287 OA
ATOM     13  C   UNL d   1     -41.368-122.576 -54.043  0.00  0.00     0.003 A 
ATOM     14  C   UNL d   1     -41.176-120.947 -51.185  0.00  0.00     0.000 A 
ATOM     15  C   UNL d   1     -41.422-123.815 -53.318  0.00  0.00     0.019 A 
ATOM     16  C   UNL d   1     -41.171-120.117 -52.628  0.00  0.00     0.003 A 
ATOM     17  C   UNL d   1     -41.419-123.404 -54.032  0.00  0.00     0.002 A 
ATOM     18  C   UNL d   1     -41.125-120.120 -51.192  0.00  0.00     0.000 A 
ATOM     19  C   UNL d   1     -41.123-119.710 -51.906  0.00  0.00     0.000 A 
ENDROOT
BRANCH   2  20
ATOM     20  N   UNL d   1     -41.230-122.175 -50.467  0.00  0.00    -0.241 NA
BRANCH  20  21
ATOM     21  C   UNL d   1     -41.749-122.347 -49.859  0.00  0.00     0.082 A 
ATOM     22  C   UNL d   1     -41.440-122.543 -49.118  0.00  0.00     0.019 A 
ATOM     23  C   UNL d   1     -41.946-122.722 -48.485  0.00  0.00     0.002 A 
ATOM     24  C   UNL d   1     -42.784-122.701 -48.605  0.00  0.00     0.000 A 
ATOM     25  C   UNL d   1     -43.081-122.507 -49.334  0.00  0.00     0.002 A 
ATOM     26  C   UNL d   1     -42.571-122.327 -49.971  0.00  0.00     0.019 A 
ENDBRANCH  20  21
ENDBRANCH   2  20
TORSDOF 2
ENDMDL
MODEL 2
REMARK VINA RESULT:       2.9      1.255      3.452
REMARK  2 active torsions:
REMARK  status: ('A' for Active; 'I' for Inactive)
REMARK    1  A    between atoms: N_11  and  C_2 
REMARK    2  A    between atoms: C_16  and  N_11 
ROOT
ATOM      1  C   UNL d   1     -41.245-122.026 -52.282  0.00  0.00     0.024 A 
ATOM      2  C   UNL d   1     -41.213-122.350 -53.033  0.00  0.00     0.139 A 
ATOM      3  C   UNL d   1     -41.306-122.511 -51.620  0.00  0.00     0.022 A 
ATOM      4  C   UNL d   1     -41.242-123.165 -53.137  0.00  0.00     0.297 A 
ATOM      5  C   UNL d   1     -41.215-121.201 -52.181  0.00  0.00     0.005 A 
ATOM      6  C   UNL d   1     -41.337-122.185 -50.864  0.00  0.00     0.041 A 
ATOM      7  C   UNL d   1     -41.308-121.368 -50.754  0.00  0.00     0.196 A 
ATOM      8  N   UNL d   1     -41.303-123.650 -52.476  0.00  0.00    -0.207 NA
ATOM      9  C   UNL d   1     -41.334-123.326 -51.726  0.00  0.00     0.085 A 
ATOM     10  C   UNL d   1     -41.247-120.875 -51.425  0.00  0.00     0.039 A 
ATOM     11  O   UNL d   1     -41.211-123.489 -53.888  0.00  0.00    -0.264 OA
ATOM     12  O   UNL d   1     -41.341-121.035 -49.984  0.00  0.00    -0.287 OA
ATOM     13  C   UNL d   1     -41.398-122.668 -50.198  0.00  0.00     0.003 A 
ATOM     14  C   UNL d   1     -41.154-120.717 -52.843  0.00  0.00     0.000 A 
ATOM     15  C   UNL d   1     -41.396-123.816 -51.061  0.00  0.00     0.019 A 
ATOM     16  C   UNL d   1     -41.218-120.059 -51.315  0.00  0.00     0.003 A 
ATOM     17  C   UNL d   1     -41.427-123.490 -50.305  0.00  0.00     0.002 A 
ATOM     18  C   UNL d   1     -41.125-119.896 -52.740  0.00  0.00     0.000 A 
ATOM     19  C   UNL d   1     -41.156-119.570 -51.984  0.00  0.00     0.000 A 
ENDROOT
BRANCH   2  20
ATOM     20  N   UNL d   1     -41.152-121.855 -53.698  0.00  0.00    -0.241 NA
BRANCH  20  21
ATOM     21  C   UNL d   1     -41.687-121.926 -54.313  0.00  0.00     0.082 A 
ATOM     22  C   UNL d   1     -41.398-121.964 -55.086  0.00  0.00     0.019 A 
ATOM     23  C   UNL d   1     -41.920-122.035 -55.727  0.00  0.00     0.002 A 
ATOM     24  C   UNL d   1     -42.754-122.070 -55.581  0.00  0.00     0.000 A 
ATOM     25  C   UNL d   1     -43.030-122.032 -54.820  0.00  0.00     0.002 A 
ATOM     26  C   UNL d   1     -42.505-121.960 -54.175  0.00  0.00     0.019 A 
ENDBRANCH  20  21
ENDBRANCH   2  20
TORSDOF 2
ENDMDL
