MODEL 1
REMARK VINA RESULT:      34.2      0.000      0.000
REMARK  8 active torsions:
REMARK  status: ('A' for Active; 'I' for Inactive)
REMARK    1  A    between atoms: C_6  and  N_1 
REMARK    2  A    between atoms: C_7  and  C_2 
REMARK    3  A    between atoms: C_8  and  C_6 
REMARK    4  A    between atoms: O_14  and  C_8 
REMARK    5  A    between atoms: O_15  and  C_8 
REMARK    6  A    between atoms: O_18  and  C_11 
REMARK    7  A    between atoms: C_20  and  O_14 
REMARK    8  A    between atoms: C_19  and  O_15 
ROOT
ATOM      1  N   UNL d   1      13.376  13.051  -3.696  0.00  0.00    -0.286 N 
ATOM      2  C   UNL d   1      13.629  12.337  -3.365  0.00  0.00     0.148 A 
ATOM      3  N   UNL d   1      13.585  11.779  -3.972  0.00  0.00    -0.227 NA
ATOM      4  C   UNL d   1      13.187  12.931  -4.469  0.00  0.00     0.083 A 
ATOM      5  C   UNL d   1      13.318  12.134  -4.642  0.00  0.00     0.099 A 
ATOM      6  C   UNL d   1      12.908  13.444  -5.056  0.00  0.00     0.019 A 
ATOM      7  C   UNL d   1      13.166  11.873  -5.396  0.00  0.00     0.021 A 
ATOM      8  C   UNL d   1      12.769  13.149  -5.791  0.00  0.00     0.002 A 
ATOM      9  C   UNL d   1      12.900  12.352  -5.963  0.00  0.00     0.002 A 
ENDROOT
BRANCH   1  10
ATOM     10  C   UNL d   1      13.329  13.754  -3.300  0.00  0.00     0.133 C 
BRANCH  10  11
ATOM     11  C   UNL d   1      13.592  14.446  -3.688  0.00  0.00     0.222 C 
BRANCH  11  12
ATOM     12  O   UNL d   1      14.178  14.924  -3.351  0.00  0.00    -0.282 OA
BRANCH  12  13
ATOM     13  C   UNL d   1      14.446  15.391  -2.740  0.00  0.00     0.125 C 
ATOM     14  C   UNL d   1      14.836  16.103  -2.912  0.00  0.00     0.029 C 
ENDBRANCH  12  13
ENDBRANCH  11  12
BRANCH  11  15
ATOM     15  O   UNL d   1      13.264  14.672  -4.435  0.00  0.00    -0.282 OA
BRANCH  15  16
ATOM     16  C   UNL d   1      13.310  15.317  -4.944  0.00  0.00     0.125 C 
ATOM     17  C   UNL d   1      13.921  15.864  -4.872  0.00  0.00     0.029 C 
ENDBRANCH  15  16
ENDBRANCH  11  15
ENDBRANCH  10  11
ENDBRANCH   1  10
BRANCH   2  18
ATOM     18  C   UNL d   1      13.875  12.209  -2.588  0.00  0.00     0.035 A 
ATOM     19  C   UNL d   1      14.656  12.382  -2.369  0.00  0.00     0.005 A 
ATOM     20  C   UNL d   1      14.902  12.255  -1.592  0.00  0.00     0.024 A 
ATOM     21  C   UNL d   1      14.367  11.953  -1.034  0.00  0.00     0.094 A 
ATOM     22  C   UNL d   1      13.591  11.782  -1.255  0.00  0.00     0.024 A 
ATOM     23  C   UNL d   1      13.345  11.910  -2.032  0.00  0.00     0.005 A 
BRANCH  21  24
ATOM     24  O   UNL d   1      14.613  11.826  -0.257  0.00  0.00    -0.328 OA
ATOM     25  C   UNL d   1      15.364  12.080  -0.014  0.00  0.00     0.181 C 
ENDBRANCH  21  24
ENDBRANCH   2  18
TORSDOF 8
ENDMDL
