MODEL 1
REMARK VINA RESULT:      58.6      0.000      0.000
REMARK  5 active torsions:
REMARK  status: ('A' for Active; 'I' for Inactive)
REMARK    1  A    between atoms: N_6  and  S_1 
REMARK    2  A    between atoms: C_8  and  S_1 
REMARK    3  A    between atoms: C_12  and  C_3 
REMARK    4  A    between atoms: C_4  and  C_11 
REMARK    5  A    between atoms: C_15  and  N_6 
ROOT
ATOM      1  C   UNL d   1      13.571  15.128  -5.143  0.00  0.00     0.018 A 
ATOM      2  C   UNL d   1      13.383  13.619  -4.510  0.00  0.00     0.094 A 
ATOM      3  C   UNL d   1      14.185  14.575  -5.192  0.00  0.00     0.003 A 
ATOM      4  C   UNL d   1      12.862  14.919  -4.775  0.00  0.00     0.003 A 
ATOM      5  C   UNL d   1      14.091  13.821  -4.875  0.00  0.00     0.020 A 
ATOM      6  C   UNL d   1      12.769  14.170  -4.461  0.00  0.00     0.020 A 
ENDROOT
BRANCH   1   7
ATOM      7  C   UNL d   1      13.665  15.882  -5.459  0.00  0.00     0.088 A 
ATOM      8  N   UNL d   1      14.044  17.137  -4.941  0.00  0.00    -0.239 NA
ATOM      9  C   UNL d   1      13.957  17.470  -5.684  0.00  0.00     0.111 A 
ATOM     10  S   UNL d   1      13.725  17.011  -6.314  0.00  0.00    -0.066 SA
ATOM     11  C   UNL d   1      13.577  16.207  -6.205  0.00  0.00     0.056 A 
BRANCH   9  12
ATOM     12  C   UNL d   1      14.105  18.270  -5.796  0.00  0.00     0.024 A 
ATOM     13  C   UNL d   1      14.751  18.619  -5.424  0.00  0.00     0.002 A 
ATOM     14  C   UNL d   1      14.894  19.420  -5.539  0.00  0.00     0.000 A 
ATOM     15  C   UNL d   1      14.402  19.872  -6.018  0.00  0.00     0.000 A 
ATOM     16  C   UNL d   1      13.754  19.515  -6.389  0.00  0.00     0.000 A 
ATOM     17  C   UNL d   1      13.605  18.706  -6.276  0.00  0.00     0.002 A 
ENDBRANCH   9  12
ENDBRANCH   1   7
BRANCH   2  18
ATOM     18  N   UNL d   1      13.282  12.860  -4.189  0.00  0.00    -0.158 NA
BRANCH  18  19
ATOM     19  S   UNL d   1      13.567  12.691  -3.442  0.00  0.00     0.285 S 
ATOM     20  O   UNL d   1      13.956  11.975  -3.303  0.00  0.00    -0.198 OA
ATOM     21  O   UNL d   1      13.468  13.232  -2.823  0.00  0.00    -0.198 OA
BRANCH  19  22
ATOM     22  C   UNL d   1      13.855  12.518  -2.687  0.00  0.00     0.105 A 
ATOM     23  C   UNL d   1      13.473  11.958  -2.213  0.00  0.00     0.013 A 
ATOM     24  C   UNL d   1      13.753  11.780  -1.462  0.00  0.00     0.001 A 
ATOM     25  C   UNL d   1      14.432  12.172  -1.178  0.00  0.00     0.000 A 
ATOM     26  C   UNL d   1      14.819  12.733  -1.646  0.00  0.00     0.001 A 
ATOM     27  C   UNL d   1      14.725  11.999  -0.416  0.00  0.00     0.000 C 
ATOM     28  C   UNL d   1      14.528  12.906  -2.405  0.00  0.00     0.013 A 
ENDBRANCH  19  22
ENDBRANCH  18  19
ENDBRANCH   2  18
TORSDOF 5
ENDMDL
