MODEL 1
REMARK VINA RESULT:      17.9      0.000      0.000
REMARK  4 active torsions:
REMARK  status: ('A' for Active; 'I' for Inactive)
REMARK    1  A    between atoms: S_2  and  C_1 
REMARK    2  A    between atoms: C_8  and  S_2 
REMARK    3  A    between atoms: N_7  and  C_4 
REMARK    4  A    between atoms: C_11  and  N_7 
ROOT
ATOM      1  C   UNL d   1      45.896 -16.235  44.394  0.00  0.00     0.187 A 
ATOM      2  N   UNL d   1      46.331 -15.568  44.317  0.00  0.00    -0.208 NA
ATOM      3  C   UNL d   1      45.896 -14.948  44.644  0.00  0.00     0.196 A 
ATOM      4  C   UNL d   1      45.180 -16.134  44.753  0.00  0.00     0.118 A 
ATOM      5  S   UNL d   1      45.161 -15.260  44.931  0.00  0.00    -0.035 SA
ATOM      6 CL   UNL d   1      44.565 -16.600  44.953  0.00  0.00    -0.073 Cl
ENDROOT
BRANCH   1   7
ATOM      7  S   UNL d   1      46.071 -17.021  44.159  0.00  0.00     0.228 S 
ATOM      8  O   UNL d   1      46.310 -16.673  43.354  0.00  0.00    -0.216 OA
ATOM      9  O   UNL d   1      45.831 -17.242  44.924  0.00  0.00    -0.216 OA
BRANCH   7  10
ATOM     10  C   UNL d   1      46.219 -17.762  43.987  0.00  0.00     0.089 A 
ATOM     11  C   UNL d   1      46.491 -18.330  44.477  0.00  0.00     0.011 A 
ATOM     12  C   UNL d   1      46.619 -19.117  44.183  0.00  0.00     0.001 A 
ATOM     13  C   UNL d   1      46.504 -19.398  43.446  0.00  0.00     0.000 A 
ATOM     14  C   UNL d   1      46.201 -18.819  42.842  0.00  0.00     0.001 A 
ATOM     15  C   UNL d   1      46.646 -20.243  43.143  0.00  0.00     0.000 C 
ATOM     16  C   UNL d   1      46.073 -18.032  43.136  0.00  0.00     0.011 A 
ENDBRANCH   7  10
ENDBRANCH   1   7
BRANCH   3  17
ATOM     17  N   UNL d   1      46.037 -14.043  44.752  0.00  0.00    -0.221 NA
BRANCH  17  18
ATOM     18  C   UNL d   1      45.695 -13.437  44.208  0.00  0.00     0.084 A 
ATOM     19  C   UNL d   1      45.963 -12.709  44.385  0.00  0.00     0.018 A 
ATOM     20  C   UNL d   1      46.465 -12.480  44.954  0.00  0.00     0.002 C 
ATOM     21  C   UNL d   1      45.656 -12.158  43.895  0.00  0.00     0.002 A 
ATOM     22  C   UNL d   1      45.079 -12.395  43.236  0.00  0.00     0.000 A 
ATOM     23  C   UNL d   1      44.849 -13.119  43.104  0.00  0.00     0.002 A 
ATOM     24  C   UNL d   1      45.232 -13.663  43.685  0.00  0.00     0.019 A 
ENDBRANCH  17  18
ENDBRANCH   3  17
TORSDOF 4
ENDMDL
MODEL 2
REMARK VINA RESULT:      18.9      1.005      4.923
REMARK  4 active torsions:
REMARK  status: ('A' for Active; 'I' for Inactive)
REMARK    1  A    between atoms: S_2  and  C_1 
REMARK    2  A    between atoms: C_8  and  S_2 
REMARK    3  A    between atoms: N_7  and  C_4 
REMARK    4  A    between atoms: C_11  and  N_7 
ROOT
ATOM      1  C   UNL d   1      45.899 -16.285  44.443  0.00  0.00     0.187 A 
ATOM      2  N   UNL d   1      46.506 -16.764  44.240  0.00  0.00    -0.208 NA
ATOM      3  C   UNL d   1      46.257 -17.543  44.348  0.00  0.00     0.196 A 
ATOM      4  C   UNL d   1      45.232 -16.668  44.690  0.00  0.00     0.118 A 
ATOM      5  S   UNL d   1      45.457 -17.529  44.632  0.00  0.00    -0.035 SA
ATOM      6 CL   UNL d   1      44.506 -16.457  44.942  0.00  0.00    -0.073 Cl
ENDROOT
BRANCH   1   7
ATOM      7  S   UNL d   1      45.849 -15.447  44.439  0.00  0.00     0.228 S 
ATOM      8  O   UNL d   1      46.620 -15.451  44.921  0.00  0.00    -0.216 OA
ATOM      9  O   UNL d   1      45.150 -15.548  43.999  0.00  0.00    -0.216 OA
BRANCH   7  10
ATOM     10  C   UNL d   1      45.762 -14.678  44.410  0.00  0.00     0.089 A 
ATOM     11  C   UNL d   1      46.013 -14.140  44.944  0.00  0.00     0.011 A 
ATOM     12  C   UNL d   1      45.863 -13.313  44.813  0.00  0.00     0.001 A 
ATOM     13  C   UNL d   1      45.488 -12.966  44.201  0.00  0.00     0.000 A 
ATOM     14  C   UNL d   1      45.180 -13.506  43.564  0.00  0.00     0.001 A 
ATOM     15  C   UNL d   1      45.334 -12.080  44.072  0.00  0.00     0.000 C 
ATOM     16  C   UNL d   1      45.329 -14.333  43.695  0.00  0.00     0.011 A 
ENDBRANCH   7  10
ENDBRANCH   1   7
BRANCH   3  17
ATOM     17  N   UNL d   1      46.646 -18.371  44.231  0.00  0.00    -0.221 NA
BRANCH  17  18
ATOM     18  C   UNL d   1      46.517 -18.862  43.509  0.00  0.00     0.084 A 
ATOM     19  C   UNL d   1      46.323 -19.610  43.701  0.00  0.00     0.018 A 
ATOM     20  C   UNL d   1      46.239 -19.941  44.417  0.00  0.00     0.002 C 
ATOM     21  C   UNL d   1      46.205 -20.058  43.051  0.00  0.00     0.002 A 
ATOM     22  C   UNL d   1      46.295 -19.701  42.221  0.00  0.00     0.000 A 
ATOM     23  C   UNL d   1      46.486 -18.966  42.086  0.00  0.00     0.002 A 
ATOM     24  C   UNL d   1      46.598 -18.542  42.853  0.00  0.00     0.019 A 
ENDBRANCH  17  18
ENDBRANCH   3  17
TORSDOF 4
ENDMDL
