MODEL 1
REMARK VINA RESULT:      -8.1      0.000      0.000
REMARK  7 active torsions:
REMARK  status: ('A' for Active; 'I' for Inactive)
REMARK    1  A    between atoms: N_2  and  C_1 
REMARK    2  A    between atoms: S_4  and  C_3 
REMARK    3  A    between atoms: C_6  and  S_4 
REMARK    4  A    between atoms: C_5  and  C_8 
REMARK    5  A    between atoms: C_9  and  C_6 
REMARK    6  A    between atoms: O_14  and  C_9 
REMARK    7  A    between atoms: C_12  and  O_14 
ROOT
ATOM      1  S   UNL d   1     -47.136  13.561  22.930  0.00  0.00     0.096 S 
ATOM      2  O   UNL d   1     -46.822  14.274  23.180  0.00  0.00    -0.247 OA
ENDROOT
BRANCH   1   3
ATOM      3  C   UNL d   1     -46.726  12.857  23.078  0.00  0.00     0.082 A 
ATOM      4  C   UNL d   1     -45.963  12.734  22.754  0.00  0.00     0.135 A 
ATOM      5  C   UNL d   1     -45.566  12.028  22.909  0.00  0.00     0.028 A 
ATOM      6  C   UNL d   1     -45.907  11.443  23.377  0.00  0.00     0.073 A 
ATOM      7  C   UNL d   1     -46.663  11.565  23.698  0.00  0.00     0.005 A 
ATOM      8  C   UNL d   1     -47.073  12.271  23.548  0.00  0.00     0.011 A 
BRANCH   4   9
ATOM      9  N   UNL d   1     -45.622  13.321  22.286  0.00  0.00    -0.113 N 
ATOM     10  O   UNL d   1     -45.649  13.250  21.455  0.00  0.00    -0.532 OA
ATOM     11  O   UNL d   1     -45.253  13.977  22.638  0.00  0.00    -0.532 OA
ENDBRANCH   4   9
BRANCH   6  12
ATOM     12  C   UNL d   1     -45.510  10.737  23.532  0.00  0.00     0.419 C 
ATOM     13  F   UNL d   1     -44.653  10.609  23.641  0.00  0.00    -0.166 F 
ATOM     14  F   UNL d   1     -45.134  10.098  23.674  0.00  0.00    -0.166 F 
ATOM     15  F   UNL d   1     -45.818   9.931  23.631  0.00  0.00    -0.166 F 
ENDBRANCH   6  12
ENDBRANCH   1   3
BRANCH   1  16
ATOM     16  C   UNL d   1     -47.858  13.540  22.530  0.00  0.00     0.137 C 
BRANCH  16  17
ATOM     17  C   UNL d   1     -48.444  14.097  22.710  0.00  0.00     0.309 C 
ATOM     18  O   UNL d   1     -48.328  14.891  22.521  0.00  0.00    -0.258 OA
BRANCH  17  19
ATOM     19  O   UNL d   1     -49.143  13.856  23.077  0.00  0.00    -0.273 OA
BRANCH  19  20
ATOM     20  C   UNL d   1     -49.760  14.067  22.829  0.00  0.00     0.103 A 
ATOM     21  C   UNL d   1     -50.042  13.762  22.268  0.00  0.00     0.025 A 
ATOM     22  C   UNL d   1     -50.664  13.972  22.015  0.00  0.00     0.002 A 
ATOM     23  C   UNL d   1     -50.946  13.666  21.455  0.00  0.00     0.000 C 
ATOM     24  C   UNL d   1     -51.001  14.498  22.336  0.00  0.00     0.000 A 
ATOM     25  C   UNL d   1     -50.715  14.812  22.910  0.00  0.00     0.002 A 
ATOM     26  C   UNL d   1     -50.097  14.593  23.150  0.00  0.00     0.025 A 
ATOM     27  C   UNL d   1     -51.058  15.347  23.236  0.00  0.00     0.000 C 
ENDBRANCH  19  20
ENDBRANCH  17  19
ENDBRANCH  16  17
ENDBRANCH   1  16
TORSDOF 7
ENDMDL
MODEL 2
REMARK VINA RESULT:      -6.7      2.321      4.794
REMARK  7 active torsions:
REMARK  status: ('A' for Active; 'I' for Inactive)
REMARK    1  A    between atoms: N_2  and  C_1 
REMARK    2  A    between atoms: S_4  and  C_3 
REMARK    3  A    between atoms: C_6  and  S_4 
REMARK    4  A    between atoms: C_5  and  C_8 
REMARK    5  A    between atoms: C_9  and  C_6 
REMARK    6  A    between atoms: O_14  and  C_9 
REMARK    7  A    between atoms: C_12  and  O_14 
ROOT
ATOM      1  S   UNL d   1     -47.283  13.328  22.859  0.00  0.00     0.096 S 
ATOM      2  O   UNL d   1     -47.179  14.107  23.085  0.00  0.00    -0.247 OA
ENDROOT
BRANCH   1   3
ATOM      3  C   UNL d   1     -48.004  12.949  23.006  0.00  0.00     0.082 A 
ATOM      4  C   UNL d   1     -48.705  13.208  22.625  0.00  0.00     0.135 A 
ATOM      5  C   UNL d   1     -49.417  12.823  22.780  0.00  0.00     0.028 A 
ATOM      6  C   UNL d   1     -49.451  12.188  23.304  0.00  0.00     0.073 A 
ATOM      7  C   UNL d   1     -48.758  11.931  23.681  0.00  0.00     0.005 A 
ATOM      8  C   UNL d   1     -48.035  12.312  23.532  0.00  0.00     0.011 A 
BRANCH   4   9
ATOM      9  N   UNL d   1     -48.670  13.844  22.101  0.00  0.00    -0.113 N 
ATOM     10  O   UNL d   1     -48.586  13.699  21.284  0.00  0.00    -0.532 OA
ATOM     11  O   UNL d   1     -48.720  14.624  22.384  0.00  0.00    -0.532 OA
ENDBRANCH   4   9
BRANCH   6  12
ATOM     12  C   UNL d   1     -50.164  11.802  23.459  0.00  0.00     0.419 C 
ATOM     13  F   UNL d   1     -50.974  12.125  23.424  0.00  0.00    -0.166 F 
ATOM     14  F   UNL d   1     -50.822  11.461  23.598  0.00  0.00    -0.166 F 
ATOM     15  F   UNL d   1     -50.316  10.981  23.697  0.00  0.00    -0.166 F 
ENDBRANCH   6  12
ENDBRANCH   1   3
BRANCH   1  16
ATOM     16  C   UNL d   1     -46.673  12.917  22.485  0.00  0.00     0.137 C 
BRANCH  16  17
ATOM     17  C   UNL d   1     -45.899  13.210  22.517  0.00  0.00     0.309 C 
ATOM     18  O   UNL d   1     -45.620  13.559  23.211  0.00  0.00    -0.258 OA
BRANCH  17  19
ATOM     19  O   UNL d   1     -45.408  13.153  21.856  0.00  0.00    -0.273 OA
BRANCH  19  20
ATOM     20  C   UNL d   1     -44.785  12.845  21.908  0.00  0.00     0.103 A 
ATOM     21  C   UNL d   1     -44.694  12.294  22.327  0.00  0.00     0.025 A 
ATOM     22  C   UNL d   1     -44.066  11.980  22.381  0.00  0.00     0.002 A 
ATOM     23  C   UNL d   1     -43.974  11.429  22.800  0.00  0.00     0.000 C 
ATOM     24  C   UNL d   1     -43.527  12.230  22.007  0.00  0.00     0.000 A 
ATOM     25  C   UNL d   1     -43.617  12.794  21.578  0.00  0.00     0.002 A 
ATOM     26  C   UNL d   1     -44.246  13.095  21.533  0.00  0.00     0.025 A 
ATOM     27  C   UNL d   1     -43.069  13.048  21.197  0.00  0.00     0.000 C 
ENDBRANCH  19  20
ENDBRANCH  17  19
ENDBRANCH  16  17
ENDBRANCH   1  16
TORSDOF 7
ENDMDL
MODEL 3
REMARK VINA RESULT:      -6.6      8.209      9.799
REMARK  7 active torsions:
REMARK  status: ('A' for Active; 'I' for Inactive)
REMARK    1  A    between atoms: N_2  and  C_1 
REMARK    2  A    between atoms: S_4  and  C_3 
REMARK    3  A    between atoms: C_6  and  S_4 
REMARK    4  A    between atoms: C_5  and  C_8 
REMARK    5  A    between atoms: C_9  and  C_6 
REMARK    6  A    between atoms: O_14  and  C_9 
REMARK    7  A    between atoms: C_12  and  O_14 
ROOT
ATOM      1  S   UNL d   1     -39.994  15.234  19.667  0.00  0.00     0.096 S 
ATOM      2  O   UNL d   1     -40.519  15.805  19.406  0.00  0.00    -0.247 OA
ENDROOT
BRANCH   1   3
ATOM      3  C   UNL d   1     -39.738  15.240  20.454  0.00  0.00     0.082 A 
ATOM      4  C   UNL d   1     -40.271  15.062  21.075  0.00  0.00     0.135 A 
ATOM      5  C   UNL d   1     -40.003  15.072  21.855  0.00  0.00     0.028 A 
ATOM      6  C   UNL d   1     -39.220  15.254  22.033  0.00  0.00     0.073 A 
ATOM      7  C   UNL d   1     -38.692  15.431  21.417  0.00  0.00     0.005 A 
ATOM      8  C   UNL d   1     -38.950  15.424  20.628  0.00  0.00     0.011 A 
BRANCH   4   9
ATOM      9  N   UNL d   1     -41.056  14.879  20.897  0.00  0.00    -0.113 N 
ATOM     10  O   UNL d   1     -41.624  15.490  20.873  0.00  0.00    -0.532 OA
ATOM     11  O   UNL d   1     -41.279  14.094  20.743  0.00  0.00    -0.532 OA
ENDBRANCH   4   9
BRANCH   6  12
ATOM     12  C   UNL d   1     -38.952  15.264  22.813  0.00  0.00     0.419 C 
ATOM     13  F   UNL d   1     -38.646  14.600  23.290  0.00  0.00    -0.166 F 
ATOM     14  F   UNL d   1     -38.705  15.260  23.526  0.00  0.00    -0.166 F 
ATOM     15  F   UNL d   1     -38.897  15.922  23.377  0.00  0.00    -0.166 F 
ENDBRANCH   6  12
ENDBRANCH   1   3
BRANCH   1  16
ATOM     16  C   UNL d   1     -39.720  14.651  19.150  0.00  0.00     0.137 C 
BRANCH  16  17
ATOM     17  C   UNL d   1     -39.731  14.787  18.334  0.00  0.00     0.309 C 
ATOM     18  O   UNL d   1     -39.579  15.542  18.040  0.00  0.00    -0.258 OA
BRANCH  17  19
ATOM     19  O   UNL d   1     -39.895  14.166  17.814  0.00  0.00    -0.273 OA
BRANCH  19  20
ATOM     20  C   UNL d   1     -39.379  13.860  17.461  0.00  0.00     0.103 A 
ATOM     21  C   UNL d   1     -39.084  13.273  17.697  0.00  0.00     0.025 A 
ATOM     22  C   UNL d   1     -38.563  12.961  17.343  0.00  0.00     0.002 A 
ATOM     23  C   UNL d   1     -38.268  12.374  17.579  0.00  0.00     0.000 C 
ATOM     24  C   UNL d   1     -38.340  13.249  16.742  0.00  0.00     0.000 A 
ATOM     25  C   UNL d   1     -38.639  13.849  16.497  0.00  0.00     0.002 A 
ATOM     26  C   UNL d   1     -39.156  14.148  16.860  0.00  0.00     0.025 A 
ATOM     27  C   UNL d   1     -38.413  14.141  15.886  0.00  0.00     0.000 C 
ENDBRANCH  19  20
ENDBRANCH  17  19
ENDBRANCH  16  17
ENDBRANCH   1  16
TORSDOF 7
ENDMDL
MODEL 4
REMARK VINA RESULT:      -6.4      8.972     10.027
REMARK  7 active torsions:
REMARK  status: ('A' for Active; 'I' for Inactive)
REMARK    1  A    between atoms: N_2  and  C_1 
REMARK    2  A    between atoms: S_4  and  C_3 
REMARK    3  A    between atoms: C_6  and  S_4 
REMARK    4  A    between atoms: C_5  and  C_8 
REMARK    5  A    between atoms: C_9  and  C_6 
REMARK    6  A    between atoms: O_14  and  C_9 
REMARK    7  A    between atoms: C_12  and  O_14 
ROOT
ATOM      1  S   UNL d   1     -39.237  14.202  18.849  0.00  0.00     0.096 S 
ATOM      2  O   UNL d   1     -38.796  13.544  18.642  0.00  0.00    -0.247 OA
ENDROOT
BRANCH   1   3
ATOM      3  C   UNL d   1     -39.752  14.541  18.297  0.00  0.00     0.082 A 
ATOM      4  C   UNL d   1     -39.451  14.970  17.643  0.00  0.00     0.135 A 
ATOM      5  C   UNL d   1     -39.974  15.303  17.100  0.00  0.00     0.028 A 
ATOM      6  C   UNL d   1     -40.789  15.221  17.191  0.00  0.00     0.073 A 
ATOM      7  C   UNL d   1     -41.088  14.796  17.838  0.00  0.00     0.005 A 
ATOM      8  C   UNL d   1     -40.569  14.456  18.391  0.00  0.00     0.011 A 
BRANCH   4   9
ATOM      9  N   UNL d   1     -38.635  15.052  17.552  0.00  0.00    -0.113 N 
ATOM     10  O   UNL d   1     -38.213  14.492  17.101  0.00  0.00    -0.532 OA
ATOM     11  O   UNL d   1     -38.236  15.689  17.908  0.00  0.00    -0.532 OA
ENDBRANCH   4   9
BRANCH   6  12
ATOM     12  C   UNL d   1     -41.313  15.554  16.647  0.00  0.00     0.419 C 
ATOM     13  F   UNL d   1     -41.138  15.893  15.863  0.00  0.00    -0.166 F 
ATOM     14  F   UNL d   1     -41.782  15.861  16.142  0.00  0.00    -0.166 F 
ATOM     15  F   UNL d   1     -42.173  15.663  16.695  0.00  0.00    -0.166 F 
ENDBRANCH   6  12
ENDBRANCH   1   3
BRANCH   1  16
ATOM     16  C   UNL d   1     -39.170  14.529  19.604  0.00  0.00     0.137 C 
BRANCH  16  17
ATOM     17  C   UNL d   1     -38.966  14.047  20.245  0.00  0.00     0.309 C 
ATOM     18  O   UNL d   1     -38.263  13.614  20.226  0.00  0.00    -0.258 OA
BRANCH  17  19
ATOM     19  O   UNL d   1     -39.463  14.000  20.902  0.00  0.00    -0.273 OA
BRANCH  19  20
ATOM     20  C   UNL d   1     -39.221  14.152  21.537  0.00  0.00     0.103 A 
ATOM     21  C   UNL d   1     -39.147  14.816  21.740  0.00  0.00     0.025 A 
ATOM     22  C   UNL d   1     -38.903  14.974  22.381  0.00  0.00     0.002 A 
ATOM     23  C   UNL d   1     -38.830  15.637  22.584  0.00  0.00     0.000 C 
ATOM     24  C   UNL d   1     -38.732  14.451  22.818  0.00  0.00     0.000 A 
ATOM     25  C   UNL d   1     -38.805  13.771  22.613  0.00  0.00     0.002 A 
ATOM     26  C   UNL d   1     -39.050  13.630  21.973  0.00  0.00     0.025 A 
ATOM     27  C   UNL d   1     -38.631  13.240  23.057  0.00  0.00     0.000 C 
ENDBRANCH  19  20
ENDBRANCH  17  19
ENDBRANCH  16  17
ENDBRANCH   1  16
TORSDOF 7
ENDMDL
MODEL 5
REMARK VINA RESULT:      -6.0      3.031      5.184
REMARK  7 active torsions:
REMARK  status: ('A' for Active; 'I' for Inactive)
REMARK    1  A    between atoms: N_2  and  C_1 
REMARK    2  A    between atoms: S_4  and  C_3 
REMARK    3  A    between atoms: C_6  and  S_4 
REMARK    4  A    between atoms: C_5  and  C_8 
REMARK    5  A    between atoms: C_9  and  C_6 
REMARK    6  A    between atoms: O_14  and  C_9 
REMARK    7  A    between atoms: C_12  and  O_14 
ROOT
ATOM      1  S   UNL d   1     -48.759  12.342  23.194  0.00  0.00     0.096 S 
ATOM      2  O   UNL d   1     -49.101  11.670  23.513  0.00  0.00    -0.247 OA
ENDROOT
BRANCH   1   3
ATOM      3  C   UNL d   1     -49.221  13.016  23.063  0.00  0.00     0.082 A 
ATOM      4  C   UNL d   1     -49.725  13.062  22.396  0.00  0.00     0.135 A 
ATOM      5  C   UNL d   1     -50.181  13.739  22.276  0.00  0.00     0.028 A 
ATOM      6  C   UNL d   1     -50.148  14.371  22.803  0.00  0.00     0.073 A 
ATOM      7  C   UNL d   1     -49.649  14.326  23.465  0.00  0.00     0.005 A 
ATOM      8  C   UNL d   1     -49.185  13.649  23.595  0.00  0.00     0.011 A 
BRANCH   4   9
ATOM      9  N   UNL d   1     -49.758  12.429  21.868  0.00  0.00    -0.113 N 
ATOM     10  O   UNL d   1     -50.346  11.845  21.962  0.00  0.00    -0.532 OA
ATOM     11  O   UNL d   1     -49.209  12.372  21.247  0.00  0.00    -0.532 OA
ENDBRANCH   4   9
BRANCH   6  12
ATOM     12  C   UNL d   1     -50.604  15.048  22.684  0.00  0.00     0.419 C 
ATOM     13  F   UNL d   1     -50.748  15.481  21.940  0.00  0.00    -0.166 F 
ATOM     14  F   UNL d   1     -51.017  15.667  22.562  0.00  0.00    -0.166 F 
ATOM     15  F   UNL d   1     -51.064  15.519  23.250  0.00  0.00    -0.166 F 
ENDBRANCH   6  12
ENDBRANCH   1   3
BRANCH   1  16
ATOM     16  C   UNL d   1     -47.956  12.351  23.004  0.00  0.00     0.137 C 
BRANCH  16  17
ATOM     17  C   UNL d   1     -47.418  11.923  23.464  0.00  0.00     0.309 C 
ATOM     18  O   UNL d   1     -47.595  11.149  23.689  0.00  0.00    -0.258 OA
BRANCH  17  19
ATOM     19  O   UNL d   1     -46.706  12.269  23.698  0.00  0.00    -0.273 OA
BRANCH  19  20
ATOM     20  C   UNL d   1     -46.108  12.082  23.392  0.00  0.00     0.103 A 
ATOM     21  C   UNL d   1     -45.829  12.474  22.888  0.00  0.00     0.025 A 
ATOM     22  C   UNL d   1     -45.225  12.289  22.577  0.00  0.00     0.002 A 
ATOM     23  C   UNL d   1     -44.945  12.681  22.072  0.00  0.00     0.000 C 
ATOM     24  C   UNL d   1     -44.904  11.699  22.782  0.00  0.00     0.000 A 
ATOM     25  C   UNL d   1     -45.188  11.296  23.298  0.00  0.00     0.002 A 
ATOM     26  C   UNL d   1     -45.788  11.492  23.598  0.00  0.00     0.025 A 
ATOM     27  C   UNL d   1     -44.861  10.696  23.507  0.00  0.00     0.000 C 
ENDBRANCH  19  20
ENDBRANCH  17  19
ENDBRANCH  16  17
ENDBRANCH   1  16
TORSDOF 7
ENDMDL
MODEL 6
REMARK VINA RESULT:      -5.8      2.916      5.368
REMARK  7 active torsions:
REMARK  status: ('A' for Active; 'I' for Inactive)
REMARK    1  A    between atoms: N_2  and  C_1 
REMARK    2  A    between atoms: S_4  and  C_3 
REMARK    3  A    between atoms: C_6  and  S_4 
REMARK    4  A    between atoms: C_5  and  C_8 
REMARK    5  A    between atoms: C_9  and  C_6 
REMARK    6  A    between atoms: O_14  and  C_9 
REMARK    7  A    between atoms: C_12  and  O_14 
ROOT
ATOM      1  S   UNL d   1     -47.006  13.317  22.938  0.00  0.00     0.096 S 
ATOM      2  O   UNL d   1     -46.970  12.761  23.536  0.00  0.00    -0.247 OA
ENDROOT
BRANCH   1   3
ATOM      3  C   UNL d   1     -47.663  13.818  22.881  0.00  0.00     0.082 A 
ATOM      4  C   UNL d   1     -48.439  13.502  22.883  0.00  0.00     0.135 A 
ATOM      5  C   UNL d   1     -49.085  14.011  22.826  0.00  0.00     0.028 A 
ATOM      6  C   UNL d   1     -48.979  14.826  22.767  0.00  0.00     0.073 A 
ATOM      7  C   UNL d   1     -48.211  15.140  22.765  0.00  0.00     0.005 A 
ATOM      8  C   UNL d   1     -47.553  14.636  22.822  0.00  0.00     0.011 A 
BRANCH   4   9
ATOM      9  N   UNL d   1     -48.545  12.686  22.942  0.00  0.00    -0.113 N 
ATOM     10  O   UNL d   1     -48.629  12.336  23.694  0.00  0.00    -0.532 OA
ATOM     11  O   UNL d   1     -48.567  12.216  22.257  0.00  0.00    -0.532 OA
ENDBRANCH   4   9
BRANCH   6  12
ATOM     12  C   UNL d   1     -49.626  15.336  22.710  0.00  0.00     0.419 C 
ATOM     13  F   UNL d   1     -50.067  15.727  23.354  0.00  0.00    -0.166 F 
ATOM     14  F   UNL d   1     -50.217  15.803  22.672  0.00  0.00    -0.166 F 
ATOM     15  F   UNL d   1     -50.049  15.627  22.010  0.00  0.00    -0.166 F 
ENDBRANCH   6  12
ENDBRANCH   1   3
BRANCH   1  16
ATOM     16  C   UNL d   1     -46.392  13.382  22.390  0.00  0.00     0.137 C 
BRANCH  16  17
ATOM     17  C   UNL d   1     -45.680  12.981  22.521  0.00  0.00     0.309 C 
ATOM     18  O   UNL d   1     -45.347  12.971  23.276  0.00  0.00    -0.258 OA
BRANCH  17  19
ATOM     19  O   UNL d   1     -45.304  12.593  21.898  0.00  0.00    -0.273 OA
BRANCH  19  20
ATOM     20  C   UNL d   1     -44.609  12.536  21.888  0.00  0.00     0.103 A 
ATOM     21  C   UNL d   1     -44.220  12.987  21.525  0.00  0.00     0.025 A 
ATOM     22  C   UNL d   1     -43.518  12.932  21.513  0.00  0.00     0.002 A 
ATOM     23  C   UNL d   1     -43.128  13.383  21.150  0.00  0.00     0.000 C 
ATOM     24  C   UNL d   1     -43.211  12.414  21.874  0.00  0.00     0.000 A 
ATOM     25  C   UNL d   1     -43.607  11.951  22.247  0.00  0.00     0.002 A 
ATOM     26  C   UNL d   1     -44.303  12.017  22.249  0.00  0.00     0.025 A 
ATOM     27  C   UNL d   1     -43.295  11.424  22.614  0.00  0.00     0.000 C 
ENDBRANCH  19  20
ENDBRANCH  17  19
ENDBRANCH  16  17
ENDBRANCH   1  16
TORSDOF 7
ENDMDL
MODEL 7
REMARK VINA RESULT:      -5.4      2.473      4.891
REMARK  7 active torsions:
REMARK  status: ('A' for Active; 'I' for Inactive)
REMARK    1  A    between atoms: N_2  and  C_1 
REMARK    2  A    between atoms: S_4  and  C_3 
REMARK    3  A    between atoms: C_6  and  S_4 
REMARK    4  A    between atoms: C_5  and  C_8 
REMARK    5  A    between atoms: C_9  and  C_6 
REMARK    6  A    between atoms: O_14  and  C_9 
REMARK    7  A    between atoms: C_12  and  O_14 
ROOT
ATOM      1  S   UNL d   1     -47.137  13.451  22.219  0.00  0.00     0.096 S 
ATOM      2  O   UNL d   1     -46.664  14.036  21.896  0.00  0.00    -0.247 OA
ENDROOT
BRANCH   1   3
ATOM      3  C   UNL d   1     -47.937  13.408  22.011  0.00  0.00     0.082 A 
ATOM      4  C   UNL d   1     -48.479  13.985  22.287  0.00  0.00     0.135 A 
ATOM      5  C   UNL d   1     -49.274  13.931  22.073  0.00  0.00     0.028 A 
ATOM      6  C   UNL d   1     -49.543  13.318  21.592  0.00  0.00     0.073 A 
ATOM      7  C   UNL d   1     -49.006  12.747  21.319  0.00  0.00     0.005 A 
ATOM      8  C   UNL d   1     -48.204  12.792  21.528  0.00  0.00     0.011 A 
BRANCH   4   9
ATOM      9  N   UNL d   1     -48.209  14.598  22.768  0.00  0.00    -0.113 N 
ATOM     10  O   UNL d   1     -48.278  14.530  23.597  0.00  0.00    -0.532 OA
ATOM     11  O   UNL d   1     -47.871  15.278  22.431  0.00  0.00    -0.532 OA
ENDBRANCH   4   9
BRANCH   6  12
ATOM     12  C   UNL d   1     -50.337  13.264  21.378  0.00  0.00     0.419 C 
ATOM     13  F   UNL d   1     -50.842  12.553  21.339  0.00  0.00    -0.166 F 
ATOM     14  F   UNL d   1     -51.064  13.202  21.184  0.00  0.00    -0.166 F 
ATOM     15  F   UNL d   1     -50.894  13.884  21.133  0.00  0.00    -0.166 F 
ENDBRANCH   6  12
ENDBRANCH   1   3
BRANCH   1  16
ATOM     16  C   UNL d   1     -46.821  12.905  22.751  0.00  0.00     0.137 C 
BRANCH  16  17
ATOM     17  C   UNL d   1     -46.028  12.677  22.684  0.00  0.00     0.309 C 
ATOM     18  O   UNL d   1     -45.639  12.750  21.960  0.00  0.00    -0.258 OA
BRANCH  17  19
ATOM     19  O   UNL d   1     -45.628  12.376  23.341  0.00  0.00    -0.273 OA
BRANCH  19  20
ATOM     20  C   UNL d   1     -45.537  11.689  23.412  0.00  0.00     0.103 A 
ATOM     21  C   UNL d   1     -44.898  11.409  23.379  0.00  0.00     0.025 A 
ATOM     22  C   UNL d   1     -44.802  10.716  23.450  0.00  0.00     0.002 A 
ATOM     23  C   UNL d   1     -44.163  10.436  23.417  0.00  0.00     0.000 C 
ATOM     24  C   UNL d   1     -45.361  10.304  23.555  0.00  0.00     0.000 A 
ATOM     25  C   UNL d   1     -46.015  10.587  23.590  0.00  0.00     0.002 A 
ATOM     26  C   UNL d   1     -46.096  11.278  23.517  0.00  0.00     0.025 A 
ATOM     27  C   UNL d   1     -46.584  10.169  23.697  0.00  0.00     0.000 C 
ENDBRANCH  19  20
ENDBRANCH  17  19
ENDBRANCH  16  17
ENDBRANCH   1  16
TORSDOF 7
ENDMDL
MODEL 8
REMARK VINA RESULT:      -5.2      8.468      9.462
REMARK  7 active torsions:
REMARK  status: ('A' for Active; 'I' for Inactive)
REMARK    1  A    between atoms: N_2  and  C_1 
REMARK    2  A    between atoms: S_4  and  C_3 
REMARK    3  A    between atoms: C_6  and  S_4 
REMARK    4  A    between atoms: C_5  and  C_8 
REMARK    5  A    between atoms: C_9  and  C_6 
REMARK    6  A    between atoms: O_14  and  C_9 
REMARK    7  A    between atoms: C_12  and  O_14 
ROOT
ATOM      1  S   UNL d   1     -39.315  14.962  20.136  0.00  0.00     0.096 S 
ATOM      2  O   UNL d   1     -39.445  15.768  20.183  0.00  0.00    -0.247 OA
ENDROOT
BRANCH   1   3
ATOM      3  C   UNL d   1     -39.079  14.543  20.811  0.00  0.00     0.082 A 
ATOM      4  C   UNL d   1     -39.614  14.426  21.445  0.00  0.00     0.135 A 
ATOM      5  C   UNL d   1     -39.368  14.008  22.112  0.00  0.00     0.028 A 
ATOM      6  C   UNL d   1     -38.604  13.703  22.164  0.00  0.00     0.073 A 
ATOM      7  C   UNL d   1     -38.074  13.819  21.535  0.00  0.00     0.005 A 
ATOM      8  C   UNL d   1     -38.312  14.239  20.859  0.00  0.00     0.011 A 
BRANCH   4   9
ATOM      9  N   UNL d   1     -40.379  14.731  21.393  0.00  0.00    -0.113 N 
ATOM     10  O   UNL d   1     -41.001  14.238  21.140  0.00  0.00    -0.532 OA
ATOM     11  O   UNL d   1     -40.528  15.524  21.592  0.00  0.00    -0.532 OA
ENDBRANCH   4   9
BRANCH   6  12
ATOM     12  C   UNL d   1     -38.358  13.285  22.830  0.00  0.00     0.419 C 
ATOM     13  F   UNL d   1     -38.431  12.430  22.993  0.00  0.00    -0.166 F 
ATOM     14  F   UNL d   1     -38.137  12.891  23.435  0.00  0.00    -0.166 F 
ATOM     15  F   UNL d   1     -37.962  13.564  23.551  0.00  0.00    -0.166 F 
ENDBRANCH   6  12
ENDBRANCH   1   3
BRANCH   1  16
ATOM     16  C   UNL d   1     -39.416  14.563  19.421  0.00  0.00     0.137 C 
BRANCH  16  17
ATOM     17  C   UNL d   1     -39.268  14.955  18.707  0.00  0.00     0.309 C 
ATOM     18  O   UNL d   1     -38.925  15.705  18.713  0.00  0.00    -0.258 OA
BRANCH  17  19
ATOM     19  O   UNL d   1     -39.463  14.595  17.990  0.00  0.00    -0.273 OA
BRANCH  19  20
ATOM     20  C   UNL d   1     -39.679  14.981  17.452  0.00  0.00     0.103 A 
ATOM     21  C   UNL d   1     -39.221  15.255  17.003  0.00  0.00     0.025 A 
ATOM     22  C   UNL d   1     -39.435  15.645  16.458  0.00  0.00     0.002 A 
ATOM     23  C   UNL d   1     -38.976  15.919  16.009  0.00  0.00     0.000 C 
ATOM     24  C   UNL d   1     -40.123  15.757  16.370  0.00  0.00     0.000 A 
ATOM     25  C   UNL d   1     -40.595  15.478  16.827  0.00  0.00     0.002 A 
ATOM     26  C   UNL d   1     -40.367  15.093  17.363  0.00  0.00     0.025 A 
ATOM     27  C   UNL d   1     -41.294  15.592  16.737  0.00  0.00     0.000 C 
ENDBRANCH  19  20
ENDBRANCH  17  19
ENDBRANCH  16  17
ENDBRANCH   1  16
TORSDOF 7
ENDMDL
