MODEL 1
REMARK VINA RESULT:      37.6      0.000      0.000
REMARK  7 active torsions:
REMARK  status: ('A' for Active; 'I' for Inactive)
REMARK    1  A    between atoms: N_7  and  S_1 
REMARK    2  A    between atoms: C_19  and  S_1 
REMARK    3  A    between atoms: N_2  and  C_3 
REMARK    4  A    between atoms: C_3  and  C_6 
REMARK    5  A    between atoms: C_5  and  C_3 
REMARK    6  A    between atoms: C_16  and  N_4 
REMARK    7  A    between atoms: C_6  and  N_7 
ROOT
ATOM      1  C   UNL d   1      13.206  13.196  -4.463  0.00  0.00     0.107 C 
ENDROOT
BRANCH   1   2
ATOM      2  N   UNL d   1      13.476  12.959  -3.720  0.00  0.00    -0.298 N 
ATOM      3  C   UNL d   1      13.229  12.239  -3.402  0.00  0.00     0.100 A 
ATOM      4  C   UNL d   1      13.500  12.006  -2.661  0.00  0.00     0.100 A 
ATOM      5  N   UNL d   1      14.015  12.485  -2.233  0.00  0.00    -0.301 N 
ATOM      6  C   UNL d   1      14.262  13.205  -2.551  0.00  0.00     0.100 A 
ATOM      7  C   UNL d   1      13.992  13.442  -3.294  0.00  0.00     0.100 A 
BRANCH   5   8
ATOM      8  C   UNL d   1      14.283  12.251  -1.496  0.00  0.00     0.064 A 
ATOM      9  C   UNL d   1      13.767  12.218  -0.860  0.00  0.00     0.018 A 
ATOM     10  C   UNL d   1      14.035  11.983  -0.118  0.00  0.00     0.002 A 
ATOM     11  C   UNL d   1      14.828  11.780  -0.014  0.00  0.00     0.000 A 
ATOM     12  C   UNL d   1      15.349  11.812  -0.653  0.00  0.00     0.002 A 
ATOM     13  C   UNL d   1      15.076  12.048  -1.393  0.00  0.00     0.018 A 
ENDBRANCH   5   8
ENDBRANCH   1   2
BRANCH   1  14
ATOM     14  C   UNL d   1      12.856  13.936  -4.576  0.00  0.00     0.132 C 
BRANCH  14  15
ATOM     15  N   UNL d   1      13.305  14.628  -4.423  0.00  0.00    -0.155 NA
BRANCH  15  16
ATOM     16  S   UNL d   1      13.139  15.321  -4.830  0.00  0.00     0.286 S 
ATOM     17  O   UNL d   1      13.466  15.768  -4.212  0.00  0.00    -0.198 OA
ATOM     18  O   UNL d   1      12.813  14.870  -5.447  0.00  0.00    -0.198 OA
BRANCH  16  19
ATOM     19  C   UNL d   1      12.968  16.014  -5.249  0.00  0.00     0.117 C 
ATOM     20  C   UNL d   1      13.583  16.463  -5.567  0.00  0.00     0.014 C 
ENDBRANCH  16  19
ENDBRANCH  15  16
ENDBRANCH  14  15
ENDBRANCH   1  14
BRANCH   1  21
ATOM     21  C   UNL d   1      13.286  12.678  -5.118  0.00  0.00     0.118 A 
ATOM     22  O   UNL d   1      13.985  12.659  -5.551  0.00  0.00    -0.304 OA
ATOM     23  C   UNL d   1      13.897  12.100  -6.157  0.00  0.00     0.123 A 
ATOM     24  C   UNL d   1      13.150  11.779  -6.095  0.00  0.00     0.029 A 
ATOM     25  C   UNL d   1      12.770  12.135  -5.453  0.00  0.00     0.028 A 
ENDBRANCH   1  21
TORSDOF 7
ENDMDL
