MODEL 1
REMARK VINA RESULT:      25.0      0.000      0.000
REMARK  3 active torsions:
REMARK  status: ('A' for Active; 'I' for Inactive)
REMARK       I    between atoms: N_3  and  C_8 
REMARK    1  A    between atoms: S_12  and  C_6 
REMARK    2  A    between atoms: C_8  and  C_14 
REMARK    3  A    between atoms: C_14  and  S_12 
ROOT
ATOM      1  S   UNL d   1      45.924 -16.464  43.762  0.00  0.00    -0.060 SA
ENDROOT
BRANCH   1   2
ATOM      2  C   UNL d   1      46.157 -17.235  43.929  0.00  0.00     0.137 A 
ATOM      3  C   UNL d   1      46.215 -17.790  43.331  0.00  0.00     0.141 A 
ATOM      4  O   UNL d   1      46.079 -17.743  42.521  0.00  0.00    -0.303 OA
ATOM      5  C   UNL d   1      46.448 -18.557  43.510  0.00  0.00     0.110 A 
ATOM      6  C   UNL d   1      46.230 -18.485  42.204  0.00  0.00     0.102 A 
ATOM      7  C   UNL d   1      46.190 -18.777  41.427  0.00  0.00     0.025 A 
ATOM      8  C   UNL d   1      46.457 -18.985  42.812  0.00  0.00     0.043 A 
ATOM      9  C   UNL d   1      46.377 -19.560  41.271  0.00  0.00     0.002 A 
ATOM     10  C   UNL d   1      46.603 -20.059  41.880  0.00  0.00     0.000 A 
ATOM     11  C   UNL d   1      46.644 -19.775  42.652  0.00  0.00     0.004 A 
ATOM     12  N   UNL d   1      46.622 -18.769  44.284  0.00  0.00    -0.222 NA
ATOM     13  C   UNL d   1      46.564 -18.215  44.881  0.00  0.00     0.200 A 
ATOM     14  N   UNL d   1      46.332 -17.443  44.714  0.00  0.00    -0.215 NA
ENDBRANCH   1   2
BRANCH   1  15
ATOM     15  C   UNL d   1      45.852 -15.918  44.359  0.00  0.00     0.098 C 
BRANCH  15  16
ATOM     16  C   UNL d   1      45.104 -15.685  44.634  0.00  0.00     0.271 C 
ATOM     17  N   UNL d   1      44.873 -14.890  44.598  0.00  0.00    -0.273 N 
ATOM     18  C   UNL d   1      45.383 -14.328  44.290  0.00  0.00     0.067 A 
ATOM     19  C   UNL d   1      44.122 -14.659  44.874  0.00  0.00     0.083 A 
ATOM     20  C   UNL d   1      45.158 -13.534  44.252  0.00  0.00     0.016 A 
ATOM     21  C   UNL d   1      46.128 -14.557  44.017  0.00  0.00     0.018 A 
ATOM     22  C   UNL d   1      45.670 -12.958  43.942  0.00  0.00     0.001 A 
ATOM     23  C   UNL d   1      44.413 -13.305  44.526  0.00  0.00     0.003 A 
ATOM     24  C   UNL d   1      46.416 -13.199  43.669  0.00  0.00     0.000 A 
ATOM     25  C   UNL d   1      46.645 -13.990  43.705  0.00  0.00     0.002 A 
ATOM     26  C   UNL d   1      43.899 -13.863  44.834  0.00  0.00     0.019 A 
ATOM     27  O   UNL d   1      44.588 -16.252  44.945  0.00  0.00    -0.266 OA
ENDBRANCH  15  16
ENDBRANCH   1  15
TORSDOF 3
ENDMDL
MODEL 2
REMARK VINA RESULT:      25.5      1.053      4.904
REMARK  3 active torsions:
REMARK  status: ('A' for Active; 'I' for Inactive)
REMARK       I    between atoms: N_3  and  C_8 
REMARK    1  A    between atoms: S_12  and  C_6 
REMARK    2  A    between atoms: C_8  and  C_14 
REMARK    3  A    between atoms: C_14  and  S_12 
ROOT
ATOM      1  S   UNL d   1      45.353 -16.322  43.813  0.00  0.00    -0.060 SA
ENDROOT
BRANCH   1   2
ATOM      2  C   UNL d   1      45.683 -15.632  44.116  0.00  0.00     0.137 A 
ATOM      3  C   UNL d   1      45.391 -14.901  43.894  0.00  0.00     0.141 A 
ATOM      4  O   UNL d   1      44.783 -14.681  43.386  0.00  0.00    -0.303 OA
ATOM      5  C   UNL d   1      45.728 -14.218  44.204  0.00  0.00     0.110 A 
ATOM      6  C   UNL d   1      44.748 -13.861  43.385  0.00  0.00     0.102 A 
ATOM      7  C   UNL d   1      44.255 -13.325  42.985  0.00  0.00     0.025 A 
ATOM      8  C   UNL d   1      45.329 -13.577  43.888  0.00  0.00     0.043 A 
ATOM      9  C   UNL d   1      44.349 -12.518  43.093  0.00  0.00     0.002 A 
ATOM     10  C   UNL d   1      44.931 -12.235  43.596  0.00  0.00     0.000 A 
ATOM     11  C   UNL d   1      45.423 -12.762  43.995  0.00  0.00     0.004 A 
ATOM     12  N   UNL d   1      46.354 -14.266  44.733  0.00  0.00    -0.222 NA
ATOM     13  C   UNL d   1      46.645 -14.996  44.954  0.00  0.00     0.200 A 
ATOM     14  N   UNL d   1      46.316 -15.687  44.651  0.00  0.00    -0.215 NA
ENDBRANCH   1   2
BRANCH   1  15
ATOM     15  C   UNL d   1      45.824 -16.964  43.650  0.00  0.00     0.098 C 
BRANCH  15  16
ATOM     16  C   UNL d   1      45.825 -17.628  44.150  0.00  0.00     0.271 C 
ATOM     17  N   UNL d   1      46.027 -18.375  43.854  0.00  0.00    -0.273 N 
ATOM     18  C   UNL d   1      46.228 -18.463  43.065  0.00  0.00     0.067 A 
ATOM     19  C   UNL d   1      46.027 -19.038  44.357  0.00  0.00     0.083 A 
ATOM     20  C   UNL d   1      46.430 -19.206  42.765  0.00  0.00     0.016 A 
ATOM     21  C   UNL d   1      46.227 -17.805  42.566  0.00  0.00     0.018 A 
ATOM     22  C   UNL d   1      46.635 -19.303  41.966  0.00  0.00     0.001 A 
ATOM     23  C   UNL d   1      46.431 -19.864  43.264  0.00  0.00     0.003 A 
ATOM     24  C   UNL d   1      46.631 -18.636  41.473  0.00  0.00     0.000 A 
ATOM     25  C   UNL d   1      46.430 -17.893  41.767  0.00  0.00     0.002 A 
ATOM     26  C   UNL d   1      46.231 -19.780  44.054  0.00  0.00     0.019 A 
ATOM     27  O   UNL d   1      45.622 -17.539  44.947  0.00  0.00    -0.266 OA
ENDBRANCH  15  16
ENDBRANCH   1  15
TORSDOF 3
ENDMDL
