MODEL 1
REMARK VINA RESULT:     104.7      0.000      0.000
REMARK  2 active torsions:
REMARK  status: ('A' for Active; 'I' for Inactive)
REMARK    1  A    between atoms: N_9  and  C_3 
REMARK    2  A    between atoms: C_11  and  C_4 
ROOT
ATOM      1  N   UNL d   1      59.115  49.006  51.336  0.00  0.00    -0.196 N 
ATOM      2  C   UNL d   1      59.890  49.045  51.630  0.00  0.00     0.167 A 
ATOM      3  C   UNL d   1      58.975  48.650  50.599  0.00  0.00     0.153 A 
ATOM      4  C   UNL d   1      60.040  49.393  52.354  0.00  0.00     0.057 A 
ATOM      5  N   UNL d   1      58.631  49.671  52.504  0.00  0.00    -0.161 NA
ATOM      6  N   UNL d   1      60.513  48.731  51.191  0.00  0.00    -0.227 NA
ATOM      7  C   UNL d   1      59.598  48.342  50.172  0.00  0.00     0.057 A 
ATOM      8  C   UNL d   1      59.407  49.708  52.794  0.00  0.00     0.124 A 
ATOM      9  C   UNL d   1      60.371  48.383  50.469  0.00  0.00     0.086 A 
ATOM     10  C   UNL d   1      60.994  48.070  50.030  0.00  0.00     0.021 C 
ENDROOT
BRANCH   4  11
ATOM     11  C   UNL d   1      60.809  49.433  52.650  0.00  0.00     0.004 A 
ATOM     12  C   UNL d   1      61.449  49.254  52.159  0.00  0.00     0.000 A 
ATOM     13  C   UNL d   1      62.218  49.295  52.454  0.00  0.00     0.000 A 
ATOM     14  C   UNL d   1      62.342  49.518  53.253  0.00  0.00     0.000 A 
ATOM     15  C   UNL d   1      61.694  49.693  53.727  0.00  0.00     0.000 A 
ATOM     16  C   UNL d   1      63.111  49.559  53.549  0.00  0.00     0.000 C 
ATOM     17  C   UNL d   1      60.928  49.652  53.433  0.00  0.00     0.000 A 
ENDBRANCH   4  11
BRANCH   3  18
ATOM     18  N   UNL d   1      58.178  48.608  50.292  0.00  0.00    -0.285 N 
ATOM     19  C   UNL d   1      57.747  47.872  50.338  0.00  0.00     0.108 A 
ATOM     20  C   UNL d   1      56.958  47.835  50.033  0.00  0.00     0.142 A 
ATOM     21  O   UNL d   1      56.587  48.536  49.677  0.00  0.00    -0.300 OA
ATOM     22  C   UNL d   1      57.033  49.251  49.643  0.00  0.00     0.142 A 
ATOM     23  C   UNL d   1      57.823  49.293  49.947  0.00  0.00     0.108 A 
ENDBRANCH   3  18
TORSDOF 2
ENDMDL
