MODEL 1
REMARK VINA RESULT:      -6.5      0.000      0.000
REMARK  5 active torsions:
REMARK  status: ('A' for Active; 'I' for Inactive)
REMARK    1  A    between atoms: N_4  and  C_1 
REMARK    2  A    between atoms: C_10  and  C_3 
REMARK       I    between atoms: C_7  and  N_4 
REMARK    3  A    between atoms: C_8  and  C_7 
REMARK    4  A    between atoms: C_9  and  C_8 
REMARK    5  A    between atoms: C_12  and  C_9 
ROOT
ATOM      1  C   UNL d   1     -46.161  13.178  22.920  0.00  0.00     0.197 A 
ATOM      2  N   UNL d   1     -45.940  12.495  23.319  0.00  0.00    -0.221 NA
ATOM      3  C   UNL d   1     -45.336  12.134  22.908  0.00  0.00     0.090 A 
ATOM      4  S   UNL d   1     -45.697  13.249  22.257  0.00  0.00    -0.046 SA
ATOM      5  C   UNL d   1     -45.184  12.604  22.245  0.00  0.00     0.058 A 
ENDROOT
BRANCH   1   6
ATOM      6  N   UNL d   1     -46.767  13.709  23.163  0.00  0.00    -0.183 NA
ATOM      7  C   UNL d   1     -47.443  13.793  22.700  0.00  0.00     0.281 C 
ATOM      8  O   UNL d   1     -47.532  13.374  22.017  0.00  0.00    -0.265 OA
BRANCH   7   9
ATOM      9  C   UNL d   1     -48.042  14.314  22.935  0.00  0.00     0.063 C 
BRANCH   9  10
ATOM     10  C   UNL d   1     -48.821  14.179  22.715  0.00  0.00     0.005 C 
BRANCH  10  11
ATOM     11  C   UNL d   1     -49.433  14.625  23.043  0.00  0.00     0.000 A 
ATOM     12  C   UNL d   1     -49.375  15.430  23.048  0.00  0.00     0.000 A 
ATOM     13  C   UNL d   1     -49.965  15.871  23.365  0.00  0.00     0.000 A 
ATOM     14  C   UNL d   1     -50.646  15.506  23.695  0.00  0.00     0.000 A 
ATOM     15  C   UNL d   1     -50.708  14.693  23.693  0.00  0.00     0.000 A 
ATOM     16  C   UNL d   1     -50.095  14.245  23.363  0.00  0.00     0.000 A 
ENDBRANCH  10  11
ENDBRANCH   9  10
ENDBRANCH   7   9
ENDBRANCH   1   6
BRANCH   3  17
ATOM     17  C   UNL d   1     -44.978  11.430  23.154  0.00  0.00     0.018 A 
ATOM     18  C   UNL d   1     -45.425  10.834  23.455  0.00  0.00     0.002 A 
ATOM     19  C   UNL d   1     -45.051  10.135  23.697  0.00  0.00     0.000 A 
ATOM     20  C   UNL d   1     -44.240  10.051  23.632  0.00  0.00     0.000 A 
ATOM     21  C   UNL d   1     -43.787  10.665  23.323  0.00  0.00     0.000 A 
ATOM     22  C   UNL d   1     -44.151  11.345  23.087  0.00  0.00     0.002 A 
ENDBRANCH   3  17
TORSDOF 5
ENDMDL
MODEL 2
REMARK VINA RESULT:      -6.2      1.022      5.578
REMARK  5 active torsions:
REMARK  status: ('A' for Active; 'I' for Inactive)
REMARK    1  A    between atoms: N_4  and  C_1 
REMARK    2  A    between atoms: C_10  and  C_3 
REMARK       I    between atoms: C_7  and  N_4 
REMARK    3  A    between atoms: C_8  and  C_7 
REMARK    4  A    between atoms: C_9  and  C_8 
REMARK    5  A    between atoms: C_12  and  C_9 
ROOT
ATOM      1  C   UNL d   1     -48.161  12.681  22.715  0.00  0.00     0.197 A 
ATOM      2  N   UNL d   1     -48.502  13.277  23.165  0.00  0.00    -0.221 NA
ATOM      3  C   UNL d   1     -49.023  13.694  22.697  0.00  0.00     0.090 A 
ATOM      4  S   UNL d   1     -48.466  12.721  21.963  0.00  0.00    -0.046 SA
ATOM      5  C   UNL d   1     -49.001  13.348  21.947  0.00  0.00     0.058 A 
ENDROOT
BRANCH   1   6
ATOM      6  N   UNL d   1     -47.593  12.126  22.993  0.00  0.00    -0.183 NA
ATOM      7  C   UNL d   1     -46.794  12.326  22.986  0.00  0.00     0.281 C 
ATOM      8  O   UNL d   1     -46.549  13.045  22.716  0.00  0.00    -0.265 OA
BRANCH   7   9
ATOM      9  C   UNL d   1     -46.231  11.784  23.258  0.00  0.00     0.063 C 
BRANCH   9  10
ATOM     10  C   UNL d   1     -45.448  11.841  23.018  0.00  0.00     0.005 C 
BRANCH  10  11
ATOM     11  C   UNL d   1     -44.914  11.233  23.181  0.00  0.00     0.000 A 
ATOM     12  C   UNL d   1     -44.135  11.330  22.992  0.00  0.00     0.000 A 
ATOM     13  C   UNL d   1     -43.611  10.744  23.147  0.00  0.00     0.000 A 
ATOM     14  C   UNL d   1     -43.860  10.026  23.506  0.00  0.00     0.000 A 
ATOM     15  C   UNL d   1     -44.646   9.924  23.698  0.00  0.00     0.000 A 
ATOM     16  C   UNL d   1     -45.181  10.533  23.535  0.00  0.00     0.000 A 
ENDBRANCH  10  11
ENDBRANCH   9  10
ENDBRANCH   7   9
ENDBRANCH   1   6
BRANCH   3  17
ATOM     17  C   UNL d   1     -49.466  14.337  22.974  0.00  0.00     0.018 A 
ATOM     18  C   UNL d   1     -50.143  14.211  23.390  0.00  0.00     0.002 A 
ATOM     19  C   UNL d   1     -50.574  14.866  23.660  0.00  0.00     0.000 A 
ATOM     20  C   UNL d   1     -50.317  15.627  23.507  0.00  0.00     0.000 A 
ATOM     21  C   UNL d   1     -49.623  15.749  23.081  0.00  0.00     0.000 A 
ATOM     22  C   UNL d   1     -49.204  15.113  22.818  0.00  0.00     0.002 A 
ENDBRANCH   3  17
TORSDOF 5
ENDMDL
MODEL 3
REMARK VINA RESULT:      -5.3      8.514      9.857
REMARK  5 active torsions:
REMARK  status: ('A' for Active; 'I' for Inactive)
REMARK    1  A    between atoms: N_4  and  C_1 
REMARK    2  A    between atoms: C_10  and  C_3 
REMARK       I    between atoms: C_7  and  N_4 
REMARK    3  A    between atoms: C_8  and  C_7 
REMARK    4  A    between atoms: C_9  and  C_8 
REMARK    5  A    between atoms: C_12  and  C_9 
ROOT
ATOM      1  C   UNL d   1     -39.753  14.267  18.599  0.00  0.00     0.197 A 
ATOM      2  N   UNL d   1     -39.138  14.161  18.065  0.00  0.00    -0.221 NA
ATOM      3  C   UNL d   1     -39.377  14.429  17.333  0.00  0.00     0.090 A 
ATOM      4  S   UNL d   1     -40.380  14.601  18.206  0.00  0.00    -0.046 SA
ATOM      5  C   UNL d   1     -40.152  14.703  17.420  0.00  0.00     0.058 A 
ENDROOT
BRANCH   1   6
ATOM      6  N   UNL d   1     -39.729  14.061  19.415  0.00  0.00    -0.183 NA
ATOM      7  C   UNL d   1     -39.501  14.626  19.969  0.00  0.00     0.281 C 
ATOM      8  O   UNL d   1     -39.302  15.373  19.741  0.00  0.00    -0.265 OA
BRANCH   7   9
ATOM      9  C   UNL d   1     -39.476  14.429  20.772  0.00  0.00     0.063 C 
BRANCH   9  10
ATOM     10  C   UNL d   1     -38.766  14.449  21.184  0.00  0.00     0.005 C 
BRANCH  10  11
ATOM     11  C   UNL d   1     -38.731  14.205  21.972  0.00  0.00     0.000 A 
ATOM     12  C   UNL d   1     -38.534  13.440  22.140  0.00  0.00     0.000 A 
ATOM     13  C   UNL d   1     -38.498  13.196  22.902  0.00  0.00     0.000 A 
ATOM     14  C   UNL d   1     -38.663  13.726  23.533  0.00  0.00     0.000 A 
ATOM     15  C   UNL d   1     -38.863  14.499  23.367  0.00  0.00     0.000 A 
ATOM     16  C   UNL d   1     -38.897  14.743  22.578  0.00  0.00     0.000 A 
ENDBRANCH  10  11
ENDBRANCH   9  10
ENDBRANCH   7   9
ENDBRANCH   1   6
BRANCH   3  17
ATOM     17  C   UNL d   1     -38.893  14.406  16.661  0.00  0.00     0.018 A 
ATOM     18  C   UNL d   1     -38.606  13.704  16.395  0.00  0.00     0.002 A 
ATOM     19  C   UNL d   1     -38.123  13.699  15.721  0.00  0.00     0.000 A 
ATOM     20  C   UNL d   1     -37.940  14.395  15.333  0.00  0.00     0.000 A 
ATOM     21  C   UNL d   1     -38.237  15.111  15.611  0.00  0.00     0.000 A 
ATOM     22  C   UNL d   1     -38.707  15.116  16.266  0.00  0.00     0.002 A 
ENDBRANCH   3  17
TORSDOF 5
ENDMDL
MODEL 4
REMARK VINA RESULT:      -5.2      8.020      9.750
REMARK  5 active torsions:
REMARK  status: ('A' for Active; 'I' for Inactive)
REMARK    1  A    between atoms: N_4  and  C_1 
REMARK    2  A    between atoms: C_10  and  C_3 
REMARK       I    between atoms: C_7  and  N_4 
REMARK    3  A    between atoms: C_8  and  C_7 
REMARK    4  A    between atoms: C_9  and  C_8 
REMARK    5  A    between atoms: C_12  and  C_9 
ROOT
ATOM      1  C   UNL d   1     -39.576  15.325  20.112  0.00  0.00     0.197 A 
ATOM      2  N   UNL d   1     -39.085  15.134  20.742  0.00  0.00    -0.221 NA
ATOM      3  C   UNL d   1     -39.500  15.231  21.437  0.00  0.00     0.090 A 
ATOM      4  S   UNL d   1     -40.300  15.543  20.408  0.00  0.00    -0.046 SA
ATOM      5  C   UNL d   1     -40.259  15.486  21.229  0.00  0.00     0.058 A 
ENDROOT
BRANCH   1   6
ATOM      6  N   UNL d   1     -39.357  15.298  19.300  0.00  0.00    -0.183 NA
ATOM      7  C   UNL d   1     -39.683  14.721  18.811  0.00  0.00     0.281 C 
ATOM      8  O   UNL d   1     -40.209  14.182  19.100  0.00  0.00    -0.265 OA
BRANCH   7   9
ATOM      9  C   UNL d   1     -39.472  14.690  18.012  0.00  0.00     0.063 C 
BRANCH   9  10
ATOM     10  C   UNL d   1     -39.374  13.967  17.635  0.00  0.00     0.005 C 
BRANCH  10  11
ATOM     11  C   UNL d   1     -38.925  13.911  16.944  0.00  0.00     0.000 A 
ATOM     12  C   UNL d   1     -39.016  14.470  16.369  0.00  0.00     0.000 A 
ATOM     13  C   UNL d   1     -38.584  14.424  15.695  0.00  0.00     0.000 A 
ATOM     14  C   UNL d   1     -38.034  13.798  15.579  0.00  0.00     0.000 A 
ATOM     15  C   UNL d   1     -37.940  13.233  16.158  0.00  0.00     0.000 A 
ATOM     16  C   UNL d   1     -38.389  13.288  16.850  0.00  0.00     0.000 A 
ENDBRANCH  10  11
ENDBRANCH   9  10
ENDBRANCH   7   9
ENDBRANCH   1   6
BRANCH   3  17
ATOM     17  C   UNL d   1     -39.174  15.086  22.184  0.00  0.00     0.018 A 
ATOM     18  C   UNL d   1     -38.917  15.698  22.638  0.00  0.00     0.002 A 
ATOM     19  C   UNL d   1     -38.593  15.536  23.383  0.00  0.00     0.000 A 
ATOM     20  C   UNL d   1     -38.533  14.766  23.654  0.00  0.00     0.000 A 
ATOM     21  C   UNL d   1     -38.798  14.144  23.184  0.00  0.00     0.000 A 
ATOM     22  C   UNL d   1     -39.113  14.301  22.460  0.00  0.00     0.002 A 
ENDBRANCH   3  17
TORSDOF 5
ENDMDL
MODEL 5
REMARK VINA RESULT:      -4.6      8.531      9.811
REMARK  5 active torsions:
REMARK  status: ('A' for Active; 'I' for Inactive)
REMARK    1  A    between atoms: N_4  and  C_1 
REMARK    2  A    between atoms: C_10  and  C_3 
REMARK       I    between atoms: C_7  and  N_4 
REMARK    3  A    between atoms: C_8  and  C_7 
REMARK    4  A    between atoms: C_9  and  C_8 
REMARK    5  A    between atoms: C_12  and  C_9 
ROOT
ATOM      1  C   UNL d   1     -38.784  14.978  18.887  0.00  0.00     0.197 A 
ATOM      2  N   UNL d   1     -39.548  15.037  18.590  0.00  0.00    -0.221 NA
ATOM      3  C   UNL d   1     -39.524  15.442  17.883  0.00  0.00     0.090 A 
ATOM      4  S   UNL d   1     -38.278  15.345  18.369  0.00  0.00    -0.046 SA
ATOM      5  C   UNL d   1     -38.732  15.635  17.744  0.00  0.00     0.058 A 
ENDROOT
BRANCH   1   6
ATOM      6  N   UNL d   1     -38.571  14.599  19.608  0.00  0.00    -0.183 NA
ATOM      7  C   UNL d   1     -38.557  15.035  20.307  0.00  0.00     0.281 C 
ATOM      8  O   UNL d   1     -38.745  15.819  20.309  0.00  0.00    -0.265 OA
BRANCH   7   9
ATOM      9  C   UNL d   1     -38.348  14.668  21.017  0.00  0.00     0.063 C 
BRANCH   9  10
ATOM     10  C   UNL d   1     -38.913  14.527  21.596  0.00  0.00     0.005 C 
BRANCH  10  11
ATOM     11  C   UNL d   1     -38.707  14.150  22.301  0.00  0.00     0.000 A 
ATOM     12  C   UNL d   1     -38.713  14.571  22.990  0.00  0.00     0.000 A 
ATOM     13  C   UNL d   1     -38.514  14.212  23.678  0.00  0.00     0.000 A 
ATOM     14  C   UNL d   1     -38.299  13.399  23.694  0.00  0.00     0.000 A 
ATOM     15  C   UNL d   1     -38.293  12.971  23.000  0.00  0.00     0.000 A 
ATOM     16  C   UNL d   1     -38.499  13.349  22.294  0.00  0.00     0.000 A 
ENDBRANCH  10  11
ENDBRANCH   9  10
ENDBRANCH   7   9
ENDBRANCH   1   6
BRANCH   3  17
ATOM     17  C   UNL d   1     -40.198  15.603  17.430  0.00  0.00     0.018 A 
ATOM     18  C   UNL d   1     -40.145  15.645  16.629  0.00  0.00     0.002 A 
ATOM     19  C   UNL d   1     -40.830  15.807  16.190  0.00  0.00     0.000 A 
ATOM     20  C   UNL d   1     -41.548  15.922  16.565  0.00  0.00     0.000 A 
ATOM     21  C   UNL d   1     -41.595  15.878  17.385  0.00  0.00     0.000 A 
ATOM     22  C   UNL d   1     -40.930  15.721  17.812  0.00  0.00     0.002 A 
ENDBRANCH   3  17
TORSDOF 5
ENDMDL
MODEL 6
REMARK VINA RESULT:      -4.5      3.222      6.051
REMARK  5 active torsions:
REMARK  status: ('A' for Active; 'I' for Inactive)
REMARK    1  A    between atoms: N_4  and  C_1 
REMARK    2  A    between atoms: C_10  and  C_3 
REMARK       I    between atoms: C_7  and  N_4 
REMARK    3  A    between atoms: C_8  and  C_7 
REMARK    4  A    between atoms: C_9  and  C_8 
REMARK    5  A    between atoms: C_12  and  C_9 
ROOT
ATOM      1  C   UNL d   1     -44.502  13.054  21.882  0.00  0.00     0.197 A 
ATOM      2  N   UNL d   1     -45.226  13.412  22.031  0.00  0.00    -0.221 NA
ATOM      3  C   UNL d   1     -45.669  12.918  22.507  0.00  0.00     0.090 A 
ATOM      4  S   UNL d   1     -44.487  12.337  22.262  0.00  0.00    -0.046 SA
ATOM      5  C   UNL d   1     -45.208  12.248  22.651  0.00  0.00     0.058 A 
ENDROOT
BRANCH   1   6
ATOM      6  N   UNL d   1     -43.885  13.383  21.413  0.00  0.00    -0.183 NA
ATOM      7  C   UNL d   1     -43.146  13.020  21.403  0.00  0.00     0.281 C 
ATOM      8  O   UNL d   1     -43.006  12.354  21.835  0.00  0.00    -0.265 OA
BRANCH   7   9
ATOM      9  C   UNL d   1     -42.537  13.339  20.944  0.00  0.00     0.063 C 
BRANCH   9  10
ATOM     10  C   UNL d   1     -41.881  13.681  21.301  0.00  0.00     0.005 C 
BRANCH  10  11
ATOM     11  C   UNL d   1     -41.373  14.168  20.868  0.00  0.00     0.000 A 
ATOM     12  C   UNL d   1     -41.284  14.939  21.089  0.00  0.00     0.000 A 
ATOM     13  C   UNL d   1     -40.793  15.418  20.674  0.00  0.00     0.000 A 
ATOM     14  C   UNL d   1     -40.368  15.128  20.009  0.00  0.00     0.000 A 
ATOM     15  C   UNL d   1     -40.456  14.349  19.784  0.00  0.00     0.000 A 
ATOM     16  C   UNL d   1     -40.964  13.862  20.217  0.00  0.00     0.000 A 
ENDBRANCH  10  11
ENDBRANCH   9  10
ENDBRANCH   7   9
ENDBRANCH   1   6
BRANCH   3  17
ATOM     17  C   UNL d   1     -46.433  13.105  22.766  0.00  0.00     0.018 A 
ATOM     18  C   UNL d   1     -46.696  13.864  22.733  0.00  0.00     0.002 A 
ATOM     19  C   UNL d   1     -47.463  14.034  22.997  0.00  0.00     0.000 A 
ATOM     20  C   UNL d   1     -47.946  13.441  23.287  0.00  0.00     0.000 A 
ATOM     21  C   UNL d   1     -47.671  12.666  23.319  0.00  0.00     0.000 A 
ATOM     22  C   UNL d   1     -46.925  12.501  23.062  0.00  0.00     0.002 A 
ENDBRANCH   3  17
TORSDOF 5
ENDMDL
