MODEL 1
REMARK VINA RESULT:      40.6      0.000      0.000
REMARK  3 active torsions:
REMARK  status: ('A' for Active; 'I' for Inactive)
REMARK    1  A    between atoms: C_6  and  N_2 
REMARK    2  A    between atoms: C_7  and  C_6 
REMARK    3  A    between atoms: C_8  and  C_7 
ROOT
ATOM      1  N   UNL d   1     -48.612  25.509  33.492  0.00  0.00    -0.224 NA
ATOM      2  N   UNL d   1     -49.902  25.223  33.394  0.00  0.00    -0.287 N 
ATOM      3  C   UNL d   1     -49.162  24.935  33.447  0.00  0.00     0.183 A 
ATOM      4  C   UNL d   1     -49.831  26.060  33.405  0.00  0.00     0.083 A 
ATOM      5  C   UNL d   1     -49.057  26.232  33.464  0.00  0.00     0.099 A 
ATOM      6  C   UNL d   1     -50.367  26.678  33.369  0.00  0.00     0.019 A 
ATOM      7  C   UNL d   1     -48.748  27.037  33.493  0.00  0.00     0.021 A 
ATOM      8  C   UNL d   1     -50.141  27.462  33.392  0.00  0.00     0.002 A 
ATOM      9  C   UNL d   1     -49.367  27.634  33.451  0.00  0.00     0.002 A 
ENDROOT
BRANCH   2  10
ATOM     10  C   UNL d   1     -50.630  24.810  33.336  0.00  0.00     0.082 C 
BRANCH  10  11
ATOM     11  C   UNL d   1     -50.843  24.304  33.922  0.00  0.00     0.019 C 
BRANCH  11  12
ATOM     12  C   UNL d   1     -51.626  24.008  33.938  0.00  0.00     0.002 A 
ATOM     13  C   UNL d   1     -51.875  23.491  33.324  0.00  0.00     0.000 A 
ATOM     14  C   UNL d   1     -52.660  23.194  33.338  0.00  0.00     0.000 A 
ATOM     15  C   UNL d   1     -53.160  23.417  33.950  0.00  0.00     0.000 A 
ATOM     16  C   UNL d   1     -52.907  23.934  34.562  0.00  0.00     0.000 A 
ATOM     17  C   UNL d   1     -52.145  24.219  34.543  0.00  0.00     0.000 A 
ENDBRANCH  11  12
ENDBRANCH  10  11
ENDBRANCH   2  10
TORSDOF 3
ENDMDL
MODEL 2
REMARK VINA RESULT:      40.6      1.186      4.179
REMARK  3 active torsions:
REMARK  status: ('A' for Active; 'I' for Inactive)
REMARK    1  A    between atoms: C_6  and  N_2 
REMARK    2  A    between atoms: C_7  and  C_6 
REMARK    3  A    between atoms: C_8  and  C_7 
ROOT
ATOM      1  N   UNL d   1     -52.267  25.817  33.321  0.00  0.00    -0.224 NA
ATOM      2  N   UNL d   1     -50.985  26.150  33.338  0.00  0.00    -0.287 N 
ATOM      3  C   UNL d   1     -51.738  26.411  33.330  0.00  0.00     0.183 A 
ATOM      4  C   UNL d   1     -51.026  25.311  33.334  0.00  0.00     0.083 A 
ATOM      5  C   UNL d   1     -51.796  25.111  33.323  0.00  0.00     0.099 A 
ATOM      6  C   UNL d   1     -50.467  24.713  33.338  0.00  0.00     0.019 A 
ATOM      7  C   UNL d   1     -52.076  24.296  33.316  0.00  0.00     0.021 A 
ATOM      8  C   UNL d   1     -50.665  23.921  33.332  0.00  0.00     0.002 A 
ATOM      9  C   UNL d   1     -51.435  23.721  33.321  0.00  0.00     0.002 A 
ENDROOT
BRANCH   2  10
ATOM     10  C   UNL d   1     -50.271  26.590  33.350  0.00  0.00     0.082 C 
BRANCH  10  11
ATOM     11  C   UNL d   1     -50.300  27.388  33.434  0.00  0.00     0.019 C 
BRANCH  11  12
ATOM     12  C   UNL d   1     -49.711  27.769  33.890  0.00  0.00     0.002 A 
ATOM     13  C   UNL d   1     -49.248  27.308  34.418  0.00  0.00     0.000 A 
ATOM     14  C   UNL d   1     -48.656  27.689  34.876  0.00  0.00     0.000 A 
ATOM     15  C   UNL d   1     -48.548  28.498  34.794  0.00  0.00     0.000 A 
ATOM     16  C   UNL d   1     -49.013  28.956  34.264  0.00  0.00     0.000 A 
ATOM     17  C   UNL d   1     -49.585  28.581  33.823  0.00  0.00     0.000 A 
ENDBRANCH  11  12
ENDBRANCH  10  11
ENDBRANCH   2  10
TORSDOF 3
ENDMDL
MODEL 3
REMARK VINA RESULT:      43.5      5.540      7.189
REMARK  3 active torsions:
REMARK  status: ('A' for Active; 'I' for Inactive)
REMARK    1  A    between atoms: C_6  and  N_2 
REMARK    2  A    between atoms: C_7  and  C_6 
REMARK    3  A    between atoms: C_8  and  C_7 
ROOT
ATOM      1  N   UNL d   1     -46.635  32.829  33.902  0.00  0.00    -0.224 NA
ATOM      2  N   UNL d   1     -47.389  31.959  34.557  0.00  0.00    -0.287 N 
ATOM      3  C   UNL d   1     -46.649  32.188  34.374  0.00  0.00     0.183 A 
ATOM      4  C   UNL d   1     -47.906  32.497  34.169  0.00  0.00     0.083 A 
ATOM      5  C   UNL d   1     -47.453  33.019  33.777  0.00  0.00     0.099 A 
ATOM      6  C   UNL d   1     -48.719  32.575  34.127  0.00  0.00     0.019 A 
ATOM      7  C   UNL d   1     -47.773  33.667  33.306  0.00  0.00     0.021 A 
ATOM      8  C   UNL d   1     -49.086  33.166  33.698  0.00  0.00     0.002 A 
ATOM      9  C   UNL d   1     -48.633  33.688  33.306  0.00  0.00     0.002 A 
ENDROOT
BRANCH   2  10
ATOM     10  C   UNL d   1     -47.644  31.317  35.033  0.00  0.00     0.082 C 
BRANCH  10  11
ATOM     11  C   UNL d   1     -47.146  30.701  35.163  0.00  0.00     0.019 C 
BRANCH  11  12
ATOM     12  C   UNL d   1     -47.431  30.028  35.571  0.00  0.00     0.002 A 
ATOM     13  C   UNL d   1     -47.819  29.425  35.134  0.00  0.00     0.000 A 
ATOM     14  C   UNL d   1     -48.106  28.749  35.543  0.00  0.00     0.000 A 
ATOM     15  C   UNL d   1     -47.999  28.699  36.354  0.00  0.00     0.000 A 
ATOM     16  C   UNL d   1     -47.610  29.305  36.788  0.00  0.00     0.000 A 
ATOM     17  C   UNL d   1     -47.334  29.957  36.387  0.00  0.00     0.000 A 
ENDBRANCH  11  12
ENDBRANCH  10  11
ENDBRANCH   2  10
TORSDOF 3
ENDMDL
