MODEL 1
REMARK VINA RESULT:      10.0      0.000      0.000
REMARK  2 active torsions:
REMARK  status: ('A' for Active; 'I' for Inactive)
REMARK    1  A    between atoms: C_2  and  S_1 
REMARK    2  A    between atoms: N_4  and  S_1 
ROOT
ATOM      1  S   UNL d   1      45.427 -14.152  44.316  0.00  0.00     0.275 S 
ATOM      2  O   UNL d   1      44.686 -14.055  44.656  0.00  0.00    -0.199 OA
ATOM      3  O   UNL d   1      46.168 -14.254  43.977  0.00  0.00    -0.199 OA
ENDROOT
BRANCH   1   4
ATOM      4  C   UNL d   1      45.446 -13.364  44.090  0.00  0.00     0.143 A 
ATOM      5  C   UNL d   1      44.953 -13.018  43.525  0.00  0.00     0.117 A 
ATOM      6  N   UNL d   1      45.158 -12.221  43.470  0.00  0.00    -0.147 NA
ATOM      7  C   UNL d   1      44.362 -13.396  43.090  0.00  0.00     0.023 C 
ATOM      8  N   UNL d   1      45.775 -12.080  44.001  0.00  0.00    -0.147 NA
ATOM      9  C   UNL d   1      45.946 -12.787  44.379  0.00  0.00     0.117 A 
ATOM     10  C   UNL d   1      46.527 -12.896  44.954  0.00  0.00     0.023 C 
ENDBRANCH   1   4
BRANCH   1  11
ATOM     11  N   UNL d   1      45.441 -14.952  44.529  0.00  0.00    -0.225 N 
ATOM     12  C   UNL d   1      46.167 -15.362  44.561  0.00  0.00     0.118 A 
ATOM     13  C   UNL d   1      46.179 -16.162  44.774  0.00  0.00     0.142 A 
ATOM     14  O   UNL d   1      45.478 -16.554  44.954  0.00  0.00    -0.300 OA
ATOM     15  C   UNL d   1      44.759 -16.150  44.923  0.00  0.00     0.142 A 
ATOM     16  C   UNL d   1      44.738 -15.348  44.710  0.00  0.00     0.118 A 
ENDBRANCH   1  11
TORSDOF 2
ENDMDL
