MODEL 1
REMARK VINA RESULT:      46.1      0.000      0.000
REMARK  4 active torsions:
REMARK  status: ('A' for Active; 'I' for Inactive)
REMARK    1  A    between atoms: C_7  and  C_2 
REMARK    2  A    between atoms: C_6  and  C_3 
REMARK    3  A    between atoms: C_9  and  C_6 
REMARK    4  A    between atoms: O_15  and  C_10 
ROOT
ATOM      1  N   UNL d   1     -51.850  26.450  33.338  0.00  0.00    -0.201 NA
ATOM      2  C   UNL d   1     -51.327  25.816  33.333  0.00  0.00     0.114 A 
ATOM      3  C   UNL d   1     -50.632  26.947  33.318  0.00  0.00     0.089 A 
ATOM      4  C   UNL d   1     -51.432  27.145  33.329  0.00  0.00     0.286 A 
ATOM      5  S   UNL d   1     -50.555  26.134  33.320  0.00  0.00    -0.063 SA
ATOM      6  O   UNL d   1     -51.754  27.905  33.331  0.00  0.00    -0.265 OA
ENDROOT
BRANCH   3   7
ATOM      7  C   UNL d   1     -49.998  27.470  33.306  0.00  0.00     0.011 C 
BRANCH   7   8
ATOM      8  C   UNL d   1     -49.595  27.694  33.993  0.00  0.00     0.001 A 
ATOM      9  C   UNL d   1     -49.748  27.364  34.713  0.00  0.00     0.002 A 
ATOM     10  C   UNL d   1     -49.333  27.606  35.372  0.00  0.00     0.024 A 
ATOM     11  C   UNL d   1     -48.769  28.169  35.334  0.00  0.00     0.094 A 
ATOM     12  C   UNL d   1     -48.600  28.516  34.601  0.00  0.00     0.024 A 
ATOM     13  C   UNL d   1     -49.008  28.285  33.925  0.00  0.00     0.002 A 
BRANCH  11  14
ATOM     14  O   UNL d   1     -48.353  28.408  36.010  0.00  0.00    -0.328 OA
ATOM     15  C   UNL d   1     -47.851  29.052  35.981  0.00  0.00     0.181 C 
ENDBRANCH  11  14
ENDBRANCH   7   8
ENDBRANCH   3   7
BRANCH   2  16
ATOM     16  C   UNL d   1     -51.525  25.015  33.339  0.00  0.00     0.024 A 
ATOM     17  C   UNL d   1     -52.316  24.796  33.363  0.00  0.00     0.002 A 
ATOM     18  C   UNL d   1     -52.514  23.995  33.369  0.00  0.00     0.000 A 
ATOM     19  C   UNL d   1     -51.920  23.422  33.351  0.00  0.00     0.000 A 
ATOM     20  C   UNL d   1     -51.127  23.651  33.327  0.00  0.00     0.000 A 
ATOM     21  C   UNL d   1     -50.928  24.452  33.321  0.00  0.00     0.002 A 
ENDBRANCH   2  16
TORSDOF 4
ENDMDL
