MODEL 1
REMARK VINA RESULT:      -6.0      0.000      0.000
REMARK  1 active torsions:
REMARK  status: ('A' for Active; 'I' for Inactive)
REMARK    1  A    between atoms: C_5  and  C_1 
ROOT
ATOM      1  C   UNL d   1      57.378  -0.066  31.135  0.00  0.00     0.164 A 
ATOM      2  O   UNL d   1      57.095  -0.866  31.405  0.00  0.00    -0.301 OA
ATOM      3  C   UNL d   1      57.016   0.481  31.610  0.00  0.00     0.033 A 
ATOM      4  C   UNL d   1      56.535   0.116  32.151  0.00  0.00     0.025 A 
ATOM      5  C   UNL d   1      56.583  -0.712  32.025  0.00  0.00     0.100 A 
ATOM      6  C   UNL d   1      56.051   0.422  32.750  0.00  0.00     0.009 A 
ATOM      7  C   UNL d   1      56.146  -1.219  32.501  0.00  0.00     0.025 A 
ATOM      8  C   UNL d   1      55.616  -0.100  33.222  0.00  0.00     0.035 A 
ATOM      9  C   UNL d   1      55.664  -0.928  33.096  0.00  0.00     0.009 A 
ATOM     10 BR   UNL d   1      55.131   0.206  33.823  0.00  0.00    -0.049 Br
ENDROOT
BRANCH   1  11
ATOM     11  C   UNL d   1      57.902   0.135  30.531  0.00  0.00     0.235 C 
ATOM     12  O   UNL d   1      58.647   0.458  30.699  0.00  0.00    -0.642 OA
ATOM     13  O   UNL d   1      57.712   0.026  29.728  0.00  0.00    -0.642 OA
ENDBRANCH   1  11
TORSDOF 1
ENDMDL
MODEL 2
REMARK VINA RESULT:      -5.0      0.763      1.271
REMARK  1 active torsions:
REMARK  status: ('A' for Active; 'I' for Inactive)
REMARK    1  A    between atoms: C_5  and  C_1 
ROOT
ATOM      1  C   UNL d   1      57.613   0.059  30.827  0.00  0.00     0.164 A 
ATOM      2  O   UNL d   1      57.200   0.682  31.311  0.00  0.00    -0.301 OA
ATOM      3  C   UNL d   1      57.385  -0.658  31.127  0.00  0.00     0.033 A 
ATOM      4  C   UNL d   1      56.873  -0.558  31.748  0.00  0.00     0.025 A 
ATOM      5  C   UNL d   1      56.759   0.265  31.861  0.00  0.00     0.100 A 
ATOM      6  C   UNL d   1      56.487  -1.107  32.235  0.00  0.00     0.009 A 
ATOM      7  C   UNL d   1      56.261   0.525  32.460  0.00  0.00     0.025 A 
ATOM      8  C   UNL d   1      55.988  -0.830  32.835  0.00  0.00     0.035 A 
ATOM      9  C   UNL d   1      55.874  -0.007  32.948  0.00  0.00     0.009 A 
ATOM     10 BR   UNL d   1      55.601  -1.379  33.324  0.00  0.00    -0.049 Br
ENDROOT
BRANCH   1  11
ATOM     11  C   UNL d   1      58.133   0.139  30.192  0.00  0.00     0.235 C 
ATOM     12  O   UNL d   1      57.854   0.164  29.411  0.00  0.00    -0.642 OA
ATOM     13  O   UNL d   1      58.956   0.197  30.299  0.00  0.00    -0.642 OA
ENDBRANCH   1  11
TORSDOF 1
ENDMDL
MODEL 3
REMARK VINA RESULT:      -4.3      1.984      3.165
REMARK  1 active torsions:
REMARK  status: ('A' for Active; 'I' for Inactive)
REMARK    1  A    between atoms: C_5  and  C_1 
ROOT
ATOM      1  C   UNL d   1      56.407  -0.665  32.580  0.00  0.00     0.164 A 
ATOM      2  O   UNL d   1      56.927   0.040  32.742  0.00  0.00    -0.301 OA
ATOM      3  C   UNL d   1      56.589  -0.923  31.835  0.00  0.00     0.033 A 
ATOM      4  C   UNL d   1      57.168  -0.460  31.506  0.00  0.00     0.025 A 
ATOM      5  C   UNL d   1      57.376   0.132  32.063  0.00  0.00     0.100 A 
ATOM      6  C   UNL d   1      57.543  -0.490  30.767  0.00  0.00     0.009 A 
ATOM      7  C   UNL d   1      57.955   0.682  31.872  0.00  0.00     0.025 A 
ATOM      8  C   UNL d   1      58.124   0.070  30.587  0.00  0.00     0.035 A 
ATOM      9  C   UNL d   1      58.332   0.662  31.145  0.00  0.00     0.009 A 
ATOM     10 BR   UNL d   1      58.500   0.040  29.847  0.00  0.00    -0.049 Br
ENDROOT
BRANCH   1  11
ATOM     11  C   UNL d   1      55.838  -1.024  33.056  0.00  0.00     0.235 C 
ATOM     12  O   UNL d   1      55.204  -0.590  33.368  0.00  0.00    -0.642 OA
ATOM     13  O   UNL d   1      55.870  -1.834  33.248  0.00  0.00    -0.642 OA
ENDBRANCH   1  11
TORSDOF 1
ENDMDL
MODEL 4
REMARK VINA RESULT:      -4.1      8.604      9.345
REMARK  1 active torsions:
REMARK  status: ('A' for Active; 'I' for Inactive)
REMARK    1  A    between atoms: C_5  and  C_1 
ROOT
ATOM      1  C   UNL d   1      60.340  -6.632  35.957  0.00  0.00     0.164 A 
ATOM      2  O   UNL d   1      60.913  -7.276  35.732  0.00  0.00    -0.301 OA
ATOM      3  C   UNL d   1      59.654  -6.999  36.180  0.00  0.00     0.033 A 
ATOM      4  C   UNL d   1      59.728  -7.804  36.122  0.00  0.00     0.025 A 
ATOM      5  C   UNL d   1      60.502  -7.974  35.847  0.00  0.00     0.100 A 
ATOM      6  C   UNL d   1      59.195  -8.419  36.282  0.00  0.00     0.009 A 
ATOM      7  C   UNL d   1      60.729  -8.756  35.737  0.00  0.00     0.025 A 
ATOM      8  C   UNL d   1      59.437  -9.202  36.167  0.00  0.00     0.035 A 
ATOM      9  C   UNL d   1      60.211  -9.372  35.892  0.00  0.00     0.009 A 
ATOM     10 BR   UNL d   1      58.904  -9.818  36.328  0.00  0.00    -0.049 Br
ENDROOT
BRANCH   1  11
ATOM     11  C   UNL d   1      60.436  -5.813  35.956  0.00  0.00     0.235 C 
ATOM     12  O   UNL d   1      59.887  -5.318  35.581  0.00  0.00    -0.642 OA
ATOM     13  O   UNL d   1      61.082  -5.444  36.329  0.00  0.00    -0.642 OA
ENDBRANCH   1  11
TORSDOF 1
ENDMDL
MODEL 5
REMARK VINA RESULT:      -3.7      0.851      1.109
REMARK  1 active torsions:
REMARK  status: ('A' for Active; 'I' for Inactive)
REMARK    1  A    between atoms: C_5  and  C_1 
ROOT
ATOM      1  C   UNL d   1      57.160  -0.052  31.771  0.00  0.00     0.164 A 
ATOM      2  O   UNL d   1      57.451  -0.122  32.610  0.00  0.00    -0.301 OA
ATOM      3  C   UNL d   1      56.381   0.164  31.812  0.00  0.00     0.033 A 
ATOM      4  C   UNL d   1      56.146   0.239  32.584  0.00  0.00     0.025 A 
ATOM      5  C   UNL d   1      56.803   0.063  33.075  0.00  0.00     0.100 A 
ATOM      6  C   UNL d   1      55.415   0.445  32.919  0.00  0.00     0.009 A 
ATOM      7  C   UNL d   1      56.719   0.097  33.891  0.00  0.00     0.025 A 
ATOM      8  C   UNL d   1      55.345   0.475  33.743  0.00  0.00     0.035 A 
ATOM      9  C   UNL d   1      56.002   0.299  34.233  0.00  0.00     0.009 A 
ATOM     10 BR   UNL d   1      54.613   0.682  34.079  0.00  0.00    -0.049 Br
ENDROOT
BRANCH   1  11
ATOM     11  C   UNL d   1      57.560  -0.172  31.059  0.00  0.00     0.235 C 
ATOM     12  O   UNL d   1      58.190   0.317  30.835  0.00  0.00    -0.642 OA
ATOM     13  O   UNL d   1      57.352  -0.784  30.534  0.00  0.00    -0.642 OA
ENDBRANCH   1  11
TORSDOF 1
ENDMDL
MODEL 6
REMARK VINA RESULT:      -3.1      9.651     10.093
REMARK  1 active torsions:
REMARK  status: ('A' for Active; 'I' for Inactive)
REMARK    1  A    between atoms: C_5  and  C_1 
ROOT
ATOM      1  C   UNL d   1      59.606  -8.656  34.992  0.00  0.00     0.164 A 
ATOM      2  O   UNL d   1      59.006  -9.050  34.463  0.00  0.00    -0.301 OA
ATOM      3  C   UNL d   1      60.313  -8.678  34.598  0.00  0.00     0.033 A 
ATOM      4  C   UNL d   1      60.229  -9.042  33.879  0.00  0.00     0.025 A 
ATOM      5  C   UNL d   1      59.426  -9.271  33.796  0.00  0.00     0.100 A 
ATOM      6  C   UNL d   1      60.775  -9.202  33.276  0.00  0.00     0.009 A 
ATOM      7  C   UNL d   1      59.184  -9.655  33.111  0.00  0.00     0.025 A 
ATOM      8  C   UNL d   1      60.517  -9.589  32.592  0.00  0.00     0.035 A 
ATOM      9  C   UNL d   1      59.715  -9.818  32.509  0.00  0.00     0.009 A 
ATOM     10 BR   UNL d   1      61.065  -9.750  31.987  0.00  0.00    -0.049 Br
ENDROOT
BRANCH   1  11
ATOM     11  C   UNL d   1      59.514  -8.320  35.739  0.00  0.00     0.235 C 
ATOM     12  O   UNL d   1      59.032  -8.676  36.313  0.00  0.00    -0.642 OA
ATOM     13  O   UNL d   1      59.897  -7.613  35.955  0.00  0.00    -0.642 OA
ENDBRANCH   1  11
TORSDOF 1
ENDMDL
