MODEL 1
REMARK VINA RESULT:      -7.5      0.000      0.000
REMARK  2 active torsions:
REMARK  status: ('A' for Active; 'I' for Inactive)
REMARK    1  A    between atoms: C_6  and  C_1 
REMARK    2  A    between atoms: C_7  and  C_5 
ROOT
ATOM      1  C   UNL d   1     -47.076  11.963  23.457  0.00  0.00     0.169 A 
ATOM      2  C   UNL d   1     -47.598  12.455  23.020  0.00  0.00     0.048 A 
ATOM      3  N   UNL d   1     -48.293  11.373  23.420  0.00  0.00    -0.148 NA
ATOM      4  N   UNL d   1     -47.505  11.308  23.697  0.00  0.00    -0.142 NA
ATOM      5  C   UNL d   1     -48.336  12.096  22.997  0.00  0.00     0.105 A 
ENDROOT
BRANCH   5   6
ATOM      6  C   UNL d   1     -49.011  12.388  22.627  0.00  0.00     0.019 A 
ATOM      7  C   UNL d   1     -49.604  12.743  23.078  0.00  0.00     0.002 A 
ATOM      8  C   UNL d   1     -50.280  13.036  22.712  0.00  0.00     0.011 A 
ATOM      9  C   UNL d   1     -50.385  12.987  21.896  0.00  0.00     0.058 A 
ATOM     10  C   UNL d   1     -49.790  12.632  21.452  0.00  0.00     0.011 A 
ATOM     11 CL   UNL d   1     -51.048  13.274  21.540  0.00  0.00    -0.082 Cl
ATOM     12  C   UNL d   1     -49.105  12.333  21.806  0.00  0.00     0.002 A 
ENDBRANCH   5   6
BRANCH   1  13
ATOM     13  C   UNL d   1     -46.271  12.122  23.612  0.00  0.00     0.231 C 
ATOM     14  O   UNL d   1     -45.717  11.506  23.679  0.00  0.00    -0.643 OA
ATOM     15  O   UNL d   1     -46.035  12.918  23.698  0.00  0.00    -0.643 OA
ENDBRANCH   1  13
TORSDOF 2
ENDMDL
MODEL 2
REMARK VINA RESULT:      -7.3      2.023      2.226
REMARK  2 active torsions:
REMARK  status: ('A' for Active; 'I' for Inactive)
REMARK    1  A    between atoms: C_6  and  C_1 
REMARK    2  A    between atoms: C_7  and  C_5 
ROOT
ATOM      1  C   UNL d   1     -46.760  13.349  22.589  0.00  0.00     0.169 A 
ATOM      2  C   UNL d   1     -47.241  13.931  22.957  0.00  0.00     0.048 A 
ATOM      3  N   UNL d   1     -47.995  13.300  22.035  0.00  0.00    -0.148 NA
ATOM      4  N   UNL d   1     -47.225  12.970  22.030  0.00  0.00    -0.142 NA
ATOM      5  C   UNL d   1     -47.990  13.901  22.621  0.00  0.00     0.105 A 
ENDROOT
BRANCH   5   6
ATOM      6  C   UNL d   1     -48.633  14.375  22.817  0.00  0.00     0.019 A 
ATOM      7  C   UNL d   1     -49.246  14.064  23.274  0.00  0.00     0.002 A 
ATOM      8  C   UNL d   1     -49.892  14.534  23.473  0.00  0.00     0.011 A 
ATOM      9  C   UNL d   1     -49.947  15.319  23.227  0.00  0.00     0.058 A 
ATOM     10  C   UNL d   1     -49.332  15.623  22.771  0.00  0.00     0.011 A 
ATOM     11 CL   UNL d   1     -50.579  15.777  23.423  0.00  0.00    -0.082 Cl
ATOM     12  C   UNL d   1     -48.677  15.162  22.564  0.00  0.00     0.002 A 
ENDBRANCH   5   6
BRANCH   1  13
ATOM     13  C   UNL d   1     -45.960  13.194  22.767  0.00  0.00     0.231 C 
ATOM     14  O   UNL d   1     -45.346  13.554  22.336  0.00  0.00    -0.643 OA
ATOM     15  O   UNL d   1     -45.789  12.666  23.391  0.00  0.00    -0.643 OA
ENDBRANCH   1  13
TORSDOF 2
ENDMDL
MODEL 3
REMARK VINA RESULT:      -7.2      3.023      3.857
REMARK  2 active torsions:
REMARK  status: ('A' for Active; 'I' for Inactive)
REMARK    1  A    between atoms: C_6  and  C_1 
REMARK    2  A    between atoms: C_7  and  C_5 
ROOT
ATOM      1  C   UNL d   1     -49.156  15.005  22.790  0.00  0.00     0.169 A 
ATOM      2  C   UNL d   1     -48.910  14.304  23.181  0.00  0.00     0.048 A 
ATOM      3  N   UNL d   1     -47.999  14.581  22.228  0.00  0.00    -0.148 NA
ATOM      4  N   UNL d   1     -48.598  15.167  22.212  0.00  0.00    -0.142 NA
ATOM      5  C   UNL d   1     -48.209  14.047  22.841  0.00  0.00     0.105 A 
ENDROOT
BRANCH   5   6
ATOM      6  C   UNL d   1     -47.776  13.380  23.055  0.00  0.00     0.019 A 
ATOM      7  C   UNL d   1     -46.953  13.424  23.100  0.00  0.00     0.002 A 
ATOM      8  C   UNL d   1     -46.516  12.760  23.315  0.00  0.00     0.011 A 
ATOM      9  C   UNL d   1     -46.881  12.041  23.489  0.00  0.00     0.058 A 
ATOM     10  C   UNL d   1     -47.702  12.005  23.442  0.00  0.00     0.011 A 
ATOM     11 CL   UNL d   1     -46.451  11.393  23.698  0.00  0.00    -0.082 Cl
ATOM     12  C   UNL d   1     -48.154  12.664  23.228  0.00  0.00     0.002 A 
ENDBRANCH   5   6
BRANCH   1  13
ATOM     13  C   UNL d   1     -49.843  15.446  22.964  0.00  0.00     0.231 C 
ATOM     14  O   UNL d   1     -49.931  15.834  23.695  0.00  0.00    -0.643 OA
ATOM     15  O   UNL d   1     -50.442  15.490  22.384  0.00  0.00    -0.643 OA
ENDBRANCH   1  13
TORSDOF 2
ENDMDL
MODEL 4
REMARK VINA RESULT:      -6.8      2.527      3.400
REMARK  2 active torsions:
REMARK  status: ('A' for Active; 'I' for Inactive)
REMARK    1  A    between atoms: C_6  and  C_1 
REMARK    2  A    between atoms: C_7  and  C_5 
ROOT
ATOM      1  C   UNL d   1     -49.731  12.151  23.386  0.00  0.00     0.169 A 
ATOM      2  C   UNL d   1     -49.112  12.694  23.217  0.00  0.00     0.048 A 
ATOM      3  N   UNL d   1     -48.600  11.451  23.130  0.00  0.00    -0.148 NA
ATOM      4  N   UNL d   1     -49.412  11.398  23.331  0.00  0.00    -0.142 NA
ATOM      5  C   UNL d   1     -48.427  12.269  23.062  0.00  0.00     0.105 A 
ENDROOT
BRANCH   5   6
ATOM      6  C   UNL d   1     -47.690  12.582  22.871  0.00  0.00     0.019 A 
ATOM      7  C   UNL d   1     -47.046  12.442  23.368  0.00  0.00     0.002 A 
ATOM      8  C   UNL d   1     -46.307  12.753  23.182  0.00  0.00     0.011 A 
ATOM      9  C   UNL d   1     -46.188  13.207  22.503  0.00  0.00     0.058 A 
ATOM     10  C   UNL d   1     -46.835  13.342  22.013  0.00  0.00     0.011 A 
ATOM     11 CL   UNL d   1     -45.464  13.510  22.323  0.00  0.00    -0.082 Cl
ATOM     12  C   UNL d   1     -47.583  13.036  22.188  0.00  0.00     0.002 A 
ENDBRANCH   5   6
BRANCH   1  13
ATOM     13  C   UNL d   1     -50.519  12.352  23.573  0.00  0.00     0.231 C 
ATOM     14  O   UNL d   1     -50.758  13.146  23.634  0.00  0.00    -0.643 OA
ATOM     15  O   UNL d   1     -51.064  11.732  23.698  0.00  0.00    -0.643 OA
ENDBRANCH   1  13
TORSDOF 2
ENDMDL
MODEL 5
REMARK VINA RESULT:      -6.3      9.097      9.828
REMARK  2 active torsions:
REMARK  status: ('A' for Active; 'I' for Inactive)
REMARK    1  A    between atoms: C_6  and  C_1 
REMARK    2  A    between atoms: C_7  and  C_5 
ROOT
ATOM      1  C   UNL d   1     -40.794  14.972  17.591  0.00  0.00     0.169 A 
ATOM      2  C   UNL d   1     -40.498  15.195  18.345  0.00  0.00     0.048 A 
ATOM      3  N   UNL d   1     -40.722  13.866  18.369  0.00  0.00    -0.148 NA
ATOM      4  N   UNL d   1     -40.928  14.164  17.614  0.00  0.00    -0.142 NA
ATOM      5  C   UNL d   1     -40.454  14.524  18.816  0.00  0.00     0.105 A 
ENDROOT
BRANCH   5   6
ATOM      6  C   UNL d   1     -40.193  14.491  19.596  0.00  0.00     0.019 A 
ATOM      7  C   UNL d   1     -39.415  14.268  19.758  0.00  0.00     0.002 A 
ATOM      8  C   UNL d   1     -39.150  14.234  20.537  0.00  0.00     0.011 A 
ATOM      9  C   UNL d   1     -39.645  14.418  21.170  0.00  0.00     0.058 A 
ATOM     10  C   UNL d   1     -40.419  14.640  21.001  0.00  0.00     0.011 A 
ATOM     11 CL   UNL d   1     -39.383  14.384  21.930  0.00  0.00    -0.082 Cl
ATOM     12  C   UNL d   1     -40.699  14.679  20.224  0.00  0.00     0.002 A 
ENDBRANCH   5   6
BRANCH   1  13
ATOM     13  C   UNL d   1     -40.925  15.486  16.946  0.00  0.00     0.231 C 
ATOM     14  O   UNL d   1     -40.301  15.922  16.611  0.00  0.00    -0.643 OA
ATOM     15  O   UNL d   1     -41.701  15.552  16.645  0.00  0.00    -0.643 OA
ENDBRANCH   1  13
TORSDOF 2
ENDMDL
MODEL 6
REMARK VINA RESULT:      -5.8      8.993      9.770
REMARK  2 active torsions:
REMARK  status: ('A' for Active; 'I' for Inactive)
REMARK    1  A    between atoms: C_6  and  C_1 
REMARK    2  A    between atoms: C_7  and  C_5 
ROOT
ATOM      1  C   UNL d   1     -39.427  13.658  17.670  0.00  0.00     0.169 A 
ATOM      2  C   UNL d   1     -39.433  14.044  18.416  0.00  0.00     0.048 A 
ATOM      3  N   UNL d   1     -40.685  14.088  17.922  0.00  0.00    -0.148 NA
ATOM      4  N   UNL d   1     -40.191  13.688  17.376  0.00  0.00    -0.142 NA
ATOM      5  C   UNL d   1     -40.196  14.306  18.568  0.00  0.00     0.105 A 
ENDROOT
BRANCH   5   6
ATOM      6  C   UNL d   1     -40.449  14.712  19.237  0.00  0.00     0.019 A 
ATOM      7  C   UNL d   1     -40.589  14.298  19.938  0.00  0.00     0.002 A 
ATOM      8  C   UNL d   1     -40.842  14.701  20.610  0.00  0.00     0.011 A 
ATOM      9  C   UNL d   1     -40.963  15.516  20.606  0.00  0.00     0.058 A 
ATOM     10  C   UNL d   1     -40.821  15.922  19.903  0.00  0.00     0.011 A 
ATOM     11 CL   UNL d   1     -41.211  15.907  21.264  0.00  0.00    -0.082 Cl
ATOM     12  C   UNL d   1     -40.567  15.531  19.221  0.00  0.00     0.002 A 
ENDBRANCH   5   6
BRANCH   1  13
ATOM     13  C   UNL d   1     -38.761  13.310  17.305  0.00  0.00     0.231 C 
ATOM     14  O   UNL d   1     -38.445  12.593  17.582  0.00  0.00    -0.643 OA
ATOM     15  O   UNL d   1     -38.419  13.704  16.653  0.00  0.00    -0.643 OA
ENDBRANCH   1  13
TORSDOF 2
ENDMDL
MODEL 7
REMARK VINA RESULT:      -5.7      9.317     10.411
REMARK  2 active torsions:
REMARK  status: ('A' for Active; 'I' for Inactive)
REMARK    1  A    between atoms: C_6  and  C_1 
REMARK    2  A    between atoms: C_7  and  C_5 
ROOT
ATOM      1  C   UNL d   1     -40.548  14.462  19.396  0.00  0.00     0.169 A 
ATOM      2  C   UNL d   1     -39.854  14.470  18.923  0.00  0.00     0.048 A 
ATOM      3  N   UNL d   1     -40.825  13.864  18.213  0.00  0.00    -0.148 NA
ATOM      4  N   UNL d   1     -41.134  14.092  18.957  0.00  0.00    -0.142 NA
ATOM      5  C   UNL d   1     -40.022  14.107  18.206  0.00  0.00     0.105 A 
ENDROOT
BRANCH   5   6
ATOM      6  C   UNL d   1     -39.499  13.996  17.580  0.00  0.00     0.019 A 
ATOM      7  C   UNL d   1     -39.493  14.531  16.952  0.00  0.00     0.002 A 
ATOM      8  C   UNL d   1     -38.972  14.424  16.324  0.00  0.00     0.011 A 
ATOM      9  C   UNL d   1     -38.448  13.788  16.302  0.00  0.00     0.058 A 
ATOM     10  C   UNL d   1     -38.460  13.258  16.932  0.00  0.00     0.011 A 
ATOM     11 CL   UNL d   1     -37.940  13.685  15.686  0.00  0.00    -0.082 Cl
ATOM     12  C   UNL d   1     -38.977  13.353  17.569  0.00  0.00     0.002 A 
ENDBRANCH   5   6
BRANCH   1  13
ATOM     13  C   UNL d   1     -40.618  14.775  20.166  0.00  0.00     0.231 C 
ATOM     14  O   UNL d   1     -40.394  14.331  20.833  0.00  0.00    -0.643 OA
ATOM     15  O   UNL d   1     -40.921  15.549  20.252  0.00  0.00    -0.643 OA
ENDBRANCH   1  13
TORSDOF 2
ENDMDL
MODEL 8
REMARK VINA RESULT:      -5.1      8.986      9.252
REMARK  2 active torsions:
REMARK  status: ('A' for Active; 'I' for Inactive)
REMARK    1  A    between atoms: C_6  and  C_1 
REMARK    2  A    between atoms: C_7  and  C_5 
ROOT
ATOM      1  C   UNL d   1     -39.888  14.463  21.190  0.00  0.00     0.169 A 
ATOM      2  C   UNL d   1     -39.715  14.715  20.408  0.00  0.00     0.048 A 
ATOM      3  N   UNL d   1     -41.013  14.354  20.444  0.00  0.00    -0.148 NA
ATOM      4  N   UNL d   1     -40.678  14.245  21.204  0.00  0.00    -0.142 NA
ATOM      5  C   UNL d   1     -40.397  14.649  19.955  0.00  0.00     0.105 A 
ENDROOT
BRANCH   5   6
ATOM      6  C   UNL d   1     -40.475  14.837  19.158  0.00  0.00     0.019 A 
ATOM      7  C   UNL d   1     -40.415  14.241  18.590  0.00  0.00     0.002 A 
ATOM      8  C   UNL d   1     -40.492  14.424  17.791  0.00  0.00     0.011 A 
ATOM      9  C   UNL d   1     -40.629  15.197  17.536  0.00  0.00     0.058 A 
ATOM     10  C   UNL d   1     -40.688  15.786  18.109  0.00  0.00     0.011 A 
ATOM     11 CL   UNL d   1     -40.704  15.373  16.755  0.00  0.00    -0.082 Cl
ATOM     12  C   UNL d   1     -40.612  15.616  18.915  0.00  0.00     0.002 A 
ENDBRANCH   5   6
BRANCH   1  13
ATOM     13  C   UNL d   1     -39.349  14.441  21.827  0.00  0.00     0.231 C 
ATOM     14  O   UNL d   1     -39.210  15.115  22.295  0.00  0.00    -0.643 OA
ATOM     15  O   UNL d   1     -38.952  13.724  21.983  0.00  0.00    -0.643 OA
ENDBRANCH   1  13
TORSDOF 2
ENDMDL
MODEL 9
REMARK VINA RESULT:      -4.7      2.867      4.040
REMARK  2 active torsions:
REMARK  status: ('A' for Active; 'I' for Inactive)
REMARK    1  A    between atoms: C_6  and  C_1 
REMARK    2  A    between atoms: C_7  and  C_5 
ROOT
ATOM      1  C   UNL d   1     -48.208  13.449  22.736  0.00  0.00     0.169 A 
ATOM      2  C   UNL d   1     -47.557  13.022  22.421  0.00  0.00     0.048 A 
ATOM      3  N   UNL d   1     -47.064  14.044  23.148  0.00  0.00    -0.148 NA
ATOM      4  N   UNL d   1     -47.901  14.068  23.176  0.00  0.00    -0.142 NA
ATOM      5  C   UNL d   1     -46.863  13.383  22.671  0.00  0.00     0.105 A 
ENDROOT
BRANCH   5   6
ATOM      6  C   UNL d   1     -46.096  13.146  22.491  0.00  0.00     0.019 A 
ATOM      7  C   UNL d   1     -45.828  12.406  22.740  0.00  0.00     0.002 A 
ATOM      8  C   UNL d   1     -45.061  12.164  22.562  0.00  0.00     0.011 A 
ATOM      9  C   UNL d   1     -44.544  12.646  22.136  0.00  0.00     0.058 A 
ATOM     10  C   UNL d   1     -44.819  13.382  21.891  0.00  0.00     0.011 A 
ATOM     11 CL   UNL d   1     -43.795  12.407  21.963  0.00  0.00    -0.082 Cl
ATOM     12  C   UNL d   1     -45.586  13.638  22.063  0.00  0.00     0.002 A 
ENDBRANCH   5   6
BRANCH   1  13
ATOM     13  C   UNL d   1     -49.014  13.268  22.617  0.00  0.00     0.231 C 
ATOM     14  O   UNL d   1     -49.438  12.811  23.167  0.00  0.00    -0.643 OA
ATOM     15  O   UNL d   1     -49.386  13.558  21.927  0.00  0.00    -0.643 OA
ENDBRANCH   1  13
TORSDOF 2
ENDMDL
