MODEL 1
REMARK VINA RESULT:     105.2      0.000      0.000
REMARK  2 active torsions:
REMARK  status: ('A' for Active; 'I' for Inactive)
REMARK    1  A    between atoms: C_7  and  N_1 
REMARK    2  A    between atoms: C_9  and  C_2 
ROOT
ATOM      1  N   UNL d   1     -47.512  30.469  35.468  0.00  0.00    -0.273 N 
ATOM      2  C   UNL d   1     -46.821  30.571  35.914  0.00  0.00     0.174 A 
ATOM      3  N   UNL d   1     -46.536  31.327  35.767  0.00  0.00    -0.204 NA
ATOM      4  C   UNL d   1     -47.645  31.163  35.050  0.00  0.00     0.185 A 
ATOM      5  C   UNL d   1     -47.045  31.694  35.233  0.00  0.00     0.199 A 
ATOM      6  N   UNL d   1     -48.243  31.384  34.521  0.00  0.00    -0.224 NA
ATOM      7  N   UNL d   1     -47.036  32.443  34.892  0.00  0.00    -0.223 NA
ATOM      8  C   UNL d   1     -48.232  32.130  34.183  0.00  0.00     0.101 A 
ATOM      9  C   UNL d   1     -47.635  32.661  34.363  0.00  0.00     0.101 A 
ATOM     10  C   UNL d   1     -48.827  32.351  33.655  0.00  0.00     0.021 A 
ATOM     11  C   UNL d   1     -47.623  33.411  34.025  0.00  0.00     0.021 A 
ATOM     12  C   UNL d   1     -48.216  33.636  33.496  0.00  0.00     0.002 A 
ATOM     13  C   UNL d   1     -48.823  33.098  33.312  0.00  0.00     0.002 A 
ENDROOT
BRANCH   1  14
ATOM     14  C   UNL d   1     -47.955  29.773  35.473  0.00  0.00     0.069 A 
ATOM     15  C   UNL d   1     -47.968  29.291  34.801  0.00  0.00     0.044 A 
ATOM     16  C   UNL d   1     -48.409  28.597  34.805  0.00  0.00     0.124 A 
ATOM     17  O   UNL d   1     -48.420  28.122  34.139  0.00  0.00    -0.301 OA
ATOM     18  C   UNL d   1     -48.838  28.386  35.482  0.00  0.00     0.123 A 
ATOM     19  C   UNL d   1     -48.868  27.416  34.139  0.00  0.00     0.149 A 
ATOM     20  C   UNL d   1     -49.301  27.198  34.817  0.00  0.00     0.149 A 
ATOM     21  O   UNL d   1     -49.286  27.684  35.489  0.00  0.00    -0.301 OA
ATOM     22  C   UNL d   1     -48.827  28.864  36.151  0.00  0.00     0.028 A 
ATOM     23  C   UNL d   1     -48.385  29.557  36.147  0.00  0.00     0.020 A 
ENDBRANCH   1  14
BRANCH   2  24
ATOM     24  C   UNL d   1     -46.483  30.010  36.414  0.00  0.00     0.135 A 
ATOM     25  O   UNL d   1     -46.038  29.356  36.182  0.00  0.00    -0.302 OA
ATOM     26  C   UNL d   1     -45.811  28.947  36.869  0.00  0.00     0.123 A 
ATOM     27  C   UNL d   1     -46.121  29.355  37.520  0.00  0.00     0.029 A 
ATOM     28  C   UNL d   1     -46.536  30.011  37.240  0.00  0.00     0.030 A 
ENDBRANCH   2  24
TORSDOF 2
ENDMDL
