MODEL 1
REMARK VINA RESULT:      52.1      0.000      0.000
REMARK  6 active torsions:
REMARK  status: ('A' for Active; 'I' for Inactive)
REMARK    1  A    between atoms: N_8  and  S_1 
REMARK    2  A    between atoms: C_12  and  S_1 
REMARK    3  A    between atoms: N_5  and  C_2 
REMARK    4  A    between atoms: C_4  and  O_9 
REMARK    5  A    between atoms: O_9  and  C_10 
REMARK    6  A    between atoms: C_10  and  C_16 
ROOT
ATOM      1  C   UNL d   1      44.951 -16.506  38.055  0.00  0.00     0.104 A 
ATOM      2  C   UNL d   1      45.130 -17.429  39.398  0.00  0.00     0.064 A 
ATOM      3  C   UNL d   1      45.588 -17.014  38.123  0.00  0.00     0.013 A 
ATOM      4  C   UNL d   1      44.398 -16.461  38.665  0.00  0.00     0.013 A 
ATOM      5  C   UNL d   1      45.681 -17.483  38.803  0.00  0.00     0.006 A 
ATOM      6  C   UNL d   1      44.486 -16.923  39.340  0.00  0.00     0.006 A 
ENDROOT
BRANCH   2   7
ATOM      7  C   UNL d   1      45.216 -17.895  40.081  0.00  0.00     0.300 C 
ATOM      8  O   UNL d   1      44.558 -18.237  40.424  0.00  0.00    -0.259 OA
BRANCH   7   9
ATOM      9  O   UNL d   1      45.967 -18.007  40.407  0.00  0.00    -0.271 OA
BRANCH   9  10
ATOM     10  C   UNL d   1      46.055 -18.191  41.207  0.00  0.00     0.132 A 
ATOM     11  C   UNL d   1      46.306 -18.943  41.436  0.00  0.00     0.207 A 
ATOM     12  C   UNL d   1      46.393 -19.127  42.236  0.00  0.00     0.303 A 
ATOM     13  O   UNL d   1      46.645 -19.883  42.461  0.00  0.00    -0.263 OA
ATOM     14  N   UNL d   1      46.230 -18.559  42.807  0.00  0.00    -0.206 NA
ATOM     15  C   UNL d   1      45.982 -17.812  42.583  0.00  0.00     0.087 A 
ATOM     16  C   UNL d   1      45.894 -17.628  41.784  0.00  0.00     0.046 A 
ATOM     17  C   UNL d   1      45.816 -17.234  43.161  0.00  0.00     0.021 C 
BRANCH  11  18
ATOM     18  N   UNL d   1      46.469 -19.514  40.857  0.00  0.00    -0.107 N 
ATOM     19  O   UNL d   1      46.540 -20.307  41.076  0.00  0.00    -0.531 OA
ATOM     20  O   UNL d   1      46.559 -19.290  40.068  0.00  0.00    -0.531 OA
ENDBRANCH  11  18
ENDBRANCH   9  10
ENDBRANCH   7   9
ENDBRANCH   2   7
BRANCH   1  21
ATOM     21  S   UNL d   1      44.852 -16.042  37.390  0.00  0.00     0.271 S 
ATOM     22  O   UNL d   1      44.596 -15.682  36.710  0.00  0.00    -0.200 OA
ATOM     23  O   UNL d   1      44.203 -16.532  37.399  0.00  0.00    -0.200 OA
BRANCH  21  24
ATOM     24  N   UNL d   1      45.420 -15.481  37.217  0.00  0.00    -0.229 N 
ATOM     25  C   UNL d   1      46.056 -15.669  36.726  0.00  0.00     0.092 A 
ATOM     26  C   UNL d   1      46.614 -15.097  36.564  0.00  0.00     0.020 A 
ATOM     27  C   UNL d   1      46.553 -14.333  36.881  0.00  0.00     0.003 A 
ATOM     28  C   UNL d   1      45.921 -14.155  37.365  0.00  0.00     0.020 A 
ATOM     29  C   UNL d   1      45.349 -14.727  37.537  0.00  0.00     0.092 A 
ENDBRANCH  21  24
ENDBRANCH   1  21
TORSDOF 6
ENDMDL
MODEL 2
REMARK VINA RESULT:      53.9      1.176      1.515
REMARK  6 active torsions:
REMARK  status: ('A' for Active; 'I' for Inactive)
REMARK    1  A    between atoms: N_8  and  S_1 
REMARK    2  A    between atoms: C_12  and  S_1 
REMARK    3  A    between atoms: N_5  and  C_2 
REMARK    4  A    between atoms: C_4  and  O_9 
REMARK    5  A    between atoms: O_9  and  C_10 
REMARK    6  A    between atoms: C_10  and  C_16 
ROOT
ATOM      1  C   UNL d   1      45.143 -16.806  38.408  0.00  0.00     0.104 A 
ATOM      2  C   UNL d   1      45.145 -17.601  39.842  0.00  0.00     0.064 A 
ATOM      3  C   UNL d   1      44.452 -16.882  38.836  0.00  0.00     0.013 A 
ATOM      4  C   UNL d   1      45.843 -17.130  38.701  0.00  0.00     0.013 A 
ATOM      5  C   UNL d   1      44.450 -17.285  39.564  0.00  0.00     0.006 A 
ATOM      6  C   UNL d   1      45.846 -17.529  39.420  0.00  0.00     0.006 A 
ENDROOT
BRANCH   2   7
ATOM      7  C   UNL d   1      45.152 -18.005  40.568  0.00  0.00     0.300 C 
ATOM      8  O   UNL d   1      44.485 -18.004  41.039  0.00  0.00    -0.259 OA
BRANCH   7   9
ATOM      9  O   UNL d   1      45.836 -18.404  40.807  0.00  0.00    -0.271 OA
BRANCH   9  10
ATOM     10  C   UNL d   1      46.035 -18.456  41.606  0.00  0.00     0.132 A 
ATOM     11  C   UNL d   1      46.132 -19.193  41.964  0.00  0.00     0.207 A 
ATOM     12  C   UNL d   1      46.331 -19.245  42.764  0.00  0.00     0.303 A 
ATOM     13  O   UNL d   1      46.427 -19.987  43.118  0.00  0.00    -0.263 OA
ATOM     14  N   UNL d   1      46.432 -18.559  43.205  0.00  0.00    -0.206 NA
ATOM     15  C   UNL d   1      46.336 -17.827  42.854  0.00  0.00     0.087 A 
ATOM     16  C   UNL d   1      46.138 -17.775  42.055  0.00  0.00     0.046 A 
ATOM     17  C   UNL d   1      46.438 -17.129  43.300  0.00  0.00     0.021 C 
BRANCH  11  18
ATOM     18  N   UNL d   1      46.029 -19.883  41.515  0.00  0.00    -0.107 N 
ATOM     19  O   UNL d   1      46.634 -20.134  41.012  0.00  0.00    -0.531 OA
ATOM     20  O   UNL d   1      45.328 -20.313  41.571  0.00  0.00    -0.531 OA
ENDBRANCH  11  18
ENDBRANCH   9  10
ENDBRANCH   7   9
ENDBRANCH   2   7
BRANCH   1  21
ATOM     21  S   UNL d   1      45.153 -16.412  37.692  0.00  0.00     0.271 S 
ATOM     22  O   UNL d   1      45.350 -16.030  37.004  0.00  0.00    -0.200 OA
ATOM     23  O   UNL d   1      45.937 -16.509  37.887  0.00  0.00    -0.200 OA
BRANCH  21  24
ATOM     24  N   UNL d   1      44.441 -16.225  37.338  0.00  0.00    -0.229 N 
ATOM     25  C   UNL d   1      44.132 -16.706  36.744  0.00  0.00     0.092 A 
ATOM     26  C   UNL d   1      43.421 -16.505  36.401  0.00  0.00     0.020 A 
ATOM     27  C   UNL d   1      43.003 -15.829  36.639  0.00  0.00     0.003 A 
ATOM     28  C   UNL d   1      43.315 -15.358  37.227  0.00  0.00     0.020 A 
ATOM     29  C   UNL d   1      44.037 -15.552  37.582  0.00  0.00     0.092 A 
ENDBRANCH  21  24
ENDBRANCH   1  21
TORSDOF 6
ENDMDL
MODEL 3
REMARK VINA RESULT:      54.9      3.985      6.026
REMARK  6 active torsions:
REMARK  status: ('A' for Active; 'I' for Inactive)
REMARK    1  A    between atoms: N_8  and  S_1 
REMARK    2  A    between atoms: C_12  and  S_1 
REMARK    3  A    between atoms: N_5  and  C_2 
REMARK    4  A    between atoms: C_4  and  O_9 
REMARK    5  A    between atoms: O_9  and  C_10 
REMARK    6  A    between atoms: C_10  and  C_16 
ROOT
ATOM      1  C   UNL d   1      45.473 -12.567  40.929  0.00  0.00     0.104 A 
ATOM      2  C   UNL d   1      45.134 -12.996  39.383  0.00  0.00     0.064 A 
ATOM      3  C   UNL d   1      44.818 -12.259  40.552  0.00  0.00     0.013 A 
ATOM      4  C   UNL d   1      45.964 -13.096  40.529  0.00  0.00     0.013 A 
ATOM      5  C   UNL d   1      44.643 -12.475  39.768  0.00  0.00     0.006 A 
ATOM      6  C   UNL d   1      45.796 -13.312  39.753  0.00  0.00     0.006 A 
ENDROOT
BRANCH   2   7
ATOM      7  C   UNL d   1      44.967 -13.217  38.600  0.00  0.00     0.300 C 
ATOM      8  O   UNL d   1      45.126 -12.699  37.989  0.00  0.00    -0.259 OA
BRANCH   7   9
ATOM      9  O   UNL d   1      44.640 -13.961  38.446  0.00  0.00    -0.271 OA
BRANCH   9  10
ATOM     10  C   UNL d   1      44.889 -14.403  37.795  0.00  0.00     0.132 A 
ATOM     11  C   UNL d   1      44.390 -14.968  37.459  0.00  0.00     0.207 A 
ATOM     12  C   UNL d   1      44.638 -15.409  36.807  0.00  0.00     0.303 A 
ATOM     13  O   UNL d   1      44.134 -15.974  36.474  0.00  0.00    -0.263 OA
ATOM     14  N   UNL d   1      45.388 -15.286  36.492  0.00  0.00    -0.206 NA
ATOM     15  C   UNL d   1      45.885 -14.728  36.823  0.00  0.00     0.087 A 
ATOM     16  C   UNL d   1      45.637 -14.286  37.474  0.00  0.00     0.046 A 
ATOM     17  C   UNL d   1      46.646 -14.601  36.504  0.00  0.00     0.021 C 
BRANCH  11  18
ATOM     18  N   UNL d   1      43.634 -15.088  37.780  0.00  0.00    -0.107 N 
ATOM     19  O   UNL d   1      42.968 -14.860  37.349  0.00  0.00    -0.531 OA
ATOM     20  O   UNL d   1      43.551 -15.433  38.525  0.00  0.00    -0.531 OA
ENDBRANCH  11  18
ENDBRANCH   9  10
ENDBRANCH   7   9
ENDBRANCH   2   7
BRANCH   1  21
ATOM     21  S   UNL d   1      45.652 -12.360  41.699  0.00  0.00     0.271 S 
ATOM     22  O   UNL d   1      45.983 -12.081  42.385  0.00  0.00    -0.200 OA
ATOM     23  O   UNL d   1      46.276 -12.080  41.259  0.00  0.00    -0.200 OA
BRANCH  21  24
ATOM     24  N   UNL d   1      45.127 -12.565  42.291  0.00  0.00    -0.229 N 
ATOM     25  C   UNL d   1      44.428 -12.139  42.393  0.00  0.00     0.092 A 
ATOM     26  C   UNL d   1      43.915 -12.357  42.989  0.00  0.00     0.020 A 
ATOM     27  C   UNL d   1      44.083 -12.995  43.490  0.00  0.00     0.003 A 
ATOM     28  C   UNL d   1      44.777 -13.411  43.383  0.00  0.00     0.020 A 
ATOM     29  C   UNL d   1      45.305 -13.199  42.782  0.00  0.00     0.092 A 
ENDBRANCH  21  24
ENDBRANCH   1  21
TORSDOF 6
ENDMDL
