MODEL 1
REMARK VINA RESULT:      42.2      0.000      0.000
REMARK  3 active torsions:
REMARK  status: ('A' for Active; 'I' for Inactive)
REMARK    1  A    between atoms: N_2  and  S_1 
REMARK    2  A    between atoms: C_3  and  S_1 
REMARK    3  A    between atoms: O_16  and  C_9 
ROOT
ATOM      1  S   UNL d   1      13.833  13.049  -2.543  0.00  0.00     0.274 S 
ATOM      2  O   UNL d   1      13.112  13.334  -2.261  0.00  0.00    -0.199 OA
ATOM      3  O   UNL d   1      14.559  12.759  -2.819  0.00  0.00    -0.199 OA
ENDROOT
BRANCH   1   4
ATOM      4  N   UNL d   1      13.957  12.651  -1.825  0.00  0.00    -0.214 N 
ATOM      5  C   UNL d   1      13.468  12.071  -1.502  0.00  0.00     0.157 A 
ATOM      6  N   UNL d   1      13.800  11.829  -0.787  0.00  0.00    -0.226 NA
ATOM      7  C   UNL d   1      12.769  11.780  -1.831  0.00  0.00     0.041 C 
ATOM      8  C   UNL d   1      14.495  12.260  -0.668  0.00  0.00     0.100 A 
ATOM      9  C   UNL d   1      14.590  12.764  -1.306  0.00  0.00     0.094 A 
ATOM     10  C   UNL d   1      15.048  12.251  -0.056  0.00  0.00     0.021 A 
ATOM     11  C   UNL d   1      15.245  13.269  -1.339  0.00  0.00     0.020 A 
ATOM     12  C   UNL d   1      15.802  13.268  -0.734  0.00  0.00     0.002 A 
ATOM     13  C   UNL d   1      15.703  12.757  -0.089  0.00  0.00     0.002 A 
ENDBRANCH   1   4
BRANCH   1  14
ATOM     14  C   UNL d   1      13.711  13.445  -3.258  0.00  0.00     0.126 A 
ATOM     15  C   UNL d   1      13.897  14.245  -3.325  0.00  0.00     0.015 A 
ATOM     16  C   UNL d   1      13.774  14.641  -4.039  0.00  0.00     0.001 A 
ATOM     17  C   UNL d   1      13.959  15.429  -4.101  0.00  0.00     0.000 C 
ATOM     18  C   UNL d   1      13.463  14.230  -4.688  0.00  0.00     0.002 A 
ATOM     19  C   UNL d   1      13.277  13.430  -4.622  0.00  0.00     0.025 A 
ATOM     20  C   UNL d   1      13.343  14.622  -5.392  0.00  0.00     0.000 C 
ATOM     21  C   UNL d   1      13.401  13.038  -3.906  0.00  0.00     0.106 A 
BRANCH  21  22
ATOM     22  O   UNL d   1      13.217  12.242  -3.837  0.00  0.00    -0.327 OA
ATOM     23  C   UNL d   1      13.035  11.809  -4.503  0.00  0.00     0.181 C 
ENDBRANCH  21  22
ENDBRANCH   1  14
TORSDOF 3
ENDMDL
