MODEL 1
REMARK VINA RESULT:      -5.1      0.000      0.000
REMARK  4 active torsions:
REMARK  status: ('A' for Active; 'I' for Inactive)
REMARK    1  A    between atoms: C_2  and  N_1 
REMARK       I    between atoms: C_3  and  N_1 
REMARK    2  A    between atoms: N_5  and  C_2 
REMARK    3  A    between atoms: C_4  and  C_3 
REMARK    4  A    between atoms: C_7  and  N_5 
ROOT
ATOM      1  C   UNL d   1     -41.633-122.209 -51.542  0.00  0.00     0.224 C 
ATOM      2  S   UNL d   1     -41.123-121.577 -51.393  0.00  0.00    -0.037 SA
ENDROOT
BRANCH   1   3
ATOM      3  N   UNL d   1     -41.539-122.665 -52.222  0.00  0.00    -0.177 NA
ATOM      4  C   UNL d   1     -41.596-122.318 -52.969  0.00  0.00     0.304 C 
ATOM      5  O   UNL d   1     -41.749-121.509 -53.031  0.00  0.00    -0.263 OA
BRANCH   4   6
ATOM      6  C   UNL d   1     -41.502-122.775 -53.651  0.00  0.00     0.158 A 
ATOM      7  O   UNL d   1     -41.410-123.600 -53.666  0.00  0.00    -0.300 OA
ATOM      8  C   UNL d   1     -41.334-123.817 -54.465  0.00  0.00     0.123 A 
ATOM      9  C   UNL d   1     -41.380-123.136 -54.927  0.00  0.00     0.029 A 
ATOM     10  C   UNL d   1     -41.484-122.491 -54.422  0.00  0.00     0.032 A 
ENDBRANCH   4   6
ENDBRANCH   1   3
BRANCH   1  11
ATOM     11  N   UNL d   1     -42.241-122.381 -51.002  0.00  0.00    -0.215 NA
BRANCH  11  12
ATOM     12  C   UNL d   1     -42.066-122.718 -50.270  0.00  0.00     0.112 A 
ATOM     13  C   UNL d   1     -42.640-122.720 -49.663  0.00  0.00     0.156 A 
ATOM     14  N   UNL d   1     -42.466-123.057 -48.931  0.00  0.00    -0.231 NA
ATOM     15 CL   UNL d   1     -43.388-122.381 -49.801  0.00  0.00    -0.060 Cl
ATOM     16  C   UNL d   1     -41.724-123.392 -48.799  0.00  0.00     0.100 A 
ATOM     17  C   UNL d   1     -41.155-123.390 -49.399  0.00  0.00     0.022 A 
ATOM     18  C   UNL d   1     -41.324-123.053 -50.138  0.00  0.00     0.023 A 
ENDBRANCH  11  12
ENDBRANCH   1  11
TORSDOF 4
ENDMDL
MODEL 2
REMARK VINA RESULT:      -4.7      1.856      4.211
REMARK  4 active torsions:
REMARK  status: ('A' for Active; 'I' for Inactive)
REMARK    1  A    between atoms: C_2  and  N_1 
REMARK       I    between atoms: C_3  and  N_1 
REMARK    2  A    between atoms: N_5  and  C_2 
REMARK    3  A    between atoms: C_4  and  C_3 
REMARK    4  A    between atoms: C_7  and  N_5 
ROOT
ATOM      1  C   UNL d   1     -41.351-122.302 -52.497  0.00  0.00     0.224 C 
ATOM      2  S   UNL d   1     -41.123-121.513 -52.416  0.00  0.00    -0.037 SA
ENDROOT
BRANCH   1   3
ATOM      3  N   UNL d   1     -41.759-122.680 -51.889  0.00  0.00    -0.177 NA
ATOM      4  C   UNL d   1     -41.657-122.440 -51.105  0.00  0.00     0.304 C 
ATOM      5  O   UNL d   1     -41.142-121.817 -50.935  0.00  0.00    -0.263 OA
BRANCH   4   6
ATOM      6  C   UNL d   1     -42.065-122.818 -50.496  0.00  0.00     0.158 A 
ATOM      7  O   UNL d   1     -42.799-122.579 -50.190  0.00  0.00    -0.300 OA
ATOM      8  C   UNL d   1     -42.996-123.119 -49.589  0.00  0.00     0.123 A 
ATOM      9  C   UNL d   1     -42.391-123.676 -49.531  0.00  0.00     0.029 A 
ATOM     10  C   UNL d   1     -41.816-123.489 -50.092  0.00  0.00     0.032 A 
ENDBRANCH   4   6
ENDBRANCH   1   3
BRANCH   1  11
ATOM     11  N   UNL d   1     -41.167-122.711 -53.196  0.00  0.00    -0.215 NA
BRANCH  11  12
ATOM     12  C   UNL d   1     -41.569-122.544 -53.897  0.00  0.00     0.112 A 
ATOM     13  C   UNL d   1     -41.563-123.096 -54.524  0.00  0.00     0.156 A 
ATOM     14  N   UNL d   1     -41.965-122.929 -55.225  0.00  0.00    -0.231 NA
ATOM     15 CL   UNL d   1     -41.149-123.813 -54.439  0.00  0.00    -0.060 Cl
ATOM     16  C   UNL d   1     -42.373-122.217 -55.305  0.00  0.00     0.100 A 
ATOM     17  C   UNL d   1     -42.380-121.671 -54.684  0.00  0.00     0.022 A 
ATOM     18  C   UNL d   1     -41.977-121.832 -53.977  0.00  0.00     0.023 A 
ENDBRANCH  11  12
ENDBRANCH   1  11
TORSDOF 4
ENDMDL
MODEL 3
REMARK VINA RESULT:      -3.3      0.961      1.210
REMARK  4 active torsions:
REMARK  status: ('A' for Active; 'I' for Inactive)
REMARK    1  A    between atoms: C_2  and  N_1 
REMARK       I    between atoms: C_3  and  N_1 
REMARK    2  A    between atoms: N_5  and  C_2 
REMARK    3  A    between atoms: C_4  and  C_3 
REMARK    4  A    between atoms: C_7  and  N_5 
ROOT
ATOM      1  C   UNL d   1     -41.440-121.895 -51.566  0.00  0.00     0.224 C 
ATOM      2  S   UNL d   1     -41.378-121.075 -51.485  0.00  0.00    -0.037 SA
ENDROOT
BRANCH   1   3
ATOM      3  N   UNL d   1     -41.663-122.224 -52.288  0.00  0.00    -0.177 NA
ATOM      4  C   UNL d   1     -41.579-121.793 -52.988  0.00  0.00     0.304 C 
ATOM      5  O   UNL d   1     -41.268-121.028 -52.959  0.00  0.00    -0.263 OA
BRANCH   4   6
ATOM      6  C   UNL d   1     -41.803-122.122 -53.711  0.00  0.00     0.158 A 
ATOM      7  O   UNL d   1     -41.666-122.907 -53.944  0.00  0.00    -0.300 OA
ATOM      8  C   UNL d   1     -41.983-122.990 -54.707  0.00  0.00     0.123 A 
ATOM      9  C   UNL d   1     -42.308-122.267 -54.935  0.00  0.00     0.029 A 
ATOM     10  C   UNL d   1     -42.196-121.731 -54.318  0.00  0.00     0.032 A 
ENDBRANCH   4   6
ENDBRANCH   1   3
BRANCH   1  11
ATOM     11  N   UNL d   1     -41.274-122.383 -50.915  0.00  0.00    -0.215 NA
BRANCH  11  12
ATOM     12  C   UNL d   1     -41.881-122.634 -50.416  0.00  0.00     0.112 A 
ATOM     13  C   UNL d   1     -41.809-123.354 -49.999  0.00  0.00     0.156 A 
ATOM     14  N   UNL d   1     -42.416-123.604 -49.499  0.00  0.00    -0.231 NA
ATOM     15 CL   UNL d   1     -41.123-123.817 -50.090  0.00  0.00    -0.060 Cl
ATOM     16  C   UNL d   1     -43.094-123.142 -49.412  0.00  0.00     0.100 A 
ATOM     17  C   UNL d   1     -43.165-122.429 -49.824  0.00  0.00     0.022 A 
ATOM     18  C   UNL d   1     -42.559-122.172 -50.328  0.00  0.00     0.023 A 
ENDBRANCH  11  12
ENDBRANCH   1  11
TORSDOF 4
ENDMDL
MODEL 4
REMARK VINA RESULT:      -3.3      1.310      1.716
REMARK  4 active torsions:
REMARK  status: ('A' for Active; 'I' for Inactive)
REMARK    1  A    between atoms: C_2  and  N_1 
REMARK       I    between atoms: C_3  and  N_1 
REMARK    2  A    between atoms: N_5  and  C_2 
REMARK    3  A    between atoms: C_4  and  C_3 
REMARK    4  A    between atoms: C_7  and  N_5 
ROOT
ATOM      1  C   UNL d   1     -42.289-122.621 -50.276  0.00  0.00     0.224 C 
ATOM      2  S   UNL d   1     -42.899-122.065 -50.254  0.00  0.00    -0.037 SA
ENDROOT
BRANCH   1   3
ATOM      3  N   UNL d   1     -42.087-122.986 -50.987  0.00  0.00    -0.177 NA
ATOM      4  C   UNL d   1     -41.819-122.537 -51.626  0.00  0.00     0.304 C 
ATOM      5  O   UNL d   1     -41.755-121.717 -51.548  0.00  0.00    -0.263 OA
BRANCH   4   6
ATOM      6  C   UNL d   1     -41.617-122.902 -52.338  0.00  0.00     0.158 A 
ATOM      7  O   UNL d   1     -41.781-123.692 -52.536  0.00  0.00    -0.300 OA
ATOM      8  C   UNL d   1     -41.479-123.815 -53.300  0.00  0.00     0.123 A 
ATOM      9  C   UNL d   1     -41.136-123.112 -53.562  0.00  0.00     0.029 A 
ATOM     10  C   UNL d   1     -41.222-122.548 -52.966  0.00  0.00     0.032 A 
ENDBRANCH   4   6
ENDBRANCH   1   3
BRANCH   1  11
ATOM     11  N   UNL d   1     -41.881-122.809 -49.577  0.00  0.00    -0.215 NA
BRANCH  11  12
ATOM     12  C   UNL d   1     -42.281-123.145 -48.938  0.00  0.00     0.112 A 
ATOM     13  C   UNL d   1     -41.929-123.148 -48.180  0.00  0.00     0.156 A 
ATOM     14  N   UNL d   1     -42.328-123.483 -47.541  0.00  0.00    -0.231 NA
ATOM     15 CL   UNL d   1     -41.175-122.812 -48.073  0.00  0.00    -0.060 Cl
ATOM     16  C   UNL d   1     -43.075-123.816 -47.651  0.00  0.00     0.100 A 
ATOM     17  C   UNL d   1     -43.423-123.812 -48.401  0.00  0.00     0.022 A 
ATOM     18  C   UNL d   1     -43.028-123.477 -49.048  0.00  0.00     0.023 A 
ENDBRANCH  11  12
ENDBRANCH   1  11
TORSDOF 4
ENDMDL
