MODEL 1
REMARK VINA RESULT:      53.0      0.000      0.000
REMARK  6 active torsions:
REMARK  status: ('A' for Active; 'I' for Inactive)
REMARK    1  A    between atoms: C_10  and  C_3 
REMARK    2  A    between atoms: N_12  and  C_4 
REMARK    3  A    between atoms: N_11  and  C_20 
REMARK    4  A    between atoms: C_25  and  N_12 
REMARK    5  A    between atoms: C_20  and  C_21 
REMARK    6  A    between atoms: C_21  and  C_25 
ROOT
ATOM      1  C   UNL d   1      13.813  14.145  -3.591  0.00  0.00     0.168 A 
ATOM      2  N   UNL d   1      13.571  14.550  -4.298  0.00  0.00    -0.184 N 
ATOM      3  C   UNL d   1      13.619  13.365  -3.484  0.00  0.00     0.057 A 
ATOM      4  C   UNL d   1      13.772  15.324  -4.390  0.00  0.00     0.218 A 
ATOM      5  N   UNL d   1      12.947  13.355  -4.753  0.00  0.00    -0.160 NA
ATOM      6  N   UNL d   1      14.240  14.542  -3.023  0.00  0.00    -0.227 NA
ATOM      7  C   UNL d   1      14.203  15.734  -3.821  0.00  0.00     0.071 A 
ATOM      8  C   UNL d   1      13.182  12.963  -4.068  0.00  0.00     0.124 A 
ATOM      9  C   UNL d   1      14.442  15.336  -3.125  0.00  0.00     0.087 A 
ATOM     10  C   UNL d   1      14.892  15.756  -2.525  0.00  0.00     0.021 C 
ENDROOT
BRANCH   4  11
ATOM     11  N   UNL d   1      13.528  15.737  -5.103  0.00  0.00    -0.380 NA
BRANCH  11  12
ATOM     12  C   UNL d   1      13.372  16.230  -5.789  0.00  0.00     0.164 C 
BRANCH  12  13
ATOM     13  C   UNL d   1      13.278  17.073  -5.706  0.00  0.00     0.054 C 
BRANCH  13  14
ATOM     14  C   UNL d   1      13.332  17.590  -6.389  0.00  0.00     0.083 C 
BRANCH  14  15
ATOM     15  N   UNL d   1      13.508  18.429  -6.273  0.00  0.00    -0.299 N 
ATOM     16  C   UNL d   1      14.308  18.672  -6.040  0.00  0.00     0.107 A 
ATOM     17  C   UNL d   1      14.477  19.505  -5.926  0.00  0.00     0.142 A 
ATOM     18  O   UNL d   1      13.865  20.094  -6.040  0.00  0.00    -0.300 OA
ATOM     19  C   UNL d   1      13.072  19.851  -6.270  0.00  0.00     0.142 A 
ATOM     20  C   UNL d   1      12.890  19.012  -6.388  0.00  0.00     0.107 A 
ENDBRANCH  14  15
ENDBRANCH  13  14
ENDBRANCH  12  13
ENDBRANCH  11  12
ENDBRANCH   4  11
BRANCH   3  21
ATOM     21  C   UNL d   1      13.854  12.972  -2.798  0.00  0.00     0.005 A 
ATOM     22  C   UNL d   1      14.218  13.386  -2.199  0.00  0.00     0.001 A 
ATOM     23  C   UNL d   1      14.449  13.000  -1.524  0.00  0.00     0.011 A 
ATOM     24  C   UNL d   1      14.320  12.193  -1.438  0.00  0.00     0.058 A 
ATOM     25  C   UNL d   1      13.956  11.779  -2.038  0.00  0.00     0.011 A 
ATOM     26 CL   UNL d   1      14.566  11.782  -0.720  0.00  0.00    -0.082 Cl
ATOM     27  C   UNL d   1      13.721  12.172  -2.724  0.00  0.00     0.001 A 
ENDBRANCH   3  21
TORSDOF 6
ENDMDL
MODEL 2
REMARK VINA RESULT:      54.3      0.924      1.744
REMARK  6 active torsions:
REMARK  status: ('A' for Active; 'I' for Inactive)
REMARK    1  A    between atoms: C_10  and  C_3 
REMARK    2  A    between atoms: N_12  and  C_4 
REMARK    3  A    between atoms: N_11  and  C_20 
REMARK    4  A    between atoms: C_25  and  N_12 
REMARK    5  A    between atoms: C_20  and  C_21 
REMARK    6  A    between atoms: C_21  and  C_25 
ROOT
ATOM      1  C   UNL d   1      13.858  13.748  -3.112  0.00  0.00     0.168 A 
ATOM      2  N   UNL d   1      13.722  14.307  -3.738  0.00  0.00    -0.184 N 
ATOM      3  C   UNL d   1      14.296  13.963  -2.465  0.00  0.00     0.057 A 
ATOM      4  C   UNL d   1      13.285  14.078  -4.375  0.00  0.00     0.218 A 
ATOM      5  N   UNL d   1      14.480  15.274  -3.022  0.00  0.00    -0.160 NA
ATOM      6  N   UNL d   1      13.547  12.998  -3.165  0.00  0.00    -0.227 NA
ATOM      7  C   UNL d   1      12.967  13.321  -4.437  0.00  0.00     0.071 A 
ATOM      8  C   UNL d   1      14.612  14.732  -2.415  0.00  0.00     0.124 A 
ATOM      9  C   UNL d   1      13.100  12.771  -3.821  0.00  0.00     0.087 A 
ATOM     10  C   UNL d   1      12.772  11.978  -3.877  0.00  0.00     0.021 C 
ENDROOT
BRANCH   4  11
ATOM     11  N   UNL d   1      13.146  14.640  -5.010  0.00  0.00    -0.380 NA
BRANCH  11  12
ATOM     12  C   UNL d   1      12.897  15.217  -5.595  0.00  0.00     0.164 C 
BRANCH  12  13
ATOM     13  C   UNL d   1      13.251  15.991  -5.620  0.00  0.00     0.054 C 
BRANCH  13  14
ATOM     14  C   UNL d   1      13.260  16.447  -6.347  0.00  0.00     0.083 C 
BRANCH  14  15
ATOM     15  N   UNL d   1      13.421  17.297  -6.314  0.00  0.00    -0.299 N 
ATOM     16  C   UNL d   1      14.239  17.577  -6.243  0.00  0.00     0.107 A 
ATOM     17  C   UNL d   1      14.393  18.420  -6.210  0.00  0.00     0.142 A 
ATOM     18  O   UNL d   1      13.748  18.982  -6.246  0.00  0.00    -0.300 OA
ATOM     19  C   UNL d   1      12.937  18.703  -6.317  0.00  0.00     0.142 A 
ATOM     20  C   UNL d   1      12.770  17.854  -6.351  0.00  0.00     0.107 A 
ENDBRANCH  14  15
ENDBRANCH  13  14
ENDBRANCH  12  13
ENDBRANCH  11  12
ENDBRANCH   4  11
BRANCH   3  21
ATOM     21  C   UNL d   1      14.427  13.421  -1.858  0.00  0.00     0.005 A 
ATOM     22  C   UNL d   1      14.378  13.662  -1.082  0.00  0.00     0.001 A 
ATOM     23  C   UNL d   1      14.507  13.129  -0.484  0.00  0.00     0.011 A 
ATOM     24  C   UNL d   1      14.688  12.346  -0.653  0.00  0.00     0.058 A 
ATOM     25  C   UNL d   1      14.738  12.105  -1.430  0.00  0.00     0.011 A 
ATOM     26 CL   UNL d   1      14.825  11.779  -0.018  0.00  0.00    -0.082 Cl
ATOM     27  C   UNL d   1      14.606  12.647  -2.037  0.00  0.00     0.001 A 
ENDBRANCH   3  21
TORSDOF 6
ENDMDL
