MODEL 1
REMARK VINA RESULT:       4.8      0.000      0.000
REMARK  2 active torsions:
REMARK  status: ('A' for Active; 'I' for Inactive)
REMARK    1  A    between atoms: C_6  and  C_1 
REMARK    2  A    between atoms: C_11  and  C_6 
ROOT
ATOM      1  C   UNL d   1      45.347 -13.067  44.068  0.00  0.00     0.059 A 
ATOM      2  C   UNL d   1      45.993 -12.853  44.531  0.00  0.00     0.085 A 
ATOM      3  N   UNL d   1      46.284 -13.510  44.945  0.00  0.00    -0.245 NA
ATOM      4  C   UNL d   1      45.224 -13.886  44.191  0.00  0.00     0.022 A 
ATOM      5  C   UNL d   1      45.795 -14.162  44.728  0.00  0.00     0.082 A 
ATOM      6  C   UNL d   1      46.268 -12.081  44.544  0.00  0.00     0.021 C 
ATOM      7  C   UNL d   1      44.665 -14.406  43.881  0.00  0.00     0.002 A 
ATOM      8  C   UNL d   1      45.808 -14.958  44.954  0.00  0.00     0.019 A 
ATOM      9  C   UNL d   1      44.689 -15.208  44.119  0.00  0.00     0.000 A 
ATOM     10  C   UNL d   1      45.242 -15.468  44.636  0.00  0.00     0.002 A 
ENDROOT
BRANCH   1  11
ATOM     11  C   UNL d   1      44.909 -12.561  43.577  0.00  0.00     0.208 C 
ATOM     12  O   UNL d   1      44.287 -12.118  43.873  0.00  0.00    -0.286 OA
BRANCH  11  13
ATOM     13  C   UNL d   1      45.100 -12.506  42.790  0.00  0.00     0.110 C 
ATOM     14 CL   UNL d   1      44.613 -12.095  42.295  0.00  0.00    -0.078 Cl
ENDBRANCH  11  13
ENDBRANCH   1  11
TORSDOF 2
ENDMDL
MODEL 2
REMARK VINA RESULT:       5.0      4.928      6.076
REMARK  2 active torsions:
REMARK  status: ('A' for Active; 'I' for Inactive)
REMARK    1  A    between atoms: C_6  and  C_1 
REMARK    2  A    between atoms: C_11  and  C_6 
ROOT
ATOM      1  C   UNL d   1      46.431 -19.028  43.662  0.00  0.00     0.059 A 
ATOM      2  C   UNL d   1      46.440 -19.807  43.926  0.00  0.00     0.085 A 
ATOM      3  N   UNL d   1      46.514 -20.330  43.285  0.00  0.00    -0.245 NA
ATOM      4  C   UNL d   1      46.501 -19.055  42.828  0.00  0.00     0.022 A 
ATOM      5  C   UNL d   1      46.552 -19.851  42.592  0.00  0.00     0.082 A 
ATOM      6  C   UNL d   1      46.381 -19.985  44.724  0.00  0.00     0.021 C 
ATOM      7  C   UNL d   1      46.523 -18.457  42.263  0.00  0.00     0.002 A 
ATOM      8  C   UNL d   1      46.625 -20.048  41.792  0.00  0.00     0.019 A 
ATOM      9  C   UNL d   1      46.598 -18.670  41.456  0.00  0.00     0.000 A 
ATOM     10  C   UNL d   1      46.647 -19.438  41.236  0.00  0.00     0.002 A 
ENDROOT
BRANCH   1  11
ATOM     11  C   UNL d   1      46.365 -18.352  44.138  0.00  0.00     0.208 C 
ATOM     12  O   UNL d   1      46.644 -18.348  44.908  0.00  0.00    -0.286 OA
BRANCH  11  13
ATOM     13  C   UNL d   1      46.017 -17.683  43.836  0.00  0.00     0.110 C 
ATOM     14 CL   UNL d   1      45.886 -17.054  44.324  0.00  0.00    -0.078 Cl
ENDBRANCH  11  13
ENDBRANCH   1  11
TORSDOF 2
ENDMDL
MODEL 3
REMARK VINA RESULT:       6.2      7.172      7.839
REMARK  2 active torsions:
REMARK  status: ('A' for Active; 'I' for Inactive)
REMARK    1  A    between atoms: C_6  and  C_1 
REMARK    2  A    between atoms: C_11  and  C_6 
ROOT
ATOM      1  C   UNL d   1      44.224 -15.578  36.850  0.00  0.00     0.059 A 
ATOM      2  C   UNL d   1      44.514 -16.268  36.508  0.00  0.00     0.085 A 
ATOM      3  N   UNL d   1      45.334 -16.211  36.389  0.00  0.00    -0.245 NA
ATOM      4  C   UNL d   1      44.879 -15.066  36.952  0.00  0.00     0.022 A 
ATOM      5  C   UNL d   1      45.561 -15.449  36.671  0.00  0.00     0.082 A 
ATOM      6  C   UNL d   1      44.016 -16.894  36.330  0.00  0.00     0.021 C 
ATOM      7  C   UNL d   1      44.934 -14.305  37.263  0.00  0.00     0.002 A 
ATOM      8  C   UNL d   1      46.298 -15.073  36.702  0.00  0.00     0.019 A 
ATOM      9  C   UNL d   1      45.685 -13.936  37.289  0.00  0.00     0.000 A 
ATOM     10  C   UNL d   1      46.337 -14.311  37.017  0.00  0.00     0.002 A 
ENDROOT
BRANCH   1  11
ATOM     11  C   UNL d   1      43.433 -15.427  37.051  0.00  0.00     0.208 C 
ATOM     12  O   UNL d   1      43.212 -15.298  37.829  0.00  0.00    -0.286 OA
BRANCH  11  13
ATOM     13  C   UNL d   1      42.870 -15.408  36.467  0.00  0.00     0.110 C 
ATOM     14 CL   UNL d   1      42.092 -15.351  36.673  0.00  0.00    -0.078 Cl
ENDBRANCH  11  13
ENDBRANCH   1  11
TORSDOF 2
ENDMDL
MODEL 4
REMARK VINA RESULT:       7.2      5.377      6.123
REMARK  2 active torsions:
REMARK  status: ('A' for Active; 'I' for Inactive)
REMARK    1  A    between atoms: C_6  and  C_1 
REMARK    2  A    between atoms: C_11  and  C_6 
ROOT
ATOM      1  C   UNL d   1      46.375 -19.101  42.293  0.00  0.00     0.059 A 
ATOM      2  C   UNL d   1      46.535 -19.891  42.130  0.00  0.00     0.085 A 
ATOM      3  N   UNL d   1      46.647 -20.316  42.835  0.00  0.00    -0.245 NA
ATOM      4  C   UNL d   1      46.386 -19.019  43.126  0.00  0.00     0.022 A 
ATOM      5  C   UNL d   1      46.552 -19.760  43.463  0.00  0.00     0.082 A 
ATOM      6  C   UNL d   1      46.567 -20.168  41.359  0.00  0.00     0.021 C 
ATOM      7  C   UNL d   1      46.266 -18.364  43.612  0.00  0.00     0.002 A 
ATOM      8  C   UNL d   1      46.598 -19.848  44.285  0.00  0.00     0.019 A 
ATOM      9  C   UNL d   1      46.315 -18.467  44.441  0.00  0.00     0.000 A 
ATOM     10  C   UNL d   1      46.475 -19.184  44.759  0.00  0.00     0.002 A 
ENDROOT
BRANCH   1  11
ATOM     11  C   UNL d   1      46.233 -18.506  41.732  0.00  0.00     0.208 C 
ATOM     12  O   UNL d   1      46.642 -17.796  41.754  0.00  0.00    -0.286 OA
BRANCH  11  13
ATOM     13  C   UNL d   1      45.679 -18.630  41.151  0.00  0.00     0.110 C 
ATOM     14 CL   UNL d   1      45.832 -18.375  40.401  0.00  0.00    -0.078 Cl
ENDBRANCH  11  13
ENDBRANCH   1  11
TORSDOF 2
ENDMDL
MODEL 5
REMARK VINA RESULT:       7.4      1.774      2.907
REMARK  2 active torsions:
REMARK  status: ('A' for Active; 'I' for Inactive)
REMARK    1  A    between atoms: C_6  and  C_1 
REMARK    2  A    between atoms: C_11  and  C_6 
ROOT
ATOM      1  C   UNL d   1      45.228 -13.936  44.358  0.00  0.00     0.059 A 
ATOM      2  C   UNL d   1      44.431 -14.118  44.454  0.00  0.00     0.085 A 
ATOM      3  N   UNL d   1      43.961 -13.618  43.987  0.00  0.00    -0.245 NA
ATOM      4  C   UNL d   1      45.267 -13.301  43.813  0.00  0.00     0.022 A 
ATOM      5  C   UNL d   1      44.493 -13.103  43.583  0.00  0.00     0.082 A 
ATOM      6  C   UNL d   1      44.191 -14.720  44.955  0.00  0.00     0.021 C 
ATOM      7  C   UNL d   1      45.907 -12.885  43.504  0.00  0.00     0.002 A 
ATOM      8  C   UNL d   1      44.359 -12.489  43.043  0.00  0.00     0.019 A 
ATOM      9  C   UNL d   1      45.758 -12.267  42.959  0.00  0.00     0.000 A 
ATOM     10  C   UNL d   1      45.010 -12.081  42.742  0.00  0.00     0.002 A 
ENDROOT
BRANCH   1  11
ATOM     11  C   UNL d   1      45.864 -14.314  44.733  0.00  0.00     0.208 C 
ATOM     12  O   UNL d   1      46.564 -13.916  44.883  0.00  0.00    -0.286 OA
BRANCH  11  13
ATOM     13  C   UNL d   1      45.791 -15.092  44.954  0.00  0.00     0.110 C 
ATOM     14 CL   UNL d   1      46.437 -15.574  44.917  0.00  0.00    -0.078 Cl
ENDBRANCH  11  13
ENDBRANCH   1  11
TORSDOF 2
ENDMDL
MODEL 6
REMARK VINA RESULT:       7.8      5.386      6.230
REMARK  2 active torsions:
REMARK  status: ('A' for Active; 'I' for Inactive)
REMARK    1  A    between atoms: C_6  and  C_1 
REMARK    2  A    between atoms: C_11  and  C_6 
ROOT
ATOM      1  C   UNL d   1      46.278 -18.995  43.121  0.00  0.00     0.059 A 
ATOM      2  C   UNL d   1      46.437 -18.251  43.434  0.00  0.00     0.085 A 
ATOM      3  N   UNL d   1      46.589 -17.706  42.826  0.00  0.00    -0.245 NA
ATOM      4  C   UNL d   1      46.330 -18.922  42.289  0.00  0.00     0.022 A 
ATOM      5  C   UNL d   1      46.520 -18.134  42.103  0.00  0.00     0.082 A 
ATOM      6  C   UNL d   1      46.432 -18.122  44.244  0.00  0.00     0.021 C 
ATOM      7  C   UNL d   1      46.228 -19.473  41.685  0.00  0.00     0.002 A 
ATOM      8  C   UNL d   1      46.608 -17.898  41.314  0.00  0.00     0.019 A 
ATOM      9  C   UNL d   1      46.320 -19.221  40.892  0.00  0.00     0.000 A 
ATOM     10  C   UNL d   1      46.503 -18.461  40.720  0.00  0.00     0.002 A 
ENDROOT
BRANCH   1  11
ATOM     11  C   UNL d   1      46.101 -19.680  43.555  0.00  0.00     0.208 C 
ATOM     12  O   UNL d   1      45.390 -20.073  43.452  0.00  0.00    -0.286 OA
BRANCH  11  13
ATOM     13  C   UNL d   1      46.641 -19.964  44.089  0.00  0.00     0.110 C 
ATOM     14 CL   UNL d   1      46.377 -20.315  44.766  0.00  0.00    -0.078 Cl
ENDBRANCH  11  13
ENDBRANCH   1  11
TORSDOF 2
ENDMDL
