MODEL 1
REMARK VINA RESULT:      -0.5      0.000      0.000
REMARK  7 active torsions:
REMARK  status: ('A' for Active; 'I' for Inactive)
REMARK    1  A    between atoms: C_13  and  C_4 
REMARK    2  A    between atoms: N_16  and  C_6 
REMARK    3  A    between atoms: C_17  and  C_9 
REMARK    4  A    between atoms: N_11  and  C_19 
REMARK    5  A    between atoms: C_21  and  N_16 
REMARK    6  A    between atoms: C_19  and  C_20 
REMARK    7  A    between atoms: C_20  and  C_21 
ROOT
ATOM      1  C   UNL d   1      32.801  21.594 -22.195  0.00  0.00     0.168 A 
ATOM      2  N   UNL d   1      32.953  20.890 -22.606  0.00  0.00    -0.184 N 
ATOM      3  N   UNL d   1      33.037  20.188 -21.375  0.00  0.00    -0.162 NA
ATOM      4  C   UNL d   1      32.768  21.588 -21.390  0.00  0.00     0.055 A 
ATOM      5  N   UNL d   1      32.685  22.286 -22.613  0.00  0.00    -0.227 NA
ATOM      6  C   UNL d   1      32.984  20.906 -23.421  0.00  0.00     0.218 A 
ATOM      7  C   UNL d   1      32.884  20.892 -20.963  0.00  0.00     0.104 A 
ATOM      8  C   UNL d   1      32.863  21.625 -23.843  0.00  0.00     0.071 A 
ATOM      9  C   UNL d   1      32.717  22.294 -23.423  0.00  0.00     0.087 A 
ATOM     10  C   UNL d   1      32.852  20.888 -20.162  0.00  0.00     0.023 C 
ENDROOT
BRANCH   6  11
ATOM     11  N   UNL d   1      33.140  20.187 -23.846  0.00  0.00    -0.380 NA
BRANCH  11  12
ATOM     12  C   UNL d   1      33.237  19.440 -24.238  0.00  0.00     0.164 C 
BRANCH  12  13
ATOM     13  C   UNL d   1      32.791  18.778 -23.978  0.00  0.00     0.054 C 
BRANCH  13  14
ATOM     14  C   UNL d   1      32.826  18.054 -24.412  0.00  0.00     0.084 C 
BRANCH  14  15
ATOM     15  N   UNL d   1      32.201  17.481 -24.335  0.00  0.00    -0.285 N 
ATOM     16  C   UNL d   1      31.898  17.166 -23.615  0.00  0.00     0.183 A 
ATOM     17  N   UNL d   1      31.278  16.613 -23.804  0.00  0.00    -0.222 NA
ATOM     18  C   UNL d   1      31.204  16.591 -24.648  0.00  0.00     0.120 A 
ATOM     19  C   UNL d   1      31.769  17.124 -24.975  0.00  0.00     0.102 A 
ENDBRANCH  14  15
ENDBRANCH  13  14
ENDBRANCH  12  13
ENDBRANCH  11  12
ENDBRANCH   6  11
BRANCH   9  20
ATOM     20  C   UNL d   1      32.594  23.025 -23.858  0.00  0.00     0.018 C 
ATOM     21  C   UNL d   1      33.240  23.595 -23.916  0.00  0.00     0.002 C 
ATOM     22  C   UNL d   1      31.839  23.186 -24.229  0.00  0.00     0.002 C 
ENDBRANCH   9  20
BRANCH   4  23
ATOM     23  C   UNL d   1      32.614  22.298 -20.974  0.00  0.00     0.004 A 
ATOM     24  C   UNL d   1      31.850  22.580 -20.921  0.00  0.00     0.000 A 
ATOM     25  C   UNL d   1      31.698  23.280 -20.512  0.00  0.00     0.000 A 
ATOM     26  C   UNL d   1      32.314  23.683 -20.164  0.00  0.00     0.000 A 
ATOM     27  C   UNL d   1      33.083  23.395 -20.220  0.00  0.00     0.000 A 
ATOM     28  C   UNL d   1      33.224  22.705 -20.625  0.00  0.00     0.000 A 
ENDBRANCH   4  23
TORSDOF 7
ENDMDL
MODEL 2
REMARK VINA RESULT:       1.2      0.834      2.245
REMARK  7 active torsions:
REMARK  status: ('A' for Active; 'I' for Inactive)
REMARK    1  A    between atoms: C_13  and  C_4 
REMARK    2  A    between atoms: N_16  and  C_6 
REMARK    3  A    between atoms: C_17  and  C_9 
REMARK    4  A    between atoms: N_11  and  C_19 
REMARK    5  A    between atoms: C_21  and  N_16 
REMARK    6  A    between atoms: C_19  and  C_20 
REMARK    7  A    between atoms: C_20  and  C_21 
ROOT
ATOM      1  C   UNL d   1      32.874  21.687 -22.019  0.00  0.00     0.168 A 
ATOM      2  N   UNL d   1      32.963  21.309 -22.751  0.00  0.00    -0.184 N 
ATOM      3  N   UNL d   1      32.719  22.538 -23.418  0.00  0.00    -0.162 NA
ATOM      4  C   UNL d   1      32.710  22.476 -21.993  0.00  0.00     0.055 A 
ATOM      5  N   UNL d   1      32.953  21.254 -21.331  0.00  0.00    -0.227 NA
ATOM      6  C   UNL d   1      33.129  20.510 -22.767  0.00  0.00     0.218 A 
ATOM      7  C   UNL d   1      32.630  22.917 -22.686  0.00  0.00     0.104 A 
ATOM      8  C   UNL d   1      33.208  20.072 -22.052  0.00  0.00     0.071 A 
ATOM      9  C   UNL d   1      33.117  20.461 -21.355  0.00  0.00     0.087 A 
ATOM     10  C   UNL d   1      32.467  23.702 -22.658  0.00  0.00     0.023 C 
ENDROOT
BRANCH   6  11
ATOM     11  N   UNL d   1      33.221  20.119 -23.516  0.00  0.00    -0.380 NA
BRANCH  11  12
ATOM     12  C   UNL d   1      33.241  19.717 -24.264  0.00  0.00     0.164 C 
BRANCH  12  13
ATOM     13  C   UNL d   1      32.622  19.185 -24.461  0.00  0.00     0.054 C 
BRANCH  13  14
ATOM     14  C   UNL d   1      32.809  18.437 -24.807  0.00  0.00     0.084 C 
BRANCH  14  15
ATOM     15  N   UNL d   1      32.273  17.781 -24.716  0.00  0.00    -0.285 N 
ATOM     16  C   UNL d   1      31.451  17.779 -24.896  0.00  0.00     0.183 A 
ATOM     17  N   UNL d   1      31.140  17.006 -24.719  0.00  0.00    -0.222 NA
ATOM     18  C   UNL d   1      31.780  16.533 -24.429  0.00  0.00     0.120 A 
ATOM     19  C   UNL d   1      32.476  17.007 -24.426  0.00  0.00     0.102 A 
ENDBRANCH  14  15
ENDBRANCH  13  14
ENDBRANCH  12  13
ENDBRANCH  11  12
ENDBRANCH   6  11
BRANCH   9  20
ATOM     20  C   UNL d   1      33.199  20.010 -20.627  0.00  0.00     0.018 C 
ATOM     21  C   UNL d   1      33.239  20.429 -19.874  0.00  0.00     0.002 C 
ATOM     22  C   UNL d   1      33.241  19.154 -20.651  0.00  0.00     0.002 C 
ENDBRANCH   9  20
BRANCH   4  23
ATOM     23  C   UNL d   1      32.620  22.859 -21.254  0.00  0.00     0.004 A 
ATOM     24  C   UNL d   1      33.228  23.313 -20.955  0.00  0.00     0.000 A 
ATOM     25  C   UNL d   1      33.139  23.690 -20.227  0.00  0.00     0.000 A 
ATOM     26  C   UNL d   1      32.444  23.604 -19.813  0.00  0.00     0.000 A 
ATOM     27  C   UNL d   1      31.832  23.145 -20.119  0.00  0.00     0.000 A 
ATOM     28  C   UNL d   1      31.928  22.777 -20.837  0.00  0.00     0.000 A 
ENDBRANCH   4  23
TORSDOF 7
ENDMDL
