MODEL 1
REMARK VINA RESULT:      -8.5      0.000      0.000
REMARK  6 active torsions:
REMARK  status: ('A' for Active; 'I' for Inactive)
REMARK    1  A    between atoms: C_3  and  N_1 
REMARK       I    between atoms: C_4  and  N_1 
REMARK    2  A    between atoms: C_6  and  N_1 
REMARK    3  A    between atoms: N_2  and  C_3 
REMARK    4  A    between atoms: C_7  and  C_4 
REMARK    5  A    between atoms: O_22  and  C_15 
REMARK    6  A    between atoms: C_24  and  O_22 
ROOT
ATOM      1  N   UNL d   1      52.593  33.572  53.574  0.00  0.00    -0.258 N 
ATOM      2  C   UNL d   1      52.307  34.278  53.248  0.00  0.00     0.266 C 
ATOM      3  O   UNL d   1      52.668  34.954  53.351  0.00  0.00    -0.267 OA
ENDROOT
BRANCH   1   4
ATOM      4  C   UNL d   1      52.194  32.859  53.453  0.00  0.00     0.171 C 
BRANCH   4   5
ATOM      5  N   UNL d   1      52.468  32.132  53.177  0.00  0.00    -0.257 N 
ATOM      6  C   UNL d   1      52.122  31.393  53.289  0.00  0.00     0.266 A 
ATOM      7  O   UNL d   1      51.420  31.246  53.709  0.00  0.00    -0.267 OA
ATOM      8  C   UNL d   1      52.592  30.818  52.912  0.00  0.00     0.063 A 
ATOM      9  C   UNL d   1      53.234  31.206  52.565  0.00  0.00     0.024 A 
ATOM     10  C   UNL d   1      53.167  32.015  52.722  0.00  0.00     0.085 A 
ENDBRANCH   4   5
ENDBRANCH   1   4
BRANCH   1  11
ATOM     11  C   UNL d   1      53.288  33.580  54.027  0.00  0.00     0.068 A 
ATOM     12  C   UNL d   1      54.027  33.666  53.656  0.00  0.00     0.018 A 
ATOM     13  C   UNL d   1      54.702  33.671  54.117  0.00  0.00     0.002 A 
ATOM     14  C   UNL d   1      54.660  33.593  54.927  0.00  0.00     0.000 A 
ATOM     15  C   UNL d   1      53.933  33.508  55.292  0.00  0.00     0.002 A 
ATOM     16  C   UNL d   1      55.347  33.600  55.384  0.00  0.00     0.000 C 
ATOM     17  C   UNL d   1      53.244  33.500  54.851  0.00  0.00     0.018 A 
ENDBRANCH   1  11
BRANCH   2  18
ATOM     18  C   UNL d   1      51.616  34.258  52.801  0.00  0.00     0.057 A 
ATOM     19  C   UNL d   1      51.665  34.252  51.980  0.00  0.00     0.007 A 
ATOM     20  C   UNL d   1      50.979  34.232  51.529  0.00  0.00     0.025 A 
ATOM     21  C   UNL d   1      50.236  34.217  51.906  0.00  0.00     0.100 A 
ATOM     22  C   UNL d   1      50.192  34.223  52.724  0.00  0.00     0.025 A 
ATOM     23  C   UNL d   1      50.881  34.244  53.188  0.00  0.00     0.007 A 
BRANCH  21  24
ATOM     24  O   UNL d   1      49.567  34.197  51.444  0.00  0.00    -0.305 OA
BRANCH  24  25
ATOM     25  C   UNL d   1      48.997  34.795  51.486  0.00  0.00     0.123 C 
ATOM     26  C   UNL d   1      48.360  34.792  50.968  0.00  0.00     0.029 C 
ENDBRANCH  24  25
ENDBRANCH  21  24
ENDBRANCH   2  18
TORSDOF 6
ENDMDL
MODEL 2
REMARK VINA RESULT:      -6.7      1.646      4.461
REMARK  6 active torsions:
REMARK  status: ('A' for Active; 'I' for Inactive)
REMARK    1  A    between atoms: C_3  and  N_1 
REMARK       I    between atoms: C_4  and  N_1 
REMARK    2  A    between atoms: C_6  and  N_1 
REMARK    3  A    between atoms: N_2  and  C_3 
REMARK    4  A    between atoms: C_7  and  C_4 
REMARK    5  A    between atoms: O_22  and  C_15 
REMARK    6  A    between atoms: C_24  and  O_22 
ROOT
ATOM      1  N   UNL d   1      52.603  32.291  53.420  0.00  0.00    -0.258 N 
ATOM      2  C   UNL d   1      52.403  31.588  53.029  0.00  0.00     0.266 C 
ATOM      3  O   UNL d   1      51.927  31.578  52.421  0.00  0.00    -0.267 OA
ENDROOT
BRANCH   1   4
ATOM      4  C   UNL d   1      53.114  32.283  54.069  0.00  0.00     0.171 C 
BRANCH   4   5
ATOM      5  N   UNL d   1      53.824  32.682  54.197  0.00  0.00    -0.257 N 
ATOM      6  C   UNL d   1      54.128  32.942  54.916  0.00  0.00     0.266 A 
ATOM      7  O   UNL d   1      53.765  32.846  55.658  0.00  0.00    -0.267 OA
ATOM      8  C   UNL d   1      54.859  33.317  54.778  0.00  0.00     0.063 A 
ATOM      9  C   UNL d   1      55.007  33.287  53.966  0.00  0.00     0.024 A 
ATOM     10  C   UNL d   1      54.376  32.898  53.599  0.00  0.00     0.085 A 
ENDBRANCH   4   5
ENDBRANCH   1   4
BRANCH   1  11
ATOM     11  C   UNL d   1      52.287  33.012  53.158  0.00  0.00     0.068 A 
ATOM     12  C   UNL d   1      52.559  33.353  52.450  0.00  0.00     0.018 A 
ATOM     13  C   UNL d   1      52.237  34.065  52.207  0.00  0.00     0.002 A 
ATOM     14  C   UNL d   1      51.660  34.438  52.644  0.00  0.00     0.000 A 
ATOM     15  C   UNL d   1      51.393  34.103  53.340  0.00  0.00     0.002 A 
ATOM     16  C   UNL d   1      51.342  35.156  52.390  0.00  0.00     0.000 C 
ATOM     17  C   UNL d   1      51.701  33.391  53.604  0.00  0.00     0.018 A 
ENDBRANCH   1  11
BRANCH   2  18
ATOM     18  C   UNL d   1      52.723  30.879  53.298  0.00  0.00     0.057 A 
ATOM     19  C   UNL d   1      52.382  30.500  53.944  0.00  0.00     0.007 A 
ATOM     20  C   UNL d   1      52.697  29.792  54.217  0.00  0.00     0.025 A 
ATOM     21  C   UNL d   1      53.361  29.462  53.837  0.00  0.00     0.100 A 
ATOM     22  C   UNL d   1      53.698  29.842  53.194  0.00  0.00     0.025 A 
ATOM     23  C   UNL d   1      53.385  30.559  52.913  0.00  0.00     0.007 A 
BRANCH  21  24
ATOM     24  O   UNL d   1      53.660  28.761  54.121  0.00  0.00    -0.305 OA
BRANCH  24  25
ATOM     25  C   UNL d   1      53.547  28.533  54.908  0.00  0.00     0.123 C 
ATOM     26  C   UNL d   1      53.795  27.791  55.160  0.00  0.00     0.029 C 
ENDBRANCH  24  25
ENDBRANCH  21  24
ENDBRANCH   2  18
TORSDOF 6
ENDMDL
MODEL 3
REMARK VINA RESULT:      -6.5      1.660      3.795
REMARK  6 active torsions:
REMARK  status: ('A' for Active; 'I' for Inactive)
REMARK    1  A    between atoms: C_3  and  N_1 
REMARK       I    between atoms: C_4  and  N_1 
REMARK    2  A    between atoms: C_6  and  N_1 
REMARK    3  A    between atoms: N_2  and  C_3 
REMARK    4  A    between atoms: C_7  and  C_4 
REMARK    5  A    between atoms: O_22  and  C_15 
REMARK    6  A    between atoms: C_24  and  O_22 
ROOT
ATOM      1  N   UNL d   1      53.121  33.484  54.091  0.00  0.00    -0.258 N 
ATOM      2  C   UNL d   1      53.775  32.989  54.209  0.00  0.00     0.266 C 
ATOM      3  O   UNL d   1      54.453  33.259  54.463  0.00  0.00    -0.267 OA
ENDROOT
BRANCH   1   4
ATOM      4  C   UNL d   1      52.403  33.179  53.819  0.00  0.00     0.171 C 
BRANCH   4   5
ATOM      5  N   UNL d   1      51.907  33.436  53.212  0.00  0.00    -0.257 N 
ATOM      6  C   UNL d   1      51.086  33.394  53.188  0.00  0.00     0.266 A 
ATOM      7  O   UNL d   1      50.598  33.078  53.783  0.00  0.00    -0.267 OA
ATOM      8  C   UNL d   1      50.822  33.720  52.468  0.00  0.00     0.063 A 
ATOM      9  C   UNL d   1      51.488  33.965  52.045  0.00  0.00     0.024 A 
ATOM     10  C   UNL d   1      52.161  33.794  52.494  0.00  0.00     0.085 A 
ENDBRANCH   4   5
ENDBRANCH   1   4
BRANCH   1  11
ATOM     11  C   UNL d   1      53.185  34.297  54.248  0.00  0.00     0.068 A 
ATOM     12  C   UNL d   1      53.554  34.799  53.699  0.00  0.00     0.018 A 
ATOM     13  C   UNL d   1      53.609  35.597  53.870  0.00  0.00     0.002 A 
ATOM     14  C   UNL d   1      53.310  35.902  54.563  0.00  0.00     0.000 A 
ATOM     15  C   UNL d   1      52.946  35.407  55.104  0.00  0.00     0.002 A 
ATOM     16  C   UNL d   1      53.370  36.709  54.726  0.00  0.00     0.000 C 
ATOM     17  C   UNL d   1      52.880  34.605  54.955  0.00  0.00     0.018 A 
ENDBRANCH   1  11
BRANCH   2  18
ATOM     18  C   UNL d   1      53.698  32.186  54.049  0.00  0.00     0.057 A 
ATOM     19  C   UNL d   1      53.366  31.690  54.615  0.00  0.00     0.007 A 
ATOM     20  C   UNL d   1      53.288  30.887  54.461  0.00  0.00     0.025 A 
ATOM     21  C   UNL d   1      53.545  30.579  53.731  0.00  0.00     0.100 A 
ATOM     22  C   UNL d   1      53.875  31.076  53.170  0.00  0.00     0.025 A 
ATOM     23  C   UNL d   1      53.958  31.889  53.318  0.00  0.00     0.007 A 
BRANCH  21  24
ATOM     24  O   UNL d   1      53.459  29.781  53.596  0.00  0.00    -0.305 OA
BRANCH  24  25
ATOM     25  C   UNL d   1      53.249  29.262  54.205  0.00  0.00     0.123 C 
ATOM     26  C   UNL d   1      53.446  28.467  54.151  0.00  0.00     0.029 C 
ENDBRANCH  24  25
ENDBRANCH  21  24
ENDBRANCH   2  18
TORSDOF 6
ENDMDL
MODEL 4
REMARK VINA RESULT:      -6.3      1.284      2.692
REMARK  6 active torsions:
REMARK  status: ('A' for Active; 'I' for Inactive)
REMARK    1  A    between atoms: C_3  and  N_1 
REMARK       I    between atoms: C_4  and  N_1 
REMARK    2  A    between atoms: C_6  and  N_1 
REMARK    3  A    between atoms: N_2  and  C_3 
REMARK    4  A    between atoms: C_7  and  C_4 
REMARK    5  A    between atoms: O_22  and  C_15 
REMARK    6  A    between atoms: C_24  and  O_22 
ROOT
ATOM      1  N   UNL d   1      52.718  31.982  53.518  0.00  0.00    -0.258 N 
ATOM      2  C   UNL d   1      52.090  32.065  52.983  0.00  0.00     0.266 C 
ATOM      3  O   UNL d   1      51.878  31.495  52.508  0.00  0.00    -0.267 OA
ENDROOT
BRANCH   1   4
ATOM      4  C   UNL d   1      52.932  32.603  54.019  0.00  0.00     0.171 C 
BRANCH   4   5
ATOM      5  N   UNL d   1      53.666  32.951  54.158  0.00  0.00    -0.257 N 
ATOM      6  C   UNL d   1      53.942  33.269  54.865  0.00  0.00     0.266 A 
ATOM      7  O   UNL d   1      53.520  33.296  55.582  0.00  0.00    -0.267 OA
ATOM      8  C   UNL d   1      54.714  33.559  54.746  0.00  0.00     0.063 A 
ATOM      9  C   UNL d   1      54.915  33.418  53.957  0.00  0.00     0.024 A 
ATOM     10  C   UNL d   1      54.277  33.045  53.587  0.00  0.00     0.085 A 
ENDBRANCH   4   5
ENDBRANCH   1   4
BRANCH   1  11
ATOM     11  C   UNL d   1      53.139  31.267  53.552  0.00  0.00     0.068 A 
ATOM     12  C   UNL d   1      53.661  31.062  52.938  0.00  0.00     0.018 A 
ATOM     13  C   UNL d   1      54.067  30.354  52.988  0.00  0.00     0.002 A 
ATOM     14  C   UNL d   1      53.968  29.854  53.622  0.00  0.00     0.000 A 
ATOM     15  C   UNL d   1      53.454  30.056  54.226  0.00  0.00     0.002 A 
ATOM     16  C   UNL d   1      54.383  29.141  53.663  0.00  0.00     0.000 C 
ATOM     17  C   UNL d   1      53.036  30.759  54.199  0.00  0.00     0.018 A 
ENDBRANCH   1  11
BRANCH   2  18
ATOM     18  C   UNL d   1      51.681  32.779  52.960  0.00  0.00     0.057 A 
ATOM     19  C   UNL d   1      51.081  32.920  53.503  0.00  0.00     0.007 A 
ATOM     20  C   UNL d   1      50.669  33.631  53.484  0.00  0.00     0.025 A 
ATOM     21  C   UNL d   1      50.863  34.206  52.913  0.00  0.00     0.100 A 
ATOM     22  C   UNL d   1      51.462  34.061  52.373  0.00  0.00     0.025 A 
ATOM     23  C   UNL d   1      51.883  33.345  52.386  0.00  0.00     0.007 A 
BRANCH  21  24
ATOM     24  O   UNL d   1      50.445  34.904  52.908  0.00  0.00    -0.305 OA
BRANCH  24  25
ATOM     25  C   UNL d   1      49.640  34.921  52.718  0.00  0.00     0.123 C 
ATOM     26  C   UNL d   1      49.174  35.549  52.968  0.00  0.00     0.029 C 
ENDBRANCH  24  25
ENDBRANCH  21  24
ENDBRANCH   2  18
TORSDOF 6
ENDMDL
