MODEL 1
REMARK VINA RESULT:      14.1      0.000      0.000
REMARK  8 active torsions:
REMARK  status: ('A' for Active; 'I' for Inactive)
REMARK    1  A    between atoms: N_5  and  C_1 
REMARK    2  A    between atoms: N_8  and  C_3 
REMARK    3  A    between atoms: C_17  and  N_8 
REMARK    4  A    between atoms: C_28  and  N_9 
REMARK    5  A    between atoms: C_10  and  C_17 
REMARK    6  A    between atoms: C_20  and  O_27 
REMARK    7  A    between atoms: O_27  and  C_29 
REMARK    8  A    between atoms: C_29  and  C_28 
ROOT
ATOM      1  C   UNL d   1     -41.679-122.195 -53.574  0.00  0.00     0.737 A 
ATOM      2  N   UNL d   1     -41.421-121.438 -53.681  0.00  0.00    -0.041 NA
ATOM      3  C   UNL d   1     -41.558-121.058 -54.371  0.00  0.00     0.182 A 
ATOM      4  N   UNL d   1     -42.077-122.571 -54.167  0.00  0.00    -0.060 NA
ATOM      5  C   UNL d   1     -41.954-121.430 -54.965  0.00  0.00     0.055 A 
ATOM      6  C   UNL d   1     -42.215-122.182 -54.867  0.00  0.00     0.103 A 
ATOM      7  C   UNL d   1     -42.090-121.045 -55.656  0.00  0.00     0.005 A 
ATOM      8  C   UNL d   1     -42.611-122.553 -55.462  0.00  0.00     0.020 A 
ATOM      9  C   UNL d   1     -42.481-121.412 -56.241  0.00  0.00     0.000 A 
ATOM     10  C   UNL d   1     -42.741-122.165 -56.144  0.00  0.00     0.002 A 
ENDROOT
BRANCH   1  11
ATOM     11  N   UNL d   1     -41.541-122.589 -52.868  0.00  0.00    -0.134 N 
ATOM     12  C   UNL d   1     -41.414-122.154 -52.165  0.00  0.00     0.117 A 
ATOM     13  C   UNL d   1     -41.275-122.552 -51.457  0.00  0.00     0.100 A 
ATOM     14  N   UNL d   1     -41.261-123.379 -51.436  0.00  0.00    -0.298 N 
ATOM     15  C   UNL d   1     -41.388-123.814 -52.139  0.00  0.00     0.100 A 
ATOM     16  C   UNL d   1     -41.527-123.412 -52.849  0.00  0.00     0.117 A 
BRANCH  14  17
ATOM     17  C   UNL d   1     -41.123-123.777 -50.727  0.00  0.00     0.107 C 
BRANCH  17  18
ATOM     18  C   UNL d   1     -41.629-123.672 -50.081  0.00  0.00     0.142 C 
BRANCH  18  19
ATOM     19  O   UNL d   1     -41.338-123.708 -49.301  0.00  0.00    -0.304 OA
BRANCH  19  20
ATOM     20  C   UNL d   1     -41.852-123.720 -48.659  0.00  0.00     0.100 A 
ATOM     21  C   UNL d   1     -41.552-123.804 -47.886  0.00  0.00     0.025 A 
ATOM     22  C   UNL d   1     -42.070-123.816 -47.245  0.00  0.00     0.002 A 
ATOM     23  C   UNL d   1     -42.894-123.745 -47.364  0.00  0.00     0.000 A 
ATOM     24  C   UNL d   1     -43.193-123.662 -48.137  0.00  0.00     0.002 A 
ATOM     25  C   UNL d   1     -43.414-123.758 -46.713  0.00  0.00     0.000 C 
ATOM     26  C   UNL d   1     -42.664-123.650 -48.786  0.00  0.00     0.025 A 
ENDBRANCH  19  20
ENDBRANCH  18  19
ENDBRANCH  17  18
ENDBRANCH  14  17
ENDBRANCH   1  11
BRANCH   3  27
ATOM     27  N   UNL d   1     -41.301-120.315 -54.467  0.00  0.00    -0.223 NA
BRANCH  27  28
ATOM     28  C   UNL d   1     -41.552-119.752 -54.008  0.00  0.00     0.125 C 
BRANCH  28  29
ATOM     29  C   UNL d   1     -41.402-118.969 -53.583  0.00  0.00     0.119 A 
ATOM     30  O   UNL d   1     -41.137-117.976 -53.721  0.00  0.00    -0.304 OA
ATOM     31  C   UNL d   1     -41.123-117.501 -52.753  0.00  0.00     0.123 A 
ATOM     32  C   UNL d   1     -41.352-118.268 -52.429  0.00  0.00     0.029 A 
ATOM     33  C   UNL d   1     -41.470-118.883 -52.763  0.00  0.00     0.028 A 
ENDBRANCH  28  29
ENDBRANCH  27  28
ENDBRANCH   3  27
TORSDOF 8
ENDMDL
