MODEL 1
REMARK VINA RESULT:      -3.4      0.000      0.000
REMARK  2 active torsions:
REMARK  status: ('A' for Active; 'I' for Inactive)
REMARK    1  A    between atoms: C_2  and  C_1 
REMARK    2  A    between atoms: C_6  and  C_2 
ROOT
ATOM      1  C   UNL d   1     -41.432-122.622 -52.488  0.00  0.00     0.059 A 
ATOM      2  C   UNL d   1     -41.623-123.010 -51.795  0.00  0.00     0.106 A 
ATOM      3  C   UNL d   1     -41.264-121.823 -52.489  0.00  0.00     0.011 A 
ATOM      4  C   UNL d   1     -41.648-122.603 -51.092  0.00  0.00     0.021 A 
ATOM      5  C   UNL d   1     -41.289-121.393 -51.762  0.00  0.00     0.035 A 
ATOM      6  N   UNL d   1     -41.788-123.817 -51.818  0.00  0.00    -0.148 N 
ATOM      7  C   UNL d   1     -41.480-121.795 -51.084  0.00  0.00     0.008 A 
ATOM      8 BR   UNL d   1     -41.123-120.595 -51.754  0.00  0.00    -0.049 Br
ENDROOT
BRANCH   1   9
ATOM      9  C   UNL d   1     -41.406-123.043 -53.205  0.00  0.00     0.197 C 
ATOM     10  O   UNL d   1     -41.124-123.816 -53.276  0.00  0.00    -0.286 OA
BRANCH   9  11
ATOM     11  C   UNL d   1     -41.679-122.664 -53.877  0.00  0.00     0.039 A 
ATOM     12  C   UNL d   1     -42.461-122.440 -53.938  0.00  0.00     0.003 A 
ATOM     13  C   UNL d   1     -42.741-122.055 -54.620  0.00  0.00     0.000 A 
ATOM     14  C   UNL d   1     -42.209-121.898 -55.249  0.00  0.00     0.000 A 
ATOM     15  C   UNL d   1     -41.413-122.126 -55.189  0.00  0.00     0.000 A 
ATOM     16  C   UNL d   1     -41.160-122.512 -54.490  0.00  0.00     0.003 A 
ENDBRANCH   9  11
ENDBRANCH   1   9
TORSDOF 2
ENDMDL
MODEL 2
REMARK VINA RESULT:      -3.2      1.806      2.611
REMARK  2 active torsions:
REMARK  status: ('A' for Active; 'I' for Inactive)
REMARK    1  A    between atoms: C_2  and  C_1 
REMARK    2  A    between atoms: C_6  and  C_2 
ROOT
ATOM      1  C   UNL d   1     -41.805-122.465 -50.541  0.00  0.00     0.059 A 
ATOM      2  C   UNL d   1     -42.577-122.320 -50.319  0.00  0.00     0.106 A 
ATOM      3  C   UNL d   1     -41.328-122.958 -50.099  0.00  0.00     0.011 A 
ATOM      4  C   UNL d   1     -42.883-122.667 -49.652  0.00  0.00     0.021 A 
ATOM      5  C   UNL d   1     -41.638-123.323 -49.404  0.00  0.00     0.035 A 
ATOM      6  N   UNL d   1     -43.041-121.818 -50.781  0.00  0.00    -0.148 N 
ATOM      7  C   UNL d   1     -42.408-123.167 -49.199  0.00  0.00     0.008 A 
ATOM      8 BR   UNL d   1     -41.169-123.817 -48.957  0.00  0.00    -0.049 Br
ENDROOT
BRANCH   1   9
ATOM      9  C   UNL d   1     -41.496-122.108 -51.226  0.00  0.00     0.197 C 
ATOM     10  O   UNL d   1     -41.235-121.325 -51.259  0.00  0.00    -0.286 OA
BRANCH   9  11
ATOM     11  C   UNL d   1     -41.450-122.563 -51.904  0.00  0.00     0.039 A 
ATOM     12  C   UNL d   1     -41.171-123.329 -51.870  0.00  0.00     0.003 A 
ATOM     13  C   UNL d   1     -41.123-123.795 -52.558  0.00  0.00     0.000 A 
ATOM     14  C   UNL d   1     -41.365-123.468 -53.292  0.00  0.00     0.000 A 
ATOM     15  C   UNL d   1     -41.648-122.688 -53.327  0.00  0.00     0.000 A 
ATOM     16  C   UNL d   1     -41.685-122.244 -52.619  0.00  0.00     0.003 A 
ENDBRANCH   9  11
ENDBRANCH   1   9
TORSDOF 2
ENDMDL
MODEL 3
REMARK VINA RESULT:      -3.0      1.939      3.720
REMARK  2 active torsions:
REMARK  status: ('A' for Active; 'I' for Inactive)
REMARK    1  A    between atoms: C_2  and  C_1 
REMARK    2  A    between atoms: C_6  and  C_2 
ROOT
ATOM      1  C   UNL d   1     -41.525-122.244 -51.333  0.00  0.00     0.059 A 
ATOM      2  C   UNL d   1     -41.625-121.597 -51.821  0.00  0.00     0.106 A 
ATOM      3  C   UNL d   1     -41.378-122.984 -51.645  0.00  0.00     0.011 A 
ATOM      4  C   UNL d   1     -41.580-121.681 -52.627  0.00  0.00     0.021 A 
ATOM      5  C   UNL d   1     -41.330-123.080 -52.483  0.00  0.00     0.035 A 
ATOM      6  N   UNL d   1     -41.772-120.858 -51.484  0.00  0.00    -0.148 N 
ATOM      7  C   UNL d   1     -41.432-122.426 -52.951  0.00  0.00     0.008 A 
ATOM      8 BR   UNL d   1     -41.185-123.816 -52.802  0.00  0.00    -0.049 Br
ENDROOT
BRANCH   1   9
ATOM      9  C   UNL d   1     -41.572-122.153 -50.508  0.00  0.00     0.197 C 
ATOM     10  O   UNL d   1     -41.123-121.609 -50.078  0.00  0.00    -0.286 OA
BRANCH   9  11
ATOM     11  C   UNL d   1     -42.095-122.634 -50.102  0.00  0.00     0.039 A 
ATOM     12  C   UNL d   1     -41.836-123.326 -49.754  0.00  0.00     0.003 A 
ATOM     13  C   UNL d   1     -42.366-123.817 -49.341  0.00  0.00     0.000 A 
ATOM     14  C   UNL d   1     -43.172-123.593 -49.284  0.00  0.00     0.000 A 
ATOM     15  C   UNL d   1     -43.436-122.890 -49.637  0.00  0.00     0.000 A 
ATOM     16  C   UNL d   1     -42.880-122.416 -50.046  0.00  0.00     0.003 A 
ENDBRANCH   9  11
ENDBRANCH   1   9
TORSDOF 2
ENDMDL
MODEL 4
REMARK VINA RESULT:      -3.0      1.664      3.195
REMARK  2 active torsions:
REMARK  status: ('A' for Active; 'I' for Inactive)
REMARK    1  A    between atoms: C_2  and  C_1 
REMARK    2  A    between atoms: C_6  and  C_2 
ROOT
ATOM      1  C   UNL d   1     -41.649-122.046 -53.158  0.00  0.00     0.059 A 
ATOM      2  C   UNL d   1     -42.156-121.669 -53.676  0.00  0.00     0.106 A 
ATOM      3  C   UNL d   1     -41.300-122.757 -53.356  0.00  0.00     0.011 A 
ATOM      4  C   UNL d   1     -42.321-122.000 -54.399  0.00  0.00     0.021 A 
ATOM      5  C   UNL d   1     -41.468-123.107 -54.106  0.00  0.00     0.035 A 
ATOM      6  N   UNL d   1     -42.496-120.951 -53.455  0.00  0.00    -0.148 N 
ATOM      7  C   UNL d   1     -41.974-122.719 -54.607  0.00  0.00     0.008 A 
ATOM      8 BR   UNL d   1     -41.124-123.817 -54.311  0.00  0.00    -0.049 Br
ENDROOT
BRANCH   1   9
ATOM      9  C   UNL d   1     -41.482-121.704 -52.418  0.00  0.00     0.197 C 
ATOM     10  O   UNL d   1     -41.123-120.966 -52.323  0.00  0.00    -0.286 OA
BRANCH   9  11
ATOM     11  C   UNL d   1     -41.687-122.127 -51.749  0.00  0.00     0.039 A 
ATOM     12  C   UNL d   1     -42.369-121.948 -51.339  0.00  0.00     0.003 A 
ATOM     13  C   UNL d   1     -42.581-122.376 -50.658  0.00  0.00     0.000 A 
ATOM     14  C   UNL d   1     -42.083-122.999 -50.395  0.00  0.00     0.000 A 
ATOM     15  C   UNL d   1     -41.389-123.182 -50.812  0.00  0.00     0.000 A 
ATOM     16  C   UNL d   1     -41.202-122.734 -51.493  0.00  0.00     0.003 A 
ENDBRANCH   9  11
ENDBRANCH   1   9
TORSDOF 2
ENDMDL
MODEL 5
REMARK VINA RESULT:      -2.6      2.787      3.878
REMARK  2 active torsions:
REMARK  status: ('A' for Active; 'I' for Inactive)
REMARK    1  A    between atoms: C_2  and  C_1 
REMARK    2  A    between atoms: C_6  and  C_2 
ROOT
ATOM      1  C   UNL d   1     -42.648-123.216 -49.114  0.00  0.00     0.059 A 
ATOM      2  C   UNL d   1     -43.164-122.736 -48.701  0.00  0.00     0.106 A 
ATOM      3  C   UNL d   1     -41.969-123.501 -48.762  0.00  0.00     0.011 A 
ATOM      4  C   UNL d   1     -43.007-122.535 -47.930  0.00  0.00     0.021 A 
ATOM      5  C   UNL d   1     -41.799-123.296 -47.960  0.00  0.00     0.035 A 
ATOM      6  N   UNL d   1     -43.844-122.460 -49.077  0.00  0.00    -0.148 N 
ATOM      7  C   UNL d   1     -42.323-122.819 -47.567  0.00  0.00     0.008 A 
ATOM      8 BR   UNL d   1     -41.123-123.577 -47.601  0.00  0.00    -0.049 Br
ENDROOT
BRANCH   1   9
ATOM      9  C   UNL d   1     -42.812-123.419 -49.904  0.00  0.00     0.197 C 
ATOM     10  O   UNL d   1     -43.504-123.799 -50.147  0.00  0.00    -0.286 OA
BRANCH   9  11
ATOM     11  C   UNL d   1     -42.252-123.229 -50.469  0.00  0.00     0.039 A 
ATOM     12  C   UNL d   1     -41.778-123.809 -50.794  0.00  0.00     0.003 A 
ATOM     13  C   UNL d   1     -41.208-123.619 -51.369  0.00  0.00     0.000 A 
ATOM     14  C   UNL d   1     -41.123-122.821 -51.614  0.00  0.00     0.000 A 
ATOM     15  C   UNL d   1     -41.604-122.231 -51.283  0.00  0.00     0.000 A 
ATOM     16  C   UNL d   1     -42.169-122.451 -50.707  0.00  0.00     0.003 A 
ENDBRANCH   9  11
ENDBRANCH   1   9
TORSDOF 2
ENDMDL
MODEL 6
REMARK VINA RESULT:      -1.1      1.109      2.888
REMARK  2 active torsions:
REMARK  status: ('A' for Active; 'I' for Inactive)
REMARK    1  A    between atoms: C_2  and  C_1 
REMARK    2  A    between atoms: C_6  and  C_2 
ROOT
ATOM      1  C   UNL d   1     -41.670-122.666 -53.461  0.00  0.00     0.059 A 
ATOM      2  C   UNL d   1     -41.499-123.084 -54.140  0.00  0.00     0.106 A 
ATOM      3  C   UNL d   1     -42.040-121.939 -53.499  0.00  0.00     0.011 A 
ATOM      4  C   UNL d   1     -41.695-122.782 -54.868  0.00  0.00     0.021 A 
ATOM      5  C   UNL d   1     -42.247-121.617 -54.252  0.00  0.00     0.035 A 
ATOM      6  N   UNL d   1     -41.124-123.817 -54.078  0.00  0.00    -0.148 N 
ATOM      7  C   UNL d   1     -42.069-122.048 -54.915  0.00  0.00     0.008 A 
ATOM      8 BR   UNL d   1     -42.617-120.892 -54.299  0.00  0.00    -0.049 Br
ENDROOT
BRANCH   1   9
ATOM      9  C   UNL d   1     -41.467-122.979 -52.717  0.00  0.00     0.197 C 
ATOM     10  O   UNL d   1     -41.128-123.725 -52.609  0.00  0.00    -0.286 OA
BRANCH   9  11
ATOM     11  C   UNL d   1     -41.614-122.518 -52.057  0.00  0.00     0.039 A 
ATOM     12  C   UNL d   1     -41.133-121.884 -51.880  0.00  0.00     0.003 A 
ATOM     13  C   UNL d   1     -41.279-121.413 -51.210  0.00  0.00     0.000 A 
ATOM     14  C   UNL d   1     -41.931-121.598 -50.715  0.00  0.00     0.000 A 
ATOM     15  C   UNL d   1     -42.422-122.243 -50.895  0.00  0.00     0.000 A 
ATOM     16  C   UNL d   1     -42.249-122.698 -51.575  0.00  0.00     0.003 A 
ENDBRANCH   9  11
ENDBRANCH   1   9
TORSDOF 2
ENDMDL
