MODEL 1
REMARK VINA RESULT:      69.3      0.000      0.000
REMARK  8 active torsions:
REMARK  status: ('A' for Active; 'I' for Inactive)
REMARK    1  A    between atoms: N_5  and  S_1 
REMARK    2  A    between atoms: C_8  and  S_1 
REMARK    3  A    between atoms: C_2  and  N_10 
REMARK    4  A    between atoms: C_9  and  N_5 
REMARK    5  A    between atoms: C_13  and  C_9 
REMARK    6  A    between atoms: N_10  and  O_14 
REMARK    7  A    between atoms: C_17  and  C_13 
REMARK    8  A    between atoms: O_14  and  C_17 
ROOT
ATOM      1  C   UNL d   1      14.909  16.846  -1.540  0.00  0.00     0.193 C 
ENDROOT
BRANCH   1   2
ATOM      2  O   UNL d   1      14.433  16.479  -2.107  0.00  0.00    -0.206 OA
BRANCH   2   3
ATOM      3  N   UNL d   1      14.251  16.874  -2.815  0.00  0.00    -0.126 NA
BRANCH   3   4
ATOM      4  C   UNL d   1      14.367  16.496  -3.541  0.00  0.00     0.108 A 
ATOM      5  C   UNL d   1      14.134  15.722  -3.734  0.00  0.00     0.020 A 
ATOM      6  C   UNL d   1      14.363  15.580  -4.512  0.00  0.00     0.002 A 
ATOM      7  C   UNL d   1      13.749  15.148  -3.297  0.00  0.00     0.002 A 
ATOM      8  C   UNL d   1      14.199  14.843  -4.857  0.00  0.00     0.000 A 
ATOM      9  C   UNL d   1      14.732  16.248  -4.806  0.00  0.00     0.002 A 
ATOM     10  C   UNL d   1      13.812  14.264  -4.419  0.00  0.00     0.000 A 
ATOM     11  C   UNL d   1      13.584  14.413  -3.635  0.00  0.00     0.000 A 
ATOM     12  C   UNL d   1      14.739  16.820  -4.208  0.00  0.00     0.020 A 
ATOM     13  C   UNL d   1      15.066  16.420  -5.536  0.00  0.00     0.000 A 
ATOM     14  C   UNL d   1      15.076  17.558  -4.339  0.00  0.00     0.002 A 
ATOM     15  C   UNL d   1      15.413  17.729  -5.078  0.00  0.00     0.000 A 
ATOM     16  C   UNL d   1      15.405  17.156  -5.674  0.00  0.00     0.000 A 
ENDBRANCH   3   4
ENDBRANCH   2   3
ENDBRANCH   1   2
BRANCH   1  17
ATOM     17  C   UNL d   1      14.897  16.585  -0.761  0.00  0.00     0.240 C 
ATOM     18  O   UNL d   1      14.804  17.126  -0.145  0.00  0.00    -0.283 OA
BRANCH  17  19
ATOM     19  C   UNL d   1      14.928  16.014  -0.160  0.00  0.00     0.136 C 
BRANCH  19  20
ATOM     20  N   UNL d   1      15.558  15.475  -0.149  0.00  0.00    -0.225 N 
ATOM     21  C   UNL d   1      16.372  15.581  -0.150  0.00  0.00     0.111 C 
BRANCH  20  22
ATOM     22  S   UNL d   1      15.406  14.662  -0.135  0.00  0.00     0.272 S 
ATOM     23  O   UNL d   1      16.229  14.686  -0.019  0.00  0.00    -0.200 OA
ATOM     24  O   UNL d   1      14.622  14.428  -0.237  0.00  0.00    -0.200 OA
BRANCH  22  25
ATOM     25  C   UNL d   1      15.011  13.938  -0.160  0.00  0.00     0.104 A 
ATOM     26  C   UNL d   1      15.436  13.243  -0.296  0.00  0.00     0.013 A 
ATOM     27  C   UNL d   1      15.044  12.522  -0.320  0.00  0.00     0.007 A 
ATOM     28  C   UNL d   1      14.221  12.492  -0.208  0.00  0.00     0.035 A 
ATOM     29  C   UNL d   1      13.840  13.220  -0.075  0.00  0.00     0.007 A 
ATOM     30 BR   UNL d   1      13.807  11.781  -0.229  0.00  0.00    -0.049 Br
ATOM     31  C   UNL d   1      14.199  13.961  -0.043  0.00  0.00     0.013 A 
ENDBRANCH  22  25
ENDBRANCH  20  22
ENDBRANCH  19  20
ENDBRANCH  17  19
ENDBRANCH   1  17
TORSDOF 8
ENDMDL
