MODEL 1
REMARK VINA RESULT:       2.3      0.000      0.000
REMARK  5 active torsions:
REMARK  status: ('A' for Active; 'I' for Inactive)
REMARK    1  A    between atoms: C_13  and  N_2 
REMARK    2  A    between atoms: C_10  and  N_4 
REMARK    3  A    between atoms: C_11  and  C_10 
REMARK       I    between atoms: N_15  and  C_11 
REMARK    4  A    between atoms: C_16  and  N_15 
REMARK    5  A    between atoms: O_21  and  C_19 
ROOT
ATOM      1  C   UNL d   1      32.321  23.006 -22.419  0.00  0.00     0.172 A 
ATOM      2  N   UNL d   1      32.617  22.309 -21.196  0.00  0.00    -0.226 N 
ATOM      3  C   UNL d   1      32.929  21.671 -21.655  0.00  0.00     0.342 A 
ATOM      4  N   UNL d   1      32.929  21.715 -22.471  0.00  0.00    -0.252 N 
ATOM      5  C   UNL d   1      32.629  22.375 -22.853  0.00  0.00     0.098 A 
ATOM      6  C   UNL d   1      32.317  22.969 -21.587  0.00  0.00     0.292 A 
ATOM      7  O   UNL d   1      32.061  23.588 -22.935  0.00  0.00    -0.301 OA
ATOM      8  C   UNL d   1      32.548  22.591 -23.641  0.00  0.00     0.041 A 
ATOM      9  C   UNL d   1      32.201  23.332 -23.676  0.00  0.00     0.102 A 
ATOM     10  O   UNL d   1      33.240  20.989 -21.273  0.00  0.00    -0.245 OA
ATOM     11  O   UNL d   1      32.006  23.606 -21.144  0.00  0.00    -0.264 OA
ATOM     12  C   UNL d   1      32.754  22.192 -24.342  0.00  0.00     0.004 A 
ATOM     13  C   UNL d   1      32.053  23.687 -24.410  0.00  0.00     0.025 A 
ATOM     14  C   UNL d   1      32.606  22.548 -25.078  0.00  0.00     0.000 A 
ATOM     15  C   UNL d   1      32.258  23.288 -25.096  0.00  0.00     0.002 A 
ENDROOT
BRANCH   4  16
ATOM     16  C   UNL d   1      33.241  21.079 -22.929  0.00  0.00     0.147 C 
BRANCH  16  17
ATOM     17  C   UNL d   1      32.823  20.339 -22.949  0.00  0.00     0.297 C 
ATOM     18  N   UNL d   1      33.040  19.768 -23.482  0.00  0.00    -0.207 NA
ATOM     19  O   UNL d   1      32.200  20.218 -22.421  0.00  0.00    -0.264 OA
BRANCH  18  20
ATOM     20  C   UNL d   1      32.639  19.062 -23.499  0.00  0.00     0.087 A 
ATOM     21  C   UNL d   1      32.948  18.408 -23.084  0.00  0.00     0.043 A 
ATOM     22  C   UNL d   1      32.545  17.686 -23.097  0.00  0.00     0.096 A 
ATOM     23  C   UNL d   1      31.833  17.617 -23.526  0.00  0.00     0.024 A 
ATOM     24  C   UNL d   1      31.531  18.270 -23.936  0.00  0.00     0.004 A 
ATOM     25  C   UNL d   1      31.933  18.985 -23.921  0.00  0.00     0.019 A 
BRANCH  22  26
ATOM     26  O   UNL d   1      32.846  17.024 -22.683  0.00  0.00    -0.328 OA
ATOM     27  C   UNL d   1      32.801  16.274 -23.023  0.00  0.00     0.181 C 
ENDBRANCH  22  26
ENDBRANCH  18  20
ENDBRANCH  16  17
ENDBRANCH   4  16
BRANCH   2  28
ATOM     28  C   UNL d   1      32.610  22.278 -20.363  0.00  0.00     0.071 A 
ATOM     29  C   UNL d   1      33.239  22.592 -19.933  0.00  0.00     0.018 A 
ATOM     30  C   UNL d   1      33.224  22.558 -19.101  0.00  0.00     0.002 A 
ATOM     31  C   UNL d   1      32.594  22.217 -18.722  0.00  0.00     0.000 A 
ATOM     32  C   UNL d   1      31.965  21.903 -19.151  0.00  0.00     0.002 A 
ATOM     33  C   UNL d   1      31.980  21.937 -19.967  0.00  0.00     0.018 A 
ENDBRANCH   2  28
TORSDOF 5
ENDMDL
MODEL 2
REMARK VINA RESULT:       3.1      1.134      3.236
REMARK  5 active torsions:
REMARK  status: ('A' for Active; 'I' for Inactive)
REMARK    1  A    between atoms: C_13  and  N_2 
REMARK    2  A    between atoms: C_10  and  N_4 
REMARK    3  A    between atoms: C_11  and  C_10 
REMARK       I    between atoms: N_15  and  C_11 
REMARK    4  A    between atoms: C_16  and  N_15 
REMARK    5  A    between atoms: O_21  and  C_19 
ROOT
ATOM      1  C   UNL d   1      32.739  21.855 -21.671  0.00  0.00     0.172 A 
ATOM      2  N   UNL d   1      32.707  22.109 -23.087  0.00  0.00    -0.226 N 
ATOM      3  C   UNL d   1      32.915  21.300 -23.219  0.00  0.00     0.342 A 
ATOM      4  N   UNL d   1      33.028  20.796 -22.586  0.00  0.00    -0.252 N 
ATOM      5  C   UNL d   1      32.941  21.068 -21.817  0.00  0.00     0.098 A 
ATOM      6  C   UNL d   1      32.622  22.375 -22.312  0.00  0.00     0.292 A 
ATOM      7  O   UNL d   1      32.690  21.976 -20.862  0.00  0.00    -0.301 OA
ATOM      8  C   UNL d   1      33.013  20.720 -21.077  0.00  0.00     0.041 A 
ATOM      9  C   UNL d   1      32.857  21.284 -20.505  0.00  0.00     0.102 A 
ATOM     10  O   UNL d   1      33.006  21.010 -24.005  0.00  0.00    -0.245 OA
ATOM     11  O   UNL d   1      32.417  23.172 -22.168  0.00  0.00    -0.264 OA
ATOM     12  C   UNL d   1      33.205  19.940 -20.855  0.00  0.00     0.004 A 
ATOM     13  C   UNL d   1      32.890  21.081 -19.702  0.00  0.00     0.025 A 
ATOM     14  C   UNL d   1      33.238  19.737 -20.050  0.00  0.00     0.000 A 
ATOM     15  C   UNL d   1      33.080  20.312 -19.491  0.00  0.00     0.002 A 
ENDROOT
BRANCH   4  16
ATOM     16  C   UNL d   1      33.235  19.989 -22.718  0.00  0.00     0.147 C 
BRANCH  16  17
ATOM     17  C   UNL d   1      32.656  19.462 -23.048  0.00  0.00     0.297 C 
ATOM     18  N   UNL d   1      32.897  18.827 -23.492  0.00  0.00    -0.207 NA
ATOM     19  O   UNL d   1      31.856  19.608 -22.909  0.00  0.00    -0.264 OA
BRANCH  18  20
ATOM     20  C   UNL d   1      32.342  18.324 -23.807  0.00  0.00     0.087 A 
ATOM     21  C   UNL d   1      32.115  17.648 -23.376  0.00  0.00     0.043 A 
ATOM     22  C   UNL d   1      31.550  17.131 -23.690  0.00  0.00     0.096 A 
ATOM     23  C   UNL d   1      31.213  17.291 -24.436  0.00  0.00     0.024 A 
ATOM     24  C   UNL d   1      31.444  17.965 -24.860  0.00  0.00     0.004 A 
ATOM     25  C   UNL d   1      32.003  18.475 -24.545  0.00  0.00     0.019 A 
BRANCH  22  26
ATOM     26  O   UNL d   1      31.315  16.450 -23.266  0.00  0.00    -0.328 OA
ATOM     27  C   UNL d   1      30.672  16.007 -23.527  0.00  0.00     0.181 C 
ENDBRANCH  22  26
ENDBRANCH  18  20
ENDBRANCH  16  17
ENDBRANCH   4  16
BRANCH   2  28
ATOM     28  C   UNL d   1      32.589  22.634 -23.723  0.00  0.00     0.071 A 
ATOM     29  C   UNL d   1      33.237  22.957 -24.117  0.00  0.00     0.018 A 
ATOM     30  C   UNL d   1      33.109  23.481 -24.752  0.00  0.00     0.002 A 
ATOM     31  C   UNL d   1      32.354  23.668 -24.977  0.00  0.00     0.000 A 
ATOM     32  C   UNL d   1      31.706  23.345 -24.584  0.00  0.00     0.002 A 
ATOM     33  C   UNL d   1      31.831  22.831 -23.961  0.00  0.00     0.018 A 
ENDBRANCH   2  28
TORSDOF 5
ENDMDL
