MODEL 1
REMARK VINA RESULT:      71.2      0.000      0.000
REMARK  5 active torsions:
REMARK  status: ('A' for Active; 'I' for Inactive)
REMARK    1  A    between atoms: C_10  and  C_3 
REMARK    2  A    between atoms: S_11  and  C_4 
REMARK    3  A    between atoms: C_17  and  S_11 
REMARK    4  A    between atoms: C_13  and  C_17 
REMARK       I    between atoms: N_14  and  C_13 
REMARK    5  A    between atoms: C_15  and  N_14 
ROOT
ATOM      1  C   UNL d   1     -51.341  26.168  33.360  0.00  0.00     0.150 A 
ATOM      2  N   UNL d   1     -50.526  26.318  33.401  0.00  0.00    -0.285 N 
ATOM      3  C   UNL d   1     -51.865  26.789  33.350  0.00  0.00     0.056 A 
ATOM      4  C   UNL d   1     -50.262  27.084  33.431  0.00  0.00     0.096 A 
ATOM      5  N   UNL d   1     -51.617  25.396  33.329  0.00  0.00    -0.227 NA
ATOM      6  C   UNL d   1     -51.589  27.566  33.381  0.00  0.00     0.006 A 
ATOM      7  C   UNL d   1     -50.786  27.705  33.421  0.00  0.00     0.025 A 
ATOM      8  C   UNL d   1     -50.277  24.916  33.379  0.00  0.00     0.084 A 
ATOM      9  C   UNL d   1     -51.092  24.766  33.338  0.00  0.00     0.099 A 
ATOM     10  C   UNL d   1     -52.112  28.179  33.371  0.00  0.00     0.000 C 
ATOM     11  C   UNL d   1     -49.753  24.294  33.389  0.00  0.00     0.019 A 
ATOM     12  C   UNL d   1     -51.356  24.000  33.308  0.00  0.00     0.021 A 
ATOM     13  C   UNL d   1     -50.030  23.525  33.358  0.00  0.00     0.002 A 
ATOM     14  C   UNL d   1     -50.832  23.378  33.318  0.00  0.00     0.002 A 
ENDROOT
BRANCH   4  15
ATOM     15  S   UNL d   1     -49.431  27.236  33.473  0.00  0.00    -0.064 SA
BRANCH  15  16
ATOM     16  C   UNL d   1     -48.687  27.029  33.831  0.00  0.00     0.099 C 
BRANCH  16  17
ATOM     17  C   UNL d   1     -48.270  27.596  34.296  0.00  0.00     0.286 C 
ATOM     18  N   UNL d   1     -48.699  28.197  34.718  0.00  0.00    -0.208 NA
ATOM     19  O   UNL d   1     -47.419  27.572  34.346  0.00  0.00    -0.265 OA
BRANCH  18  20
ATOM     20  C   UNL d   1     -48.277  28.774  35.191  0.00  0.00     0.085 A 
ATOM     21  C   UNL d   1     -47.925  29.439  34.817  0.00  0.00     0.019 A 
ATOM     22  C   UNL d   1     -47.508  30.010  35.284  0.00  0.00     0.002 A 
ATOM     23  C   UNL d   1     -47.151  30.682  34.912  0.00  0.00     0.000 C 
ATOM     24  C   UNL d   1     -47.440  29.918  36.131  0.00  0.00     0.000 A 
ATOM     25  C   UNL d   1     -47.805  29.237  36.493  0.00  0.00     0.002 A 
ATOM     26  C   UNL d   1     -48.222  28.666  36.025  0.00  0.00     0.019 A 
ENDBRANCH  18  20
ENDBRANCH  16  17
ENDBRANCH  15  16
ENDBRANCH   4  15
BRANCH   3  27
ATOM     27  C   UNL d   1     -52.668  26.650  33.310  0.00  0.00     0.125 C 
ATOM     28  N   UNL d   1     -52.979  26.112  33.839  0.00  0.00    -0.146 N 
ENDBRANCH   3  27
TORSDOF 5
ENDMDL
