MODEL 1
REMARK VINA RESULT:      71.3      0.000      0.000
REMARK  3 active torsions:
REMARK  status: ('A' for Active; 'I' for Inactive)
REMARK    1  A    between atoms: C_2  and  C_3 
REMARK    2  A    between atoms: C_5  and  C_2 
REMARK    3  A    between atoms: C_3  and  C_6 
ROOT
ATOM      1  N   UNL d   1     -56.338-100.243 -44.858  0.00  0.00    -0.246 NA
ATOM      2  C   UNL d   1     -55.808-100.839 -44.651  0.00  0.00     0.081 A 
ATOM      3  C   UNL d   1     -56.281 -99.503 -44.466  0.00  0.00     0.081 A 
ATOM      4  C   UNL d   1     -55.231-100.702 -44.063  0.00  0.00     0.018 A 
ATOM      5  C   UNL d   1     -55.200 -99.974 -43.701  0.00  0.00     0.003 A 
ATOM      6  C   UNL d   1     -55.732 -99.373 -43.907  0.00  0.00     0.019 A 
ATOM      7  C   UNL d   1     -55.850-101.576 -45.029  0.00  0.00     0.019 A 
ATOM      8  C   UNL d   1     -54.712-101.307 -43.871  0.00  0.00     0.002 A 
ATOM      9  C   UNL d   1     -55.307-102.164 -44.806  0.00  0.00     0.002 A 
ATOM     10  C   UNL d   1     -54.758-102.034 -44.247  0.00  0.00     0.000 A 
ENDROOT
BRANCH   3  11
ATOM     11  C   UNL d   1     -56.803 -98.879 -44.652  0.00  0.00     0.019 C 
BRANCH  11  12
ATOM     12  C   UNL d   1     -57.485 -98.756 -44.220  0.00  0.00     0.005 C 
BRANCH  12  13
ATOM     13  C   UNL d   1     -58.220 -98.824 -44.587  0.00  0.00     0.039 A 
ATOM     14  C   UNL d   1     -58.886 -98.963 -44.144  0.00  0.00     0.196 A 
ATOM     15  O   UNL d   1     -58.852 -99.040 -43.299  0.00  0.00    -0.287 OA
ATOM     16  C   UNL d   1     -59.622 -99.032 -44.511  0.00  0.00     0.042 A 
ATOM     17  C   UNL d   1     -59.668 -98.958 -45.339  0.00  0.00     0.003 A 
ATOM     18  C   UNL d   1     -59.026 -98.824 -45.771  0.00  0.00     0.000 A 
ATOM     19  C   UNL d   1     -58.290 -98.755 -45.404  0.00  0.00     0.003 A 
ENDBRANCH  12  13
ENDBRANCH  11  12
ENDBRANCH   3  11
TORSDOF 3
ENDMDL
