MODEL 1
REMARK VINA RESULT:      -8.5      0.000      0.000
REMARK  2 active torsions:
REMARK  status: ('A' for Active; 'I' for Inactive)
REMARK    1  A    between atoms: C_6  and  C_1 
REMARK       I    between atoms: N_11  and  C_6 
REMARK    2  A    between atoms: C_13  and  N_11 
ROOT
ATOM      1  C   UNL d   1     -46.928  13.081  23.125  0.00  0.00     0.108 A 
ATOM      2  C   UNL d   1     -45.778  12.460  22.943  0.00  0.00     0.044 A 
ATOM      3  C   UNL d   1     -46.251  11.968  23.404  0.00  0.00     0.112 A 
ATOM      4  S   UNL d   1     -46.967  12.358  23.516  0.00  0.00    -0.061 SA
ATOM      5  C   UNL d   1     -46.185  13.127  22.776  0.00  0.00     0.116 A 
ATOM      6  N   UNL d   1     -45.971  11.229  23.664  0.00  0.00    -0.239 NA
ATOM      7  C   UNL d   1     -44.735  11.497  22.985  0.00  0.00     0.057 A 
ATOM      8  C   UNL d   1     -45.014  12.224  22.731  0.00  0.00     0.008 A 
ATOM      9  C   UNL d   1     -45.208  11.005  23.446  0.00  0.00     0.085 A 
ATOM     10  C   UNL d   1     -43.974  11.258  22.776  0.00  0.00     0.197 A 
ATOM     11  N   UNL d   1     -45.750  13.802  22.236  0.00  0.00    -0.147 N 
ATOM     12  O   UNL d   1     -43.407  11.870  22.211  0.00  0.00    -0.286 OA
ATOM     13  C   UNL d   1     -44.919  10.275  23.698  0.00  0.00     0.019 A 
ATOM     14  C   UNL d   1     -43.693  10.534  23.027  0.00  0.00     0.042 A 
ATOM     15  C   UNL d   1     -44.166  10.042  23.489  0.00  0.00     0.005 A 
ENDROOT
BRANCH   1  16
ATOM     16  C   UNL d   1     -47.611  13.781  23.061  0.00  0.00     0.287 C 
ATOM     17  N   UNL d   1     -48.541  13.956  22.826  0.00  0.00    -0.205 NA
ATOM     18  O   UNL d   1     -47.227  14.452  23.299  0.00  0.00    -0.265 OA
BRANCH  17  19
ATOM     19  C   UNL d   1     -49.061  13.315  22.554  0.00  0.00     0.112 A 
ATOM     20  C   UNL d   1     -49.186  13.194  21.704  0.00  0.00     0.158 A 
ATOM     21  F   UNL d   1     -48.857  13.648  20.743  0.00  0.00    -0.203 F 
ATOM     22  C   UNL d   1     -49.719  12.537  21.429  0.00  0.00     0.031 A 
ATOM     23  C   UNL d   1     -50.113  12.017  22.015  0.00  0.00     0.002 A 
ATOM     24  C   UNL d   1     -49.979  12.149  22.871  0.00  0.00     0.002 A 
ATOM     25  C   UNL d   1     -49.455  12.794  23.156  0.00  0.00     0.021 A 
ENDBRANCH  17  19
ENDBRANCH   1  16
TORSDOF 2
ENDMDL
MODEL 2
REMARK VINA RESULT:      -6.2      7.683      9.335
REMARK  2 active torsions:
REMARK  status: ('A' for Active; 'I' for Inactive)
REMARK    1  A    between atoms: C_6  and  C_1 
REMARK       I    between atoms: N_11  and  C_6 
REMARK    2  A    between atoms: C_13  and  N_11 
ROOT
ATOM      1  C   UNL d   1     -38.630  15.146  19.546  0.00  0.00     0.108 A 
ATOM      2  C   UNL d   1     -38.434  14.448  18.443  0.00  0.00     0.044 A 
ATOM      3  C   UNL d   1     -38.612  15.220  18.216  0.00  0.00     0.112 A 
ATOM      4  S   UNL d   1     -38.733  15.652  18.905  0.00  0.00    -0.061 SA
ATOM      5  C   UNL d   1     -38.445  14.406  19.241  0.00  0.00     0.116 A 
ATOM      6  N   UNL d   1     -38.640  15.431  17.411  0.00  0.00    -0.239 NA
ATOM      7  C   UNL d   1     -38.308  14.075  17.079  0.00  0.00     0.057 A 
ATOM      8  C   UNL d   1     -38.281  13.870  17.871  0.00  0.00     0.008 A 
ATOM      9  C   UNL d   1     -38.486  14.846  16.851  0.00  0.00     0.085 A 
ATOM     10  C   UNL d   1     -38.156  13.502  16.506  0.00  0.00     0.197 A 
ATOM     11  N   UNL d   1     -38.253  13.551  19.652  0.00  0.00    -0.147 N 
ATOM     12  O   UNL d   1     -37.940  12.562  16.799  0.00  0.00    -0.286 OA
ATOM     13  C   UNL d   1     -38.512  15.043  16.051  0.00  0.00     0.019 A 
ATOM     14  C   UNL d   1     -38.183  13.701  15.715  0.00  0.00     0.042 A 
ATOM     15  C   UNL d   1     -38.360  14.473  15.487  0.00  0.00     0.005 A 
ENDROOT
BRANCH   1  16
ATOM     16  C   UNL d   1     -38.703  15.345  20.502  0.00  0.00     0.287 C 
ATOM     17  N   UNL d   1     -39.330  15.423  21.245  0.00  0.00    -0.205 NA
ATOM     18  O   UNL d   1     -37.942  15.498  20.730  0.00  0.00    -0.265 OA
BRANCH  17  19
ATOM     19  C   UNL d   1     -40.180  15.282  21.129  0.00  0.00     0.112 A 
ATOM     20  C   UNL d   1     -40.527  14.524  21.369  0.00  0.00     0.158 A 
ATOM     21  F   UNL d   1     -40.195  13.567  21.828  0.00  0.00    -0.203 F 
ATOM     22  C   UNL d   1     -41.397  14.383  21.249  0.00  0.00     0.031 A 
ATOM     23  C   UNL d   1     -41.897  15.007  20.891  0.00  0.00     0.002 A 
ATOM     24  C   UNL d   1     -41.535  15.770  20.653  0.00  0.00     0.002 A 
ATOM     25  C   UNL d   1     -40.677  15.922  20.766  0.00  0.00     0.021 A 
ENDBRANCH  17  19
ENDBRANCH   1  16
TORSDOF 2
ENDMDL
MODEL 3
REMARK VINA RESULT:      -6.1      8.059      9.293
REMARK  2 active torsions:
REMARK  status: ('A' for Active; 'I' for Inactive)
REMARK    1  A    between atoms: C_6  and  C_1 
REMARK       I    between atoms: N_11  and  C_6 
REMARK    2  A    between atoms: C_13  and  N_11 
ROOT
ATOM      1  C   UNL d   1     -39.811  15.116  18.857  0.00  0.00     0.108 A 
ATOM      2  C   UNL d   1     -39.640  14.754  20.114  0.00  0.00     0.044 A 
ATOM      3  C   UNL d   1     -39.033  15.277  19.926  0.00  0.00     0.112 A 
ATOM      4  S   UNL d   1     -39.142  15.501  19.141  0.00  0.00    -0.061 SA
ATOM      5  C   UNL d   1     -40.106  14.658  19.472  0.00  0.00     0.116 A 
ATOM      6  N   UNL d   1     -38.458  15.484  20.491  0.00  0.00    -0.239 NA
ATOM      7  C   UNL d   1     -39.122  14.626  21.430  0.00  0.00     0.057 A 
ATOM      8  C   UNL d   1     -39.686  14.425  20.872  0.00  0.00     0.008 A 
ATOM      9  C   UNL d   1     -38.515  15.150  21.242  0.00  0.00     0.085 A 
ATOM     10  C   UNL d   1     -39.165  14.300  22.187  0.00  0.00     0.197 A 
ATOM     11  N   UNL d   1     -40.867  14.065  19.548  0.00  0.00    -0.147 N 
ATOM     12  O   UNL d   1     -39.914  13.661  22.402  0.00  0.00    -0.286 OA
ATOM     13  C   UNL d   1     -37.951  15.346  21.810  0.00  0.00     0.019 A 
ATOM     14  C   UNL d   1     -38.605  14.498  22.746  0.00  0.00     0.042 A 
ATOM     15  C   UNL d   1     -37.997  15.022  22.558  0.00  0.00     0.005 A 
ENDROOT
BRANCH   1  16
ATOM     16  C   UNL d   1     -40.213  15.165  17.965  0.00  0.00     0.287 C 
ATOM     17  N   UNL d   1     -40.086  14.923  17.029  0.00  0.00    -0.205 NA
ATOM     18  O   UNL d   1     -40.911  15.558  18.084  0.00  0.00    -0.265 OA
BRANCH  17  19
ATOM     19  C   UNL d   1     -39.374  14.497  16.770  0.00  0.00     0.112 A 
ATOM     20  C   UNL d   1     -38.773  14.909  16.299  0.00  0.00     0.158 A 
ATOM     21  F   UNL d   1     -38.604  15.922  15.871  0.00  0.00    -0.203 F 
ATOM     22  C   UNL d   1     -38.045  14.470  16.036  0.00  0.00     0.031 A 
ATOM     23  C   UNL d   1     -37.940  13.627  16.253  0.00  0.00     0.002 A 
ATOM     24  C   UNL d   1     -38.553  13.221  16.730  0.00  0.00     0.002 A 
ATOM     25  C   UNL d   1     -39.276  13.643  16.996  0.00  0.00     0.021 A 
ENDBRANCH  17  19
ENDBRANCH   1  16
TORSDOF 2
ENDMDL
