MODEL 1
REMARK VINA RESULT:      19.0      0.000      0.000
REMARK  2 active torsions:
REMARK  status: ('A' for Active; 'I' for Inactive)
REMARK    1  A    between atoms: S_2  and  N_1 
REMARK    2  A    between atoms: C_8  and  S_2 
ROOT
ATOM      1  S   UNL d   1     -51.615  25.318  33.359  0.00  0.00     0.273 S 
ATOM      2  O   UNL d   1     -52.188  25.904  33.315  0.00  0.00    -0.200 OA
ATOM      3  O   UNL d   1     -51.045  24.723  33.403  0.00  0.00    -0.200 OA
ENDROOT
BRANCH   1   4
ATOM      4  N   UNL d   1     -52.217  24.754  33.354  0.00  0.00    -0.207 N 
ATOM      5  C   UNL d   1     -51.953  23.968  33.340  0.00  0.00     0.148 A 
ATOM      6  N   UNL d   1     -52.411  23.274  33.333  0.00  0.00    -0.198 NA
ATOM      7  C   UNL d   1     -53.217  23.194  33.336  0.00  0.00     0.066 A 
ATOM      8  C   UNL d   1     -52.722  24.214  33.349  0.00  0.00     0.169 A 
ATOM      9  C   UNL d   1     -53.791  23.780  33.349  0.00  0.00     0.066 A 
ATOM     10  N   UNL d   1     -53.689  24.601  33.361  0.00  0.00    -0.198 NA
ATOM     11  C   UNL d   1     -52.990  25.030  33.363  0.00  0.00     0.148 A 
ENDBRANCH   1   4
BRANCH   1  12
ATOM     12  C   UNL d   1     -51.019  25.889  33.364  0.00  0.00     0.104 A 
ATOM     13  C   UNL d   1     -51.214  26.689  33.313  0.00  0.00     0.013 A 
ATOM     14  C   UNL d   1     -50.619  27.259  33.318  0.00  0.00     0.001 A 
ATOM     15  C   UNL d   1     -49.827  27.030  33.373  0.00  0.00     0.000 A 
ATOM     16  C   UNL d   1     -49.633  26.229  33.423  0.00  0.00     0.001 A 
ATOM     17  C   UNL d   1     -49.238  27.607  33.377  0.00  0.00     0.000 C 
ATOM     18  C   UNL d   1     -50.229  25.658  33.419  0.00  0.00     0.013 A 
ENDBRANCH   1  12
TORSDOF 2
ENDMDL
