MODEL 1
REMARK VINA RESULT:      -8.3      0.000      0.000
REMARK  3 active torsions:
REMARK  status: ('A' for Active; 'I' for Inactive)
REMARK    1  A    between atoms: C_16  and  N_3 
REMARK    2  A    between atoms: C_10  and  C_5 
REMARK    3  A    between atoms: C_26  and  C_16 
ROOT
ATOM      1  C   UNL d   1     -48.140  13.018  22.934  0.00  0.00     0.083 A 
ATOM      2  C   UNL d   1     -47.927  12.259  23.169  0.00  0.00     0.161 A 
ATOM      3  N   UNL d   1     -49.249  12.377  23.338  0.00  0.00    -0.268 N 
ATOM      4  C   UNL d   1     -48.610  11.858  23.420  0.00  0.00     0.288 A 
ATOM      5  C   UNL d   1     -48.958  13.096  23.037  0.00  0.00     0.072 A 
ATOM      6  C   UNL d   1     -47.570  13.545  22.657  0.00  0.00     0.201 A 
ATOM      7  O   UNL d   1     -47.131  12.022  23.126  0.00  0.00    -0.302 OA
ATOM      8  C   UNL d   1     -46.781  13.307  22.615  0.00  0.00     0.063 A 
ATOM      9  C   UNL d   1     -46.564  12.548  22.849  0.00  0.00     0.103 A 
ATOM     10  O   UNL d   1     -48.647  11.089  23.698  0.00  0.00    -0.264 OA
ATOM     11  O   UNL d   1     -47.782  14.305  22.422  0.00  0.00    -0.286 OA
ATOM     12  C   UNL d   1     -46.207  13.835  22.337  0.00  0.00     0.017 A 
ATOM     13  C   UNL d   1     -45.765  12.317  22.804  0.00  0.00     0.026 A 
ATOM     14  C   UNL d   1     -45.420  13.605  22.293  0.00  0.00     0.058 A 
ATOM     15  C   UNL d   1     -45.198  12.843  22.527  0.00  0.00     0.013 A 
ATOM     16 CL   UNL d   1     -44.853  14.127  22.018  0.00  0.00    -0.082 Cl
ENDROOT
BRANCH   5  17
ATOM     17  C   UNL d   1     -49.175  13.855  22.803  0.00  0.00     0.017 A 
ATOM     18  C   UNL d   1     -49.385  14.424  23.365  0.00  0.00     0.008 A 
ATOM     19  C   UNL d   1     -49.601  15.181  23.128  0.00  0.00     0.035 A 
ATOM     20 BR   UNL d   1     -49.810  15.742  23.692  0.00  0.00    -0.049 Br
ATOM     21  C   UNL d   1     -49.610  15.380  22.320  0.00  0.00     0.007 A 
ATOM     22  C   UNL d   1     -49.400  14.811  21.757  0.00  0.00     0.001 A 
ATOM     23  C   UNL d   1     -49.182  14.047  22.002  0.00  0.00     0.002 A 
ENDBRANCH   5  17
BRANCH   3  24
ATOM     24  C   UNL d   1     -50.034  12.213  23.521  0.00  0.00     0.129 C 
BRANCH  24  25
ATOM     25  C   UNL d   1     -50.268  11.437  23.662  0.00  0.00     0.253 C 
ATOM     26  O   UNL d   1     -51.064  11.234  23.629  0.00  0.00    -0.281 OA
ENDBRANCH  24  25
ENDBRANCH   3  24
TORSDOF 3
ENDMDL
MODEL 2
REMARK VINA RESULT:      -7.3      2.120      4.081
REMARK  3 active torsions:
REMARK  status: ('A' for Active; 'I' for Inactive)
REMARK    1  A    between atoms: C_16  and  N_3 
REMARK    2  A    between atoms: C_10  and  C_5 
REMARK    3  A    between atoms: C_26  and  C_16 
ROOT
ATOM      1  C   UNL d   1     -47.748  13.820  22.845  0.00  0.00     0.083 A 
ATOM      2  C   UNL d   1     -47.364  14.544  22.770  0.00  0.00     0.161 A 
ATOM      3  N   UNL d   1     -46.437  13.583  22.680  0.00  0.00    -0.268 N 
ATOM      4  C   UNL d   1     -46.551  14.403  22.668  0.00  0.00     0.288 A 
ATOM      5  C   UNL d   1     -47.178  13.222  22.790  0.00  0.00     0.072 A 
ATOM      6  C   UNL d   1     -48.564  13.790  22.954  0.00  0.00     0.201 A 
ATOM      7  O   UNL d   1     -47.802  15.249  22.804  0.00  0.00    -0.302 OA
ATOM      8  C   UNL d   1     -48.997  14.492  22.987  0.00  0.00     0.063 A 
ATOM      9  C   UNL d   1     -48.616  15.218  22.913  0.00  0.00     0.103 A 
ATOM     10  O   UNL d   1     -45.968  14.969  22.572  0.00  0.00    -0.264 OA
ATOM     11  O   UNL d   1     -48.950  13.067  23.029  0.00  0.00    -0.286 OA
ATOM     12  C   UNL d   1     -49.817  14.464  23.096  0.00  0.00     0.017 A 
ATOM     13  C   UNL d   1     -49.061  15.922  22.948  0.00  0.00     0.026 A 
ATOM     14  C   UNL d   1     -50.254  15.159  23.130  0.00  0.00     0.058 A 
ATOM     15  C   UNL d   1     -49.874  15.890  23.056  0.00  0.00     0.013 A 
ATOM     16 CL   UNL d   1     -51.064  15.131  23.238  0.00  0.00    -0.082 Cl
ENDROOT
BRANCH   5  17
ATOM     17  C   UNL d   1     -47.559  12.497  22.865  0.00  0.00     0.017 A 
ATOM     18  C   UNL d   1     -47.830  12.093  22.196  0.00  0.00     0.008 A 
ATOM     19  C   UNL d   1     -48.210  11.368  22.274  0.00  0.00     0.035 A 
ATOM     20 BR   UNL d   1     -48.477  10.972  21.604  0.00  0.00    -0.049 Br
ATOM     21  C   UNL d   1     -48.326  11.035  23.028  0.00  0.00     0.007 A 
ATOM     22  C   UNL d   1     -48.055  11.439  23.698  0.00  0.00     0.001 A 
ATOM     23  C   UNL d   1     -47.671  12.171  23.614  0.00  0.00     0.002 A 
ENDBRANCH   5  17
BRANCH   3  24
ATOM     24  C   UNL d   1     -45.717  13.192  22.599  0.00  0.00     0.129 C 
BRANCH  24  25
ATOM     25  C   UNL d   1     -45.169  13.456  22.045  0.00  0.00     0.253 C 
ATOM     26  O   UNL d   1     -44.492  13.015  21.893  0.00  0.00    -0.281 OA
ENDBRANCH  24  25
ENDBRANCH   3  24
TORSDOF 3
ENDMDL
MODEL 3
REMARK VINA RESULT:      -7.1      2.003      3.550
REMARK  3 active torsions:
REMARK  status: ('A' for Active; 'I' for Inactive)
REMARK    1  A    between atoms: C_16  and  N_3 
REMARK    2  A    between atoms: C_10  and  C_5 
REMARK    3  A    between atoms: C_26  and  C_16 
ROOT
ATOM      1  C   UNL d   1     -47.661  12.350  22.802  0.00  0.00     0.083 A 
ATOM      2  C   UNL d   1     -48.066  11.654  22.971  0.00  0.00     0.161 A 
ATOM      3  N   UNL d   1     -46.801  11.494  23.377  0.00  0.00    -0.268 N 
ATOM      4  C   UNL d   1     -47.538  11.120  23.327  0.00  0.00     0.288 A 
ATOM      5  C   UNL d   1     -46.877  12.255  23.052  0.00  0.00     0.072 A 
ATOM      6  C   UNL d   1     -48.049  12.983  22.445  0.00  0.00     0.201 A 
ATOM      7  O   UNL d   1     -48.873  11.590  22.779  0.00  0.00    -0.302 OA
ATOM      8  C   UNL d   1     -48.849  12.916  22.255  0.00  0.00     0.063 A 
ATOM      9  C   UNL d   1     -49.258  12.221  22.423  0.00  0.00     0.103 A 
ATOM     10  O   UNL d   1     -47.713  10.363  23.583  0.00  0.00    -0.264 OA
ATOM     11  O   UNL d   1     -47.644  13.680  22.275  0.00  0.00    -0.286 OA
ATOM     12  C   UNL d   1     -49.241  13.551  21.896  0.00  0.00     0.017 A 
ATOM     13  C   UNL d   1     -50.066  12.162  22.228  0.00  0.00     0.026 A 
ATOM     14  C   UNL d   1     -50.037  13.490  21.705  0.00  0.00     0.058 A 
ATOM     15  C   UNL d   1     -50.451  12.794  21.872  0.00  0.00     0.013 A 
ATOM     16 CL   UNL d   1     -50.424  14.118  21.350  0.00  0.00    -0.082 Cl
ENDROOT
BRANCH   5  17
ATOM     17  C   UNL d   1     -46.468  12.950  22.885  0.00  0.00     0.017 A 
ATOM     18  C   UNL d   1     -45.895  12.967  22.289  0.00  0.00     0.008 A 
ATOM     19  C   UNL d   1     -45.489  13.663  22.125  0.00  0.00     0.035 A 
ATOM     20 BR   UNL d   1     -44.919  13.674  21.531  0.00  0.00    -0.049 Br
ATOM     21  C   UNL d   1     -45.652  14.355  22.557  0.00  0.00     0.007 A 
ATOM     22  C   UNL d   1     -46.226  14.338  23.153  0.00  0.00     0.001 A 
ATOM     23  C   UNL d   1     -46.634  13.633  23.315  0.00  0.00     0.002 A 
ENDBRANCH   5  17
BRANCH   3  24
ATOM     24  C   UNL d   1     -46.113  11.170  23.692  0.00  0.00     0.129 C 
BRANCH  24  25
ATOM     25  C   UNL d   1     -45.987  10.358  23.651  0.00  0.00     0.253 C 
ATOM     26  O   UNL d   1     -45.224  10.056  23.698  0.00  0.00    -0.281 OA
ENDBRANCH  24  25
ENDBRANCH   3  24
TORSDOF 3
ENDMDL
MODEL 4
REMARK VINA RESULT:      -6.4      8.865     10.126
REMARK  3 active torsions:
REMARK  status: ('A' for Active; 'I' for Inactive)
REMARK    1  A    between atoms: C_16  and  N_3 
REMARK    2  A    between atoms: C_10  and  C_5 
REMARK    3  A    between atoms: C_26  and  C_16 
ROOT
ATOM      1  C   UNL d   1     -39.881  14.840  18.689  0.00  0.00     0.083 A 
ATOM      2  C   UNL d   1     -40.540  15.189  19.036  0.00  0.00     0.161 A 
ATOM      3  N   UNL d   1     -40.635  15.373  17.713  0.00  0.00    -0.268 N 
ATOM      4  C   UNL d   1     -41.010  15.521  18.436  0.00  0.00     0.288 A 
ATOM      5  C   UNL d   1     -39.935  14.951  17.870  0.00  0.00     0.072 A 
ATOM      6  C   UNL d   1     -39.314  14.465  19.154  0.00  0.00     0.201 A 
ATOM      7  O   UNL d   1     -40.634  15.164  19.861  0.00  0.00    -0.302 OA
ATOM      8  C   UNL d   1     -39.410  14.441  19.973  0.00  0.00     0.063 A 
ATOM      9  C   UNL d   1     -40.068  14.789  20.324  0.00  0.00     0.103 A 
ATOM     10  O   UNL d   1     -41.717  15.922  18.539  0.00  0.00    -0.264 OA
ATOM     11  O   UNL d   1     -38.654  14.115  18.808  0.00  0.00    -0.286 OA
ATOM     12  C   UNL d   1     -38.841  14.064  20.443  0.00  0.00     0.017 A 
ATOM     13  C   UNL d   1     -40.156  14.761  21.152  0.00  0.00     0.026 A 
ATOM     14  C   UNL d   1     -38.930  14.037  21.259  0.00  0.00     0.058 A 
ATOM     15  C   UNL d   1     -39.590  14.386  21.614  0.00  0.00     0.013 A 
ATOM     16 CL   UNL d   1     -38.368  13.665  21.722  0.00  0.00    -0.082 Cl
ENDROOT
BRANCH   5  17
ATOM     17  C   UNL d   1     -39.277  14.602  17.519  0.00  0.00     0.017 A 
ATOM     18  C   UNL d   1     -39.283  13.800  17.320  0.00  0.00     0.008 A 
ATOM     19  C   UNL d   1     -38.623  13.455  16.970  0.00  0.00     0.035 A 
ATOM     20 BR   UNL d   1     -38.635  12.656  16.775  0.00  0.00    -0.049 Br
ATOM     21  C   UNL d   1     -37.945  13.911  16.814  0.00  0.00     0.007 A 
ATOM     22  C   UNL d   1     -37.939  14.715  17.013  0.00  0.00     0.001 A 
ATOM     23  C   UNL d   1     -38.608  15.059  17.367  0.00  0.00     0.002 A 
ENDBRANCH   5  17
BRANCH   3  24
ATOM     24  C   UNL d   1     -40.904  15.602  16.970  0.00  0.00     0.129 C 
BRANCH  24  25
ATOM     25  C   UNL d   1     -41.703  15.762  16.856  0.00  0.00     0.253 C 
ATOM     26  O   UNL d   1     -42.027  15.726  16.102  0.00  0.00    -0.281 OA
ENDBRANCH  24  25
ENDBRANCH   3  24
TORSDOF 3
ENDMDL
MODEL 5
REMARK VINA RESULT:      -6.4      0.906      1.116
REMARK  3 active torsions:
REMARK  status: ('A' for Active; 'I' for Inactive)
REMARK    1  A    between atoms: C_16  and  N_3 
REMARK    2  A    between atoms: C_10  and  C_5 
REMARK    3  A    between atoms: C_26  and  C_16 
ROOT
ATOM      1  C   UNL d   1     -47.346  12.729  22.871  0.00  0.00     0.083 A 
ATOM      2  C   UNL d   1     -47.099  11.973  23.082  0.00  0.00     0.161 A 
ATOM      3  N   UNL d   1     -48.396  12.077  23.397  0.00  0.00    -0.268 N 
ATOM      4  C   UNL d   1     -47.746  11.565  23.409  0.00  0.00     0.288 A 
ATOM      5  C   UNL d   1     -48.149  12.798  23.064  0.00  0.00     0.072 A 
ATOM      6  C   UNL d   1     -46.817  13.261  22.530  0.00  0.00     0.201 A 
ATOM      7  O   UNL d   1     -46.311  11.745  22.952  0.00  0.00    -0.302 OA
ATOM      8  C   UNL d   1     -46.035  13.032  22.402  0.00  0.00     0.063 A 
ATOM      9  C   UNL d   1     -45.785  12.277  22.612  0.00  0.00     0.103 A 
ATOM     10  O   UNL d   1     -47.743  10.797  23.691  0.00  0.00    -0.264 OA
ATOM     11  O   UNL d   1     -47.063  14.018  22.318  0.00  0.00    -0.286 OA
ATOM     12  C   UNL d   1     -45.501  13.565  22.060  0.00  0.00     0.017 A 
ATOM     13  C   UNL d   1     -44.992  12.054  22.479  0.00  0.00     0.026 A 
ATOM     14  C   UNL d   1     -44.722  13.343  21.929  0.00  0.00     0.058 A 
ATOM     15  C   UNL d   1     -44.466  12.585  22.139  0.00  0.00     0.013 A 
ATOM     16 CL   UNL d   1     -44.195  13.871  21.591  0.00  0.00    -0.082 Cl
ENDROOT
BRANCH   5  17
ATOM     17  C   UNL d   1     -48.399  13.553  22.854  0.00  0.00     0.017 A 
ATOM     18  C   UNL d   1     -48.859  13.671  22.177  0.00  0.00     0.008 A 
ATOM     19  C   UNL d   1     -49.107  14.427  21.970  0.00  0.00     0.035 A 
ATOM     20 BR   UNL d   1     -49.565  14.536  21.295  0.00  0.00    -0.049 Br
ATOM     21  C   UNL d   1     -48.897  15.080  22.440  0.00  0.00     0.007 A 
ATOM     22  C   UNL d   1     -48.437  14.963  23.118  0.00  0.00     0.001 A 
ATOM     23  C   UNL d   1     -48.188  14.197  23.323  0.00  0.00     0.002 A 
ENDBRANCH   5  17
BRANCH   3  24
ATOM     24  C   UNL d   1     -49.154  11.906  23.667  0.00  0.00     0.129 C 
BRANCH  24  25
ATOM     25  C   UNL d   1     -49.547  11.239  23.387  0.00  0.00     0.253 C 
ATOM     26  O   UNL d   1     -50.369  11.214  23.388  0.00  0.00    -0.281 OA
ENDBRANCH  24  25
ENDBRANCH   3  24
TORSDOF 3
ENDMDL
MODEL 6
REMARK VINA RESULT:      -5.6      1.759      3.308
REMARK  3 active torsions:
REMARK  status: ('A' for Active; 'I' for Inactive)
REMARK    1  A    between atoms: C_16  and  N_3 
REMARK    2  A    between atoms: C_10  and  C_5 
REMARK    3  A    between atoms: C_26  and  C_16 
ROOT
ATOM      1  C   UNL d   1     -47.937  13.025  22.989  0.00  0.00     0.083 A 
ATOM      2  C   UNL d   1     -47.450  12.404  23.221  0.00  0.00     0.161 A 
ATOM      3  N   UNL d   1     -46.661  13.434  22.895  0.00  0.00    -0.268 N 
ATOM      4  C   UNL d   1     -46.659  12.652  23.165  0.00  0.00     0.288 A 
ATOM      5  C   UNL d   1     -47.453  13.666  22.785  0.00  0.00     0.072 A 
ATOM      6  C   UNL d   1     -48.756  12.937  22.989  0.00  0.00     0.201 A 
ATOM      7  O   UNL d   1     -47.788  11.682  23.458  0.00  0.00    -0.302 OA
ATOM      8  C   UNL d   1     -49.088  12.219  23.225  0.00  0.00     0.063 A 
ATOM      9  C   UNL d   1     -48.604  11.595  23.458  0.00  0.00     0.103 A 
ATOM     10  O   UNL d   1     -45.996  12.206  23.343  0.00  0.00    -0.264 OA
ATOM     11  O   UNL d   1     -49.244  13.557  22.757  0.00  0.00    -0.286 OA
ATOM     12  C   UNL d   1     -49.911  12.127  23.226  0.00  0.00     0.017 A 
ATOM     13  C   UNL d   1     -48.948  10.874  23.695  0.00  0.00     0.026 A 
ATOM     14  C   UNL d   1     -50.248  11.416  23.459  0.00  0.00     0.058 A 
ATOM     15  C   UNL d   1     -49.765  10.787  23.694  0.00  0.00     0.013 A 
ATOM     16 CL   UNL d   1     -51.061  11.326  23.460  0.00  0.00    -0.082 Cl
ENDROOT
BRANCH   5  17
ATOM     17  C   UNL d   1     -47.937  14.289  22.552  0.00  0.00     0.017 A 
ATOM     18  C   UNL d   1     -48.306  14.768  23.116  0.00  0.00     0.008 A 
ATOM     19  C   UNL d   1     -48.789  15.390  22.879  0.00  0.00     0.035 A 
ATOM     20 BR   UNL d   1     -49.154  15.863  23.445  0.00  0.00    -0.049 Br
ATOM     21  C   UNL d   1     -48.909  15.542  22.070  0.00  0.00     0.007 A 
ATOM     22  C   UNL d   1     -48.539  15.063  21.505  0.00  0.00     0.001 A 
ATOM     23  C   UNL d   1     -48.052  14.435  21.749  0.00  0.00     0.002 A 
ENDBRANCH   5  17
BRANCH   3  24
ATOM     24  C   UNL d   1     -45.999  13.902  22.757  0.00  0.00     0.129 C 
BRANCH  24  25
ATOM     25  C   UNL d   1     -45.376  13.609  22.306  0.00  0.00     0.253 C 
ATOM     26  O   UNL d   1     -44.707  14.068  22.179  0.00  0.00    -0.281 OA
ENDBRANCH  24  25
ENDBRANCH   3  24
TORSDOF 3
ENDMDL
MODEL 7
REMARK VINA RESULT:      -5.4      9.553     10.300
REMARK  3 active torsions:
REMARK  status: ('A' for Active; 'I' for Inactive)
REMARK    1  A    between atoms: C_16  and  N_3 
REMARK    2  A    between atoms: C_10  and  C_5 
REMARK    3  A    between atoms: C_26  and  C_16 
ROOT
ATOM      1  C   UNL d   1     -39.079  14.074  18.817  0.00  0.00     0.083 A 
ATOM      2  C   UNL d   1     -38.694  13.426  19.147  0.00  0.00     0.161 A 
ATOM      3  N   UNL d   1     -38.784  13.215  17.829  0.00  0.00    -0.268 N 
ATOM      4  C   UNL d   1     -38.509  12.891  18.539  0.00  0.00     0.288 A 
ATOM      5  C   UNL d   1     -39.137  13.948  18.001  0.00  0.00     0.072 A 
ATOM      6  C   UNL d   1     -39.330  14.698  19.294  0.00  0.00     0.201 A 
ATOM      7  O   UNL d   1     -38.557  13.401  19.967  0.00  0.00    -0.302 OA
ATOM      8  C   UNL d   1     -39.192  14.670  20.107  0.00  0.00     0.063 A 
ATOM      9  C   UNL d   1     -38.807  14.023  20.440  0.00  0.00     0.103 A 
ATOM     10  O   UNL d   1     -38.124  12.173  18.624  0.00  0.00    -0.264 OA
ATOM     11  O   UNL d   1     -39.715  15.347  18.965  0.00  0.00    -0.286 OA
ATOM     12  C   UNL d   1     -39.443  15.295  20.588  0.00  0.00     0.017 A 
ATOM     13  C   UNL d   1     -38.673  14.003  21.263  0.00  0.00     0.026 A 
ATOM     14  C   UNL d   1     -39.310  15.274  21.398  0.00  0.00     0.058 A 
ATOM     15  C   UNL d   1     -38.923  14.625  21.736  0.00  0.00     0.013 A 
ATOM     16 CL   UNL d   1     -39.558  15.892  21.872  0.00  0.00    -0.082 Cl
ENDROOT
BRANCH   5  17
ATOM     17  C   UNL d   1     -39.522  14.594  17.668  0.00  0.00     0.017 A 
ATOM     18  C   UNL d   1     -40.338  14.576  17.538  0.00  0.00     0.008 A 
ATOM     19  C   UNL d   1     -40.719  15.224  17.205  0.00  0.00     0.035 A 
ATOM     20 BR   UNL d   1     -41.532  15.200  17.078  0.00  0.00    -0.049 Br
ATOM     21  C   UNL d   1     -40.286  15.903  16.996  0.00  0.00     0.007 A 
ATOM     22  C   UNL d   1     -39.469  15.922  17.126  0.00  0.00     0.001 A 
ATOM     23  C   UNL d   1     -39.088  15.264  17.463  0.00  0.00     0.002 A 
ENDBRANCH   5  17
BRANCH   3  24
ATOM     24  C   UNL d   1     -38.720  12.873  17.082  0.00  0.00     0.129 C 
BRANCH  24  25
ATOM     25  C   UNL d   1     -37.992  12.860  16.699  0.00  0.00     0.253 C 
ATOM     26  O   UNL d   1     -37.940  12.600  15.922  0.00  0.00    -0.281 OA
ENDBRANCH  24  25
ENDBRANCH   3  24
TORSDOF 3
ENDMDL
