MODEL 1
REMARK VINA RESULT:      -3.6      0.000      0.000
REMARK  2 active torsions:
REMARK  status: ('A' for Active; 'I' for Inactive)
REMARK    1  A    between atoms: C_4  and  C_1 
REMARK    2  A    between atoms: C_2  and  C_7 
ROOT
ATOM      1  C   UNL d   1      30.468  16.625 -24.311  0.00  0.00     0.003 A 
ATOM      2  C   UNL d   1      29.063  16.545 -24.069  0.00  0.00     0.071 A 
ATOM      3  C   UNL d   1      29.798  16.866 -23.886  0.00  0.00     0.004 A 
ATOM      4  C   UNL d   1      30.403  16.071 -24.911  0.00  0.00     0.000 A 
ATOM      5  C   UNL d   1      28.990  15.985 -24.674  0.00  0.00     0.004 A 
ATOM      6  C   UNL d   1      29.668  15.748 -25.097  0.00  0.00    -0.000 A 
ENDROOT
BRANCH   1   7
ATOM      7  C   UNL d   1      31.204  16.948 -24.124  0.00  0.00     0.042 A 
ATOM      8  C   UNL d   1      31.437  17.667 -24.460  0.00  0.00     0.045 A 
ATOM      9  C   UNL d   1      32.173  17.990 -24.273  0.00  0.00     0.196 A 
ATOM     10  O   UNL d   1      32.406  18.709 -24.609  0.00  0.00    -0.287 OA
ATOM     11  C   UNL d   1      32.675  17.595 -23.752  0.00  0.00     0.045 A 
ATOM     12  C   UNL d   1      32.442  16.876 -23.417  0.00  0.00     0.045 A 
ATOM     13  C   UNL d   1      31.706  16.553 -23.603  0.00  0.00     0.196 A 
ATOM     14  O   UNL d   1      31.473  15.834 -23.267  0.00  0.00    -0.287 OA
ENDBRANCH   1   7
BRANCH   2  15
ATOM     15  C   UNL d   1      28.392  16.781 -23.650  0.00  0.00     0.419 C 
ATOM     16  F   UNL d   1      27.782  16.998 -23.269  0.00  0.00    -0.166 F 
ATOM     17  F   UNL d   1      27.925  16.341 -23.075  0.00  0.00    -0.166 F 
ATOM     18  F   UNL d   1      27.968  17.540 -23.670  0.00  0.00    -0.166 F 
ENDBRANCH   2  15
TORSDOF 2
ENDMDL
MODEL 2
REMARK VINA RESULT:      -3.5      2.515      3.532
REMARK  2 active torsions:
REMARK  status: ('A' for Active; 'I' for Inactive)
REMARK    1  A    between atoms: C_4  and  C_1 
REMARK    2  A    between atoms: C_2  and  C_7 
ROOT
ATOM      1  C   UNL d   1      31.666  17.138 -23.992  0.00  0.00     0.003 A 
ATOM      2  C   UNL d   1      32.649  18.008 -23.431  0.00  0.00     0.071 A 
ATOM      3  C   UNL d   1      31.886  17.700 -23.425  0.00  0.00     0.004 A 
ATOM      4  C   UNL d   1      32.202  16.886 -24.558  0.00  0.00     0.000 A 
ATOM      5  C   UNL d   1      33.196  17.760 -24.000  0.00  0.00     0.004 A 
ATOM      6  C   UNL d   1      32.967  17.193 -24.568  0.00  0.00    -0.000 A 
ENDROOT
BRANCH   1   7
ATOM      7  C   UNL d   1      30.901  16.831 -23.983  0.00  0.00     0.042 A 
ATOM      8  C   UNL d   1      30.287  17.238 -24.359  0.00  0.00     0.045 A 
ATOM      9  C   UNL d   1      29.521  16.931 -24.350  0.00  0.00     0.196 A 
ATOM     10  O   UNL d   1      28.907  17.339 -24.725  0.00  0.00    -0.287 OA
ATOM     11  C   UNL d   1      29.369  16.217 -23.965  0.00  0.00     0.045 A 
ATOM     12  C   UNL d   1      29.983  15.810 -23.590  0.00  0.00     0.045 A 
ATOM     13  C   UNL d   1      30.748  16.117 -23.599  0.00  0.00     0.196 A 
ATOM     14  O   UNL d   1      31.362  15.709 -23.223  0.00  0.00    -0.287 OA
ENDBRANCH   1   7
BRANCH   2  15
ATOM     15  C   UNL d   1      32.874  18.568 -22.868  0.00  0.00     0.419 C 
ATOM     16  F   UNL d   1      33.077  19.080 -22.357  0.00  0.00    -0.166 F 
ATOM     17  F   UNL d   1      33.241  18.451 -22.097  0.00  0.00    -0.166 F 
ATOM     18  F   UNL d   1      32.804  19.435 -22.894  0.00  0.00    -0.166 F 
ENDBRANCH   2  15
TORSDOF 2
ENDMDL
MODEL 3
REMARK VINA RESULT:      -3.4      2.447      3.691
REMARK  2 active torsions:
REMARK  status: ('A' for Active; 'I' for Inactive)
REMARK    1  A    between atoms: C_4  and  C_1 
REMARK    2  A    between atoms: C_2  and  C_7 
ROOT
ATOM      1  C   UNL d   1      31.437  17.059 -24.139  0.00  0.00     0.003 A 
ATOM      2  C   UNL d   1      32.534  17.790 -23.591  0.00  0.00     0.071 A 
ATOM      3  C   UNL d   1      31.735  17.594 -23.581  0.00  0.00     0.004 A 
ATOM      4  C   UNL d   1      31.931  16.724 -24.700  0.00  0.00     0.000 A 
ATOM      5  C   UNL d   1      33.039  17.456 -24.154  0.00  0.00     0.004 A 
ATOM      6  C   UNL d   1      32.733  16.918 -24.712  0.00  0.00    -0.000 A 
ENDROOT
BRANCH   1   7
ATOM      7  C   UNL d   1      30.635  16.864 -24.127  0.00  0.00     0.042 A 
ATOM      8  C   UNL d   1      30.364  16.256 -23.637  0.00  0.00     0.045 A 
ATOM      9  C   UNL d   1      29.563  16.061 -23.625  0.00  0.00     0.196 A 
ATOM     10  O   UNL d   1      29.292  15.453 -23.134  0.00  0.00    -0.287 OA
ATOM     11  C   UNL d   1      29.032  16.474 -24.102  0.00  0.00     0.045 A 
ATOM     12  C   UNL d   1      29.303  17.083 -24.592  0.00  0.00     0.045 A 
ATOM     13  C   UNL d   1      30.104  17.277 -24.604  0.00  0.00     0.196 A 
ATOM     14  O   UNL d   1      30.375  17.886 -25.094  0.00  0.00    -0.287 OA
ENDBRANCH   1   7
BRANCH   2  15
ATOM     15  C   UNL d   1      32.836  18.322 -23.037  0.00  0.00     0.419 C 
ATOM     16  F   UNL d   1      33.111  18.805 -22.532  0.00  0.00    -0.166 F 
ATOM     17  F   UNL d   1      32.871  19.183 -23.070  0.00  0.00    -0.166 F 
ATOM     18  F   UNL d   1      33.204  18.165 -22.265  0.00  0.00    -0.166 F 
ENDBRANCH   2  15
TORSDOF 2
ENDMDL
MODEL 4
REMARK VINA RESULT:      -3.2      2.364      3.520
REMARK  2 active torsions:
REMARK  status: ('A' for Active; 'I' for Inactive)
REMARK    1  A    between atoms: C_4  and  C_1 
REMARK    2  A    between atoms: C_2  and  C_7 
ROOT
ATOM      1  C   UNL d   1      31.057  17.255 -24.391  0.00  0.00     0.003 A 
ATOM      2  C   UNL d   1      32.210  17.768 -23.723  0.00  0.00     0.071 A 
ATOM      3  C   UNL d   1      31.555  17.271 -23.728  0.00  0.00     0.004 A 
ATOM      4  C   UNL d   1      31.213  17.730 -25.040  0.00  0.00     0.000 A 
ATOM      5  C   UNL d   1      32.374  18.251 -24.374  0.00  0.00     0.004 A 
ATOM      6  C   UNL d   1      31.869  18.230 -25.038  0.00  0.00    -0.000 A 
ENDROOT
BRANCH   1   7
ATOM      7  C   UNL d   1      30.401  16.755 -24.393  0.00  0.00     0.042 A 
ATOM      8  C   UNL d   1      29.680  17.017 -24.083  0.00  0.00     0.045 A 
ATOM      9  C   UNL d   1      29.024  16.517 -24.085  0.00  0.00     0.196 A 
ATOM     10  O   UNL d   1      28.303  16.779 -23.775  0.00  0.00    -0.287 OA
ATOM     11  C   UNL d   1      29.088  15.756 -24.397  0.00  0.00     0.045 A 
ATOM     12  C   UNL d   1      29.808  15.494 -24.707  0.00  0.00     0.045 A 
ATOM     13  C   UNL d   1      30.464  15.994 -24.705  0.00  0.00     0.196 A 
ATOM     14  O   UNL d   1      31.185  15.733 -25.015  0.00  0.00    -0.287 OA
ENDBRANCH   1   7
BRANCH   2  15
ATOM     15  C   UNL d   1      32.709  17.788 -23.066  0.00  0.00     0.419 C 
ATOM     16  F   UNL d   1      33.163  17.809 -22.467  0.00  0.00    -0.166 F 
ATOM     17  F   UNL d   1      33.238  17.178 -22.763  0.00  0.00    -0.166 F 
ATOM     18  F   UNL d   1      32.843  18.430 -22.495  0.00  0.00    -0.166 F 
ENDBRANCH   2  15
TORSDOF 2
ENDMDL
MODEL 5
REMARK VINA RESULT:      -3.2      1.641      2.516
REMARK  2 active torsions:
REMARK  status: ('A' for Active; 'I' for Inactive)
REMARK    1  A    between atoms: C_4  and  C_1 
REMARK    2  A    between atoms: C_2  and  C_7 
ROOT
ATOM      1  C   UNL d   1      32.481  17.220 -23.614  0.00  0.00     0.003 A 
ATOM      2  C   UNL d   1      31.414  16.270 -23.619  0.00  0.00     0.071 A 
ATOM      3  C   UNL d   1      31.670  17.051 -23.578  0.00  0.00     0.004 A 
ATOM      4  C   UNL d   1      33.028  16.615 -23.690  0.00  0.00     0.000 A 
ATOM      5  C   UNL d   1      31.961  15.655 -23.695  0.00  0.00     0.004 A 
ATOM      6  C   UNL d   1      32.775  15.831 -23.731  0.00  0.00    -0.000 A 
ENDROOT
BRANCH   1   7
ATOM      7  C   UNL d   1      32.734  18.004 -23.573  0.00  0.00     0.042 A 
ATOM      8  C   UNL d   1      32.860  18.360 -22.838  0.00  0.00     0.045 A 
ATOM      9  C   UNL d   1      33.114  19.144 -22.797  0.00  0.00     0.196 A 
ATOM     10  O   UNL d   1      33.240  19.500 -22.061  0.00  0.00    -0.287 OA
ATOM     11  C   UNL d   1      33.241  19.572 -23.490  0.00  0.00     0.045 A 
ATOM     12  C   UNL d   1      33.115  19.216 -24.226  0.00  0.00     0.045 A 
ATOM     13  C   UNL d   1      32.862  18.432 -24.267  0.00  0.00     0.196 A 
ATOM     14  O   UNL d   1      32.735  18.075 -25.002  0.00  0.00    -0.287 OA
ENDBRANCH   1   7
BRANCH   2  15
ATOM     15  C   UNL d   1      30.608  16.097 -23.584  0.00  0.00     0.419 C 
ATOM     16  F   UNL d   1      29.874  15.939 -23.553  0.00  0.00    -0.166 F 
ATOM     17  F   UNL d   1      30.131  15.850 -22.909  0.00  0.00    -0.166 F 
ATOM     18  F   UNL d   1      30.012  16.113 -24.216  0.00  0.00    -0.166 F 
ENDBRANCH   2  15
TORSDOF 2
ENDMDL
MODEL 6
REMARK VINA RESULT:      -2.7      2.000      3.164
REMARK  2 active torsions:
REMARK  status: ('A' for Active; 'I' for Inactive)
REMARK    1  A    between atoms: C_4  and  C_1 
REMARK    2  A    between atoms: C_2  and  C_7 
ROOT
ATOM      1  C   UNL d   1      32.652  18.323 -23.611  0.00  0.00     0.003 A 
ATOM      2  C   UNL d   1      31.656  17.407 -24.068  0.00  0.00     0.071 A 
ATOM      3  C   UNL d   1      31.855  18.137 -23.745  0.00  0.00     0.004 A 
ATOM      4  C   UNL d   1      33.241  17.786 -23.798  0.00  0.00     0.000 A 
ATOM      5  C   UNL d   1      32.245  16.860 -24.260  0.00  0.00     0.004 A 
ATOM      6  C   UNL d   1      33.044  17.053 -24.123  0.00  0.00    -0.000 A 
ENDROOT
BRANCH   1   7
ATOM      7  C   UNL d   1      32.848  19.055 -23.286  0.00  0.00     0.042 A 
ATOM      8  C   UNL d   1      32.869  19.152 -22.465  0.00  0.00     0.045 A 
ATOM      9  C   UNL d   1      33.065  19.884 -22.140  0.00  0.00     0.196 A 
ATOM     10  O   UNL d   1      33.086  19.981 -21.319  0.00  0.00    -0.287 OA
ATOM     11  C   UNL d   1      33.241  20.520 -22.636  0.00  0.00     0.045 A 
ATOM     12  C   UNL d   1      33.220  20.423 -23.457  0.00  0.00     0.045 A 
ATOM     13  C   UNL d   1      33.024  19.691 -23.782  0.00  0.00     0.196 A 
ATOM     14  O   UNL d   1      33.003  19.594 -24.603  0.00  0.00    -0.287 OA
ENDBRANCH   1   7
BRANCH   2  15
ATOM     15  C   UNL d   1      30.864  17.217 -24.204  0.00  0.00     0.419 C 
ATOM     16  F   UNL d   1      30.143  17.043 -24.325  0.00  0.00    -0.166 F 
ATOM     17  F   UNL d   1      30.356  17.433 -24.866  0.00  0.00    -0.166 F 
ATOM     18  F   UNL d   1      30.319  16.745 -23.717  0.00  0.00    -0.166 F 
ENDBRANCH   2  15
TORSDOF 2
ENDMDL
MODEL 7
REMARK VINA RESULT:      -2.5      4.734      5.990
REMARK  2 active torsions:
REMARK  status: ('A' for Active; 'I' for Inactive)
REMARK    1  A    between atoms: C_4  and  C_1 
REMARK    2  A    between atoms: C_2  and  C_7 
ROOT
ATOM      1  C   UNL d   1      32.846  21.286 -21.699  0.00  0.00     0.003 A 
ATOM      2  C   UNL d   1      33.012  19.950 -22.175  0.00  0.00     0.071 A 
ATOM      3  C   UNL d   1      32.824  20.738 -22.321  0.00  0.00     0.004 A 
ATOM      4  C   UNL d   1      33.051  21.050 -20.943  0.00  0.00     0.000 A 
ATOM      5  C   UNL d   1      33.221  19.704 -21.414  0.00  0.00     0.004 A 
ATOM      6  C   UNL d   1      33.240  20.260 -20.794  0.00  0.00    -0.000 A 
ENDROOT
BRANCH   1   7
ATOM      7  C   UNL d   1      32.657  22.075 -21.848  0.00  0.00     0.042 A 
ATOM      8  C   UNL d   1      33.017  22.475 -22.477  0.00  0.00     0.045 A 
ATOM      9  C   UNL d   1      32.828  23.264 -22.626  0.00  0.00     0.196 A 
ATOM     10  O   UNL d   1      33.188  23.664 -23.254  0.00  0.00    -0.287 OA
ATOM     11  C   UNL d   1      32.281  23.654 -22.147  0.00  0.00     0.045 A 
ATOM     12  C   UNL d   1      31.921  23.254 -21.519  0.00  0.00     0.045 A 
ATOM     13  C   UNL d   1      32.110  22.465 -21.370  0.00  0.00     0.196 A 
ATOM     14  O   UNL d   1      31.750  22.065 -20.742  0.00  0.00    -0.287 OA
ENDBRANCH   1   7
BRANCH   2  15
ATOM     15  C   UNL d   1      32.992  19.400 -22.790  0.00  0.00     0.419 C 
ATOM     16  F   UNL d   1      32.974  18.898 -23.349  0.00  0.00    -0.166 F 
ATOM     17  F   UNL d   1      33.215  19.497 -23.617  0.00  0.00    -0.166 F 
ATOM     18  F   UNL d   1      32.742  18.568 -22.777  0.00  0.00    -0.166 F 
ENDBRANCH   2  15
TORSDOF 2
ENDMDL
MODEL 8
REMARK VINA RESULT:      -1.5      5.303      6.498
REMARK  2 active torsions:
REMARK  status: ('A' for Active; 'I' for Inactive)
REMARK    1  A    between atoms: C_4  and  C_1 
REMARK    2  A    between atoms: C_2  and  C_7 
ROOT
ATOM      1  C   UNL d   1      32.970  21.648 -21.445  0.00  0.00     0.003 A 
ATOM      2  C   UNL d   1      33.076  20.337 -22.001  0.00  0.00     0.071 A 
ATOM      3  C   UNL d   1      32.950  20.825 -21.350  0.00  0.00     0.004 A 
ATOM      4  C   UNL d   1      33.114  21.979 -22.181  0.00  0.00     0.000 A 
ATOM      5  C   UNL d   1      33.222  20.664 -22.746  0.00  0.00     0.004 A 
ATOM      6  C   UNL d   1      33.241  21.492 -22.835  0.00  0.00    -0.000 A 
ENDROOT
BRANCH   1   7
ATOM      7  C   UNL d   1      32.844  22.135 -20.791  0.00  0.00     0.042 A 
ATOM      8  C   UNL d   1      33.104  21.899 -20.043  0.00  0.00     0.045 A 
ATOM      9  C   UNL d   1      32.978  22.385 -19.389  0.00  0.00     0.196 A 
ATOM     10  O   UNL d   1      33.238  22.149 -18.640  0.00  0.00    -0.287 OA
ATOM     11  C   UNL d   1      32.591  23.108 -19.483  0.00  0.00     0.045 A 
ATOM     12  C   UNL d   1      32.330  23.344 -20.231  0.00  0.00     0.045 A 
ATOM     13  C   UNL d   1      32.457  22.857 -20.885  0.00  0.00     0.196 A 
ATOM     14  O   UNL d   1      32.196  23.094 -21.634  0.00  0.00    -0.287 OA
ENDBRANCH   1   7
BRANCH   2  15
ATOM     15  C   UNL d   1      33.058  19.517 -21.912  0.00  0.00     0.419 C 
ATOM     16  F   UNL d   1      33.041  18.770 -21.829  0.00  0.00    -0.166 F 
ATOM     17  F   UNL d   1      32.857  18.909 -22.490  0.00  0.00    -0.166 F 
ATOM     18  F   UNL d   1      33.235  19.034 -21.211  0.00  0.00    -0.166 F 
ENDBRANCH   2  15
TORSDOF 2
ENDMDL
MODEL 9
REMARK VINA RESULT:      -1.3      4.424      5.761
REMARK  2 active torsions:
REMARK  status: ('A' for Active; 'I' for Inactive)
REMARK    1  A    between atoms: C_4  and  C_1 
REMARK    2  A    between atoms: C_2  and  C_7 
ROOT
ATOM      1  C   UNL d   1      32.938  20.531 -21.653  0.00  0.00     0.003 A 
ATOM      2  C   UNL d   1      32.526  21.754 -21.042  0.00  0.00     0.071 A 
ATOM      3  C   UNL d   1      32.579  21.276 -21.709  0.00  0.00     0.004 A 
ATOM      4  C   UNL d   1      33.241  20.268 -20.938  0.00  0.00     0.000 A 
ATOM      5  C   UNL d   1      32.829  21.496 -20.317  0.00  0.00     0.004 A 
ATOM      6  C   UNL d   1      33.189  20.746 -20.267  0.00  0.00    -0.000 A 
ENDROOT
BRANCH   1   7
ATOM      7  C   UNL d   1      32.990  20.054 -22.323  0.00  0.00     0.042 A 
ATOM      8  C   UNL d   1      32.890  19.236 -22.258  0.00  0.00     0.045 A 
ATOM      9  C   UNL d   1      32.941  18.759 -22.929  0.00  0.00     0.196 A 
ATOM     10  O   UNL d   1      32.841  17.940 -22.864  0.00  0.00    -0.287 OA
ATOM     11  C   UNL d   1      33.092  19.099 -23.665  0.00  0.00     0.045 A 
ATOM     12  C   UNL d   1      33.192  19.917 -23.730  0.00  0.00     0.045 A 
ATOM     13  C   UNL d   1      33.141  20.394 -23.059  0.00  0.00     0.196 A 
ATOM     14  O   UNL d   1      33.241  21.213 -23.125  0.00  0.00    -0.287 OA
ENDBRANCH   1   7
BRANCH   2  15
ATOM     15  C   UNL d   1      32.169  22.497 -21.092  0.00  0.00     0.419 C 
ATOM     16  F   UNL d   1      31.846  23.173 -21.139  0.00  0.00    -0.166 F 
ATOM     17  F   UNL d   1      31.361  22.728 -20.901  0.00  0.00    -0.166 F 
ATOM     18  F   UNL d   1      32.507  23.254 -21.352  0.00  0.00    -0.166 F 
ENDBRANCH   2  15
TORSDOF 2
ENDMDL
