MODEL 1
REMARK VINA RESULT:      59.9      0.000      0.000
REMARK  3 active torsions:
REMARK  status: ('A' for Active; 'I' for Inactive)
REMARK    1  A    between atoms: C_11  and  C_4 
REMARK    2  A    between atoms: N_14  and  C_7 
REMARK    3  A    between atoms: C_10  and  C_12 
ROOT
ATOM      1  C   UNL d   1      58.953  49.372  51.181  0.00  0.00     0.186 A 
ATOM      2  N   UNL d   1      58.285  49.510  51.648  0.00  0.00    -0.193 N 
ATOM      3  N   UNL d   1      58.870  49.262  50.359  0.00  0.00    -0.204 NA
ATOM      4  C   UNL d   1      59.615  49.373  51.675  0.00  0.00     0.140 A 
ATOM      5  N   UNL d   1      58.531  49.597  52.435  0.00  0.00    -0.058 NA
ATOM      6  N   UNL d   1      59.356  49.512  52.452  0.00  0.00    -0.127 NA
ATOM      7  C   UNL d   1      58.111  49.290  50.001  0.00  0.00     0.188 A 
ATOM      8  C   UNL d   1      57.448  49.429  50.480  0.00  0.00     0.056 A 
ATOM      9  C   UNL d   1      57.528  49.540  51.302  0.00  0.00     0.089 A 
ATOM     10  C   UNL d   1      56.698  49.459  50.134  0.00  0.00     0.005 A 
ATOM     11  C   UNL d   1      56.862  49.676  51.761  0.00  0.00     0.019 A 
ATOM     12  C   UNL d   1      56.033  49.596  50.601  0.00  0.00     0.000 A 
ATOM     13  C   UNL d   1      56.116  49.705  51.415  0.00  0.00     0.002 A 
ENDROOT
BRANCH   4  14
ATOM     14  C   UNL d   1      60.397  49.256  51.435  0.00  0.00     0.022 A 
ATOM     15  C   UNL d   1      60.568  48.682  50.869  0.00  0.00     0.005 A 
ATOM     16  C   UNL d   1      61.343  48.560  50.625  0.00  0.00     0.071 A 
ATOM     17  C   UNL d   1      61.953  49.013  50.947  0.00  0.00     0.004 A 
ATOM     18  C   UNL d   1      61.776  49.592  51.519  0.00  0.00    -0.000 A 
ATOM     19  C   UNL d   1      61.001  49.707  51.756  0.00  0.00     0.002 A 
BRANCH  16  20
ATOM     20  C   UNL d   1      61.514  47.987  50.060  0.00  0.00     0.419 C 
ATOM     21  F   UNL d   1      61.683  47.448  49.458  0.00  0.00    -0.166 F 
ATOM     22  F   UNL d   1      61.552  47.399  50.628  0.00  0.00    -0.166 F 
ATOM     23  F   UNL d   1      61.476  48.580  49.475  0.00  0.00    -0.166 F 
ENDBRANCH  16  20
ENDBRANCH   4  14
BRANCH   7  24
ATOM     24  N   UNL d   1      58.028  49.182  49.188  0.00  0.00    -0.108 NA
ATOM     25  N   UNL d   1      57.287  49.294  48.829  0.00  0.00    -0.021 N 
ENDBRANCH   7  24
TORSDOF 3
ENDMDL
