MODEL 1
REMARK VINA RESULT:      -1.6      0.000      0.000
REMARK  5 active torsions:
REMARK  status: ('A' for Active; 'I' for Inactive)
REMARK    1  A    between atoms: C_3  and  S_1 
REMARK    2  A    between atoms: N_6  and  S_1 
REMARK    3  A    between atoms: S_2  and  N_4 
REMARK    4  A    between atoms: C_10  and  S_2 
REMARK    5  A    between atoms: N_4  and  C_5 
ROOT
ATOM      1  C   UNL d   1      30.842  16.216 -23.947  0.00  0.00     0.105 A 
ATOM      2  C   UNL d   1      32.218  16.466 -23.674  0.00  0.00     0.076 A 
ATOM      3  C   UNL d   1      31.433  16.557 -23.469  0.00  0.00     0.031 A 
ATOM      4  C   UNL d   1      31.060  15.793 -24.618  0.00  0.00     0.012 A 
ATOM      5  C   UNL d   1      32.436  16.041 -24.348  0.00  0.00     0.017 A 
ATOM      6  C   UNL d   1      31.861  15.703 -24.824  0.00  0.00     0.002 A 
ATOM      7  C   UNL d   1      33.237  15.951 -24.554  0.00  0.00     0.002 C 
ATOM      8  C   UNL d   1      30.469  15.453 -25.096  0.00  0.00     0.001 C 
ENDROOT
BRANCH   2   9
ATOM      9  N   UNL d   1      32.786  16.814 -23.182  0.00  0.00    -0.229 N 
ATOM     10  C   UNL d   1      33.241  16.341 -22.708  0.00  0.00     0.111 C 
BRANCH   9  11
ATOM     11  S   UNL d   1      32.878  17.622 -23.184  0.00  0.00     0.271 S 
ATOM     12  O   UNL d   1      32.709  17.643 -22.380  0.00  0.00    -0.200 OA
ATOM     13  O   UNL d   1      33.050  17.620 -23.997  0.00  0.00    -0.200 OA
BRANCH  11  14
ATOM     14  C   UNL d   1      32.970  18.456 -23.177  0.00  0.00     0.104 A 
ATOM     15  C   UNL d   1      33.122  18.860 -23.879  0.00  0.00     0.013 A 
ATOM     16  C   UNL d   1      33.212  19.669 -23.868  0.00  0.00     0.001 A 
ATOM     17  C   UNL d   1      33.148  20.073 -23.145  0.00  0.00     0.000 A 
ATOM     18  C   UNL d   1      33.000  19.678 -22.461  0.00  0.00     0.001 A 
ATOM     19  C   UNL d   1      33.238  20.906 -23.122  0.00  0.00     0.000 C 
ATOM     20  C   UNL d   1      32.908  18.862 -22.462  0.00  0.00     0.013 A 
ENDBRANCH  11  14
ENDBRANCH   9  11
ENDBRANCH   2   9
BRANCH   1  21
ATOM     21  S   UNL d   1      30.040  16.298 -23.754  0.00  0.00     0.271 S 
ATOM     22  O   UNL d   1      30.090  15.645 -23.230  0.00  0.00    -0.200 OA
ATOM     23  O   UNL d   1      29.986  16.953 -24.279  0.00  0.00    -0.200 OA
BRANCH  21  24
ATOM     24  N   UNL d   1      29.238  16.383 -23.564  0.00  0.00    -0.229 N 
ATOM     25  C   UNL d   1      28.833  17.065 -23.770  0.00  0.00     0.092 A 
ATOM     26  C   UNL d   1      28.028  17.164 -23.586  0.00  0.00     0.020 A 
ATOM     27  C   UNL d   1      27.634  16.564 -23.190  0.00  0.00     0.003 A 
ATOM     28  C   UNL d   1      28.045  15.875 -22.982  0.00  0.00     0.020 A 
ATOM     29  C   UNL d   1      26.849  16.644 -23.002  0.00  0.00     0.000 C 
ATOM     30  C   UNL d   1      28.823  15.794 -23.167  0.00  0.00     0.092 A 
ENDBRANCH  21  24
ENDBRANCH   1  21
TORSDOF 5
ENDMDL
MODEL 2
REMARK VINA RESULT:       0.5      1.994      4.991
REMARK  5 active torsions:
REMARK  status: ('A' for Active; 'I' for Inactive)
REMARK    1  A    between atoms: C_3  and  S_1 
REMARK    2  A    between atoms: N_6  and  S_1 
REMARK    3  A    between atoms: S_2  and  N_4 
REMARK    4  A    between atoms: C_10  and  S_2 
REMARK    5  A    between atoms: N_4  and  C_5 
ROOT
ATOM      1  C   UNL d   1      32.822  19.706 -22.228  0.00  0.00     0.105 A 
ATOM      2  C   UNL d   1      32.797  18.621 -23.150  0.00  0.00     0.076 A 
ATOM      3  C   UNL d   1      32.673  19.412 -22.993  0.00  0.00     0.031 A 
ATOM      4  C   UNL d   1      33.092  19.194 -21.644  0.00  0.00     0.012 A 
ATOM      5  C   UNL d   1      33.068  18.107 -22.563  0.00  0.00     0.017 A 
ATOM      6  C   UNL d   1      33.217  18.388 -21.808  0.00  0.00     0.002 A 
ATOM      7  C   UNL d   1      33.194  17.300 -22.727  0.00  0.00     0.002 C 
ATOM      8  C   UNL d   1      33.240  19.488 -20.879  0.00  0.00     0.001 C 
ENDROOT
BRANCH   2   9
ATOM      9  N   UNL d   1      32.642  18.353 -23.918  0.00  0.00    -0.229 N 
ATOM     10  C   UNL d   1      33.241  18.348 -24.464  0.00  0.00     0.111 C 
BRANCH   9  11
ATOM     11  S   UNL d   1      31.894  18.101 -24.113  0.00  0.00     0.271 S 
ATOM     12  O   UNL d   1      31.858  18.665 -24.709  0.00  0.00    -0.200 OA
ATOM     13  O   UNL d   1      31.913  17.525 -23.513  0.00  0.00    -0.200 OA
BRANCH  11  14
ATOM     14  C   UNL d   1      31.122  17.846 -24.319  0.00  0.00     0.104 A 
ATOM     15  C   UNL d   1      30.481  18.358 -24.234  0.00  0.00     0.013 A 
ATOM     16  C   UNL d   1      29.734  18.107 -24.435  0.00  0.00     0.001 A 
ATOM     17  C   UNL d   1      29.631  17.335 -24.724  0.00  0.00     0.000 A 
ATOM     18  C   UNL d   1      30.256  16.836 -24.807  0.00  0.00     0.001 A 
ATOM     19  C   UNL d   1      28.865  17.065 -24.934  0.00  0.00     0.000 C 
ATOM     20  C   UNL d   1      31.014  17.080 -24.607  0.00  0.00     0.013 A 
ENDBRANCH  11  14
ENDBRANCH   9  11
ENDBRANCH   2   9
BRANCH   1  21
ATOM     21  S   UNL d   1      32.701  20.506 -22.050  0.00  0.00     0.271 S 
ATOM     22  O   UNL d   1      32.181  20.299 -21.426  0.00  0.00    -0.200 OA
ATOM     23  O   UNL d   1      33.223  20.719 -22.674  0.00  0.00    -0.200 OA
BRANCH  21  24
ATOM     24  N   UNL d   1      32.584  21.308 -21.875  0.00  0.00    -0.229 N 
ATOM     25  C   UNL d   1      32.832  21.888 -22.398  0.00  0.00     0.092 A 
ATOM     26  C   UNL d   1      32.720  22.696 -22.235  0.00  0.00     0.020 A 
ATOM     27  C   UNL d   1      32.354  22.913 -21.535  0.00  0.00     0.003 A 
ATOM     28  C   UNL d   1      32.103  22.327 -21.007  0.00  0.00     0.020 A 
ATOM     29  C   UNL d   1      32.237  23.697 -21.360  0.00  0.00     0.000 C 
ATOM     30  C   UNL d   1      32.218  21.549 -21.178  0.00  0.00     0.092 A 
ENDBRANCH  21  24
ENDBRANCH   1  21
TORSDOF 5
ENDMDL
