MODEL 1
REMARK VINA RESULT:      19.3      0.000      0.000
REMARK  11 active torsions:
REMARK  status: ('A' for Active; 'I' for Inactive)
REMARK    1  A    between atoms: C_2  and  C_1 
REMARK       I    between atoms: N_5  and  C_1 
REMARK    2  A    between atoms: C_4  and  C_2 
REMARK    3  A    between atoms: C_3  and  C_4 
REMARK    4  A    between atoms: O_10  and  C_3 
REMARK    5  A    between atoms: N_9  and  C_4 
REMARK    6  A    between atoms: C_8  and  N_5 
REMARK    7  A    between atoms: C_17  and  N_9 
REMARK    8  A    between atoms: O_16  and  C_11 
REMARK    9  A    between atoms: C_19  and  C_17 
REMARK   10  A    between atoms: C_21  and  C_19 
REMARK   11  A    between atoms: C_20  and  C_21 
ROOT
ATOM      1  C   UNK d   1      14.993  12.644  -1.449  0.00  0.00     0.084 C 
ENDROOT
BRANCH   1   2
ATOM      2  C   UNK d   1      15.138  13.422  -1.197  0.00  0.00     0.259 C 
ATOM      3  N   UNK d   1      14.744  14.049  -1.555  0.00  0.00    -0.321 N 
ATOM      4  H   UNK d   1      14.203  13.910  -2.164  0.00  0.00     0.169 HD
ATOM      5  O   UNK d   1      15.677  13.554  -0.591  0.00  0.00    -0.267 OA
BRANCH   3   6
ATOM      6  C   UNK d   1      14.895  14.829  -1.295  0.00  0.00     0.059 A 
ATOM      7  C   UNK d   1      14.751  15.462  -1.799  0.00  0.00     0.019 A 
ATOM      8  C   UNK d   1      14.901  16.229  -1.539  0.00  0.00     0.026 A 
ATOM      9  C   UNK d   1      15.195  16.365  -0.780  0.00  0.00     0.094 A 
ATOM     10  C   UNK d   1      15.338  15.724  -0.279  0.00  0.00     0.026 A 
ATOM     11  C   UNK d   1      15.186  14.954  -0.544  0.00  0.00     0.019 A 
BRANCH   9  12
ATOM     12  O   UNK d   1      15.346  17.131  -0.521  0.00  0.00    -0.328 OA
ATOM     13  C   UNK d   1      15.684  17.678  -1.032  0.00  0.00     0.181 C 
ENDBRANCH   9  12
ENDBRANCH   3   6
ENDBRANCH   1   2
BRANCH   1  14
ATOM     14  C   UNK d   1      14.306  12.258  -1.230  0.00  0.00     0.124 C 
BRANCH  14  15
ATOM     15  C   UNK d   1      14.233  11.942  -0.473  0.00  0.00     0.194 C 
ATOM     16  O   UNK d   1      14.911  11.784  -0.017  0.00  0.00    -0.645 OA
BRANCH  15  17
ATOM     17  O   UNK d   1      13.491  11.781  -0.162  0.00  0.00    -0.772 OA
ATOM     18  H   UNK d   1      13.162  12.285   0.401  0.00  0.00     0.167 HD
ENDBRANCH  15  17
ENDBRANCH  14  15
BRANCH  14  19
ATOM     19  N   UNK d   1      13.682  12.185  -1.774  0.00  0.00    -0.347 N 
ATOM     20  H   UNK d   1      12.924  12.431  -1.560  0.00  0.00     0.166 HD
BRANCH  19  21
ATOM     21  C   UNK d   0      13.820  11.867  -2.521  0.00  0.00     0.073 C 
BRANCH  21  22
ATOM     22  C   UNK d   0      13.507  12.238  -3.188  0.00  0.00     0.018 C 
BRANCH  22  23
ATOM     23  C   UNK d   0      13.290  11.779  -3.842  0.00  0.00     0.002 C 
BRANCH  23  24
ATOM     24  C   UNK d   0      12.798  12.085  -4.427  0.00  0.00     0.000 C 
ATOM     25  C   UNK d   0      13.049  12.745  -4.855  0.00  0.00     0.000 C 
ENDBRANCH  23  24
ENDBRANCH  22  23
ENDBRANCH  21  22
ENDBRANCH  19  21
ENDBRANCH  14  19
ENDBRANCH   1  14
TORSDOF 11
ENDMDL
MODEL 2
REMARK VINA RESULT:      22.1      2.280      3.957
REMARK  11 active torsions:
REMARK  status: ('A' for Active; 'I' for Inactive)
REMARK    1  A    between atoms: C_2  and  C_1 
REMARK       I    between atoms: N_5  and  C_1 
REMARK    2  A    between atoms: C_4  and  C_2 
REMARK    3  A    between atoms: C_3  and  C_4 
REMARK    4  A    between atoms: O_10  and  C_3 
REMARK    5  A    between atoms: N_9  and  C_4 
REMARK    6  A    between atoms: C_8  and  N_5 
REMARK    7  A    between atoms: C_17  and  N_9 
REMARK    8  A    between atoms: O_16  and  C_11 
REMARK    9  A    between atoms: C_19  and  C_17 
REMARK   10  A    between atoms: C_21  and  C_19 
REMARK   11  A    between atoms: C_20  and  C_21 
ROOT
ATOM      1  C   UNK d   1      13.086  11.779  -4.254  0.00  0.00     0.084 C 
ENDROOT
BRANCH   1   2
ATOM      2  C   UNK d   1      13.323  11.955  -3.477  0.00  0.00     0.259 C 
ATOM      3  N   UNK d   1      14.103  11.833  -3.248  0.00  0.00    -0.321 N 
ATOM      4  H   UNK d   1      14.655  11.536  -3.786  0.00  0.00     0.169 HD
ATOM      5  O   UNK d   1      12.769  12.251  -2.947  0.00  0.00    -0.267 OA
BRANCH   3   6
ATOM      6  C   UNK d   1      14.332  12.013  -2.465  0.00  0.00     0.059 A 
ATOM      7  C   UNK d   1      13.783  11.962  -1.856  0.00  0.00     0.019 A 
ATOM      8  C   UNK d   1      14.013  12.140  -1.086  0.00  0.00     0.026 A 
ATOM      9  C   UNK d   1      14.789  12.368  -0.923  0.00  0.00     0.094 A 
ATOM     10  C   UNK d   1      15.337  12.418  -1.539  0.00  0.00     0.026 A 
ATOM     11  C   UNK d   1      15.101  12.238  -2.312  0.00  0.00     0.019 A 
BRANCH   9  12
ATOM     12  O   UNK d   1      15.019  12.546  -0.153  0.00  0.00    -0.328 OA
ATOM     13  C   UNK d   1      15.566  13.142  -0.014  0.00  0.00     0.181 C 
ENDBRANCH   9  12
ENDBRANCH   3   6
ENDBRANCH   1   2
BRANCH   1  14
ATOM     14  C   UNK d   1      13.140  12.345  -4.843  0.00  0.00     0.124 C 
BRANCH  14  15
ATOM     15  C   UNK d   1      13.526  12.170  -5.549  0.00  0.00     0.194 C 
ATOM     16  O   UNK d   1      13.095  12.106  -6.258  0.00  0.00    -0.645 OA
BRANCH  15  17
ATOM     17  O   UNK d   1      14.339  12.059  -5.560  0.00  0.00    -0.772 OA
ATOM     18  H   UNK d   1      14.719  11.740  -4.902  0.00  0.00     0.167 HD
ENDBRANCH  15  17
ENDBRANCH  14  15
BRANCH  14  19
ATOM     19  N   UNK d   1      12.804  13.096  -4.727  0.00  0.00    -0.347 N 
ATOM     20  H   UNK d   1      12.000  13.210  -4.874  0.00  0.00     0.166 HD
BRANCH  19  21
ATOM     21  C   UNK d   0      13.272  13.722  -4.466  0.00  0.00     0.073 C 
BRANCH  21  22
ATOM     22  C   UNK d   0      12.989  14.494  -4.517  0.00  0.00     0.018 C 
BRANCH  22  23
ATOM     23  C   UNK d   0      13.521  15.112  -4.659  0.00  0.00     0.002 C 
BRANCH  23  24
ATOM     24  C   UNK d   0      14.139  15.264  -4.137  0.00  0.00     0.000 C 
ATOM     25  C   UNK d   0      14.230  16.028  -3.837  0.00  0.00     0.000 C 
ENDBRANCH  23  24
ENDBRANCH  22  23
ENDBRANCH  21  22
ENDBRANCH  19  21
ENDBRANCH  14  19
ENDBRANCH   1  14
TORSDOF 11
ENDMDL
