MODEL 1
REMARK VINA RESULT:      13.7      0.000      0.000
REMARK  3 active torsions:
REMARK  status: ('A' for Active; 'I' for Inactive)
REMARK    1  A    between atoms: N_7  and  C_6 
REMARK       I    between atoms: C_8  and  N_7 
REMARK    2  A    between atoms: C_12  and  C_8 
REMARK    3  A    between atoms: C_16  and  C_12 
ROOT
ATOM      1  C   UNL d   1      46.418 -18.878  44.172  0.00  0.00     0.269 A 
ATOM      2  N   UNL d   1      46.504 -19.663  43.900  0.00  0.00    -0.239 N 
ATOM      3  C   UNL d   1      46.354 -18.399  43.502  0.00  0.00     0.079 A 
ATOM      4  C   UNL d   1      46.492 -19.654  43.090  0.00  0.00     0.267 A 
ATOM      5  C   UNL d   1      46.400 -18.879  42.832  0.00  0.00     0.063 A 
ATOM      6  C   UNL d   1      46.261 -17.587  43.421  0.00  0.00     0.089 A 
ATOM      7  O   UNL d   1      46.399 -18.625  44.955  0.00  0.00    -0.267 OA
ATOM      8  O   UNL d   1      46.562 -20.329  42.596  0.00  0.00    -0.267 OA
ATOM      9  C   UNL d   1      46.586 -20.330  44.378  0.00  0.00     0.105 C 
ATOM     10  C   UNL d   1      46.352 -18.548  42.083  0.00  0.00     0.005 A 
ATOM     11  C   UNL d   1      46.212 -17.252  42.668  0.00  0.00     0.019 A 
ATOM     12  C   UNL d   1      46.258 -17.732  41.999  0.00  0.00     0.002 A 
ENDROOT
BRANCH   6  13
ATOM     13  N   UNL d   1      46.215 -17.107  44.091  0.00  0.00    -0.208 NA
ATOM     14  C   UNL d   1      45.675 -16.486  44.111  0.00  0.00     0.279 C 
ATOM     15  O   UNL d   1      45.180 -16.340  43.469  0.00  0.00    -0.265 OA
BRANCH  14  16
ATOM     16  C   UNL d   1      45.629 -16.005  44.780  0.00  0.00     0.062 C 
BRANCH  16  17
ATOM     17  C   UNL d   1      45.580 -15.186  44.696  0.00  0.00     0.005 A 
ATOM     18  C   UNL d   1      44.842 -14.816  44.688  0.00  0.00     0.000 A 
ATOM     19  C   UNL d   1      44.787 -14.008  44.606  0.00  0.00     0.000 A 
ATOM     20  C   UNL d   1      45.477 -13.554  44.530  0.00  0.00     0.000 A 
ATOM     21  C   UNL d   1      46.214 -13.924  44.538  0.00  0.00     0.000 A 
ATOM     22  C   UNL d   1      46.263 -14.744  44.622  0.00  0.00     0.000 A 
ENDBRANCH  16  17
ENDBRANCH  14  16
ENDBRANCH   6  13
TORSDOF 3
ENDMDL
