MODEL 1
REMARK VINA RESULT:      -6.6      0.000      0.000
REMARK  3 active torsions:
REMARK  status: ('A' for Active; 'I' for Inactive)
REMARK    1  A    between atoms: C_8  and  C_1 
REMARK       I    between atoms: C_5  and  N_7 
REMARK    2  A    between atoms: C_10  and  C_5 
REMARK    3  A    between atoms: N_7  and  C_15 
ROOT
ATOM      1  C   UNL d   1     -41.443-122.705 -51.915  0.00  0.00     0.024 A 
ATOM      2  C   UNL d   1     -41.334-123.459 -51.622  0.00  0.00     0.004 A 
ATOM      3  C   UNL d   1     -41.476-122.058 -51.407  0.00  0.00     0.004 A 
ATOM      4  C   UNL d   1     -41.286-122.930 -50.293  0.00  0.00     0.085 A 
ATOM      5  C   UNL d   1     -41.397-122.167 -50.593  0.00  0.00     0.019 A 
ATOM      6  C   UNL d   1     -41.254-123.575 -50.809  0.00  0.00     0.019 A 
ENDROOT
BRANCH   1   7
ATOM      7  C   UNL d   1     -41.523-122.592 -52.734  0.00  0.00     0.112 A 
ATOM      8  S   UNL d   1     -41.123-123.026 -53.326  0.00  0.00    -0.047 SA
ATOM      9  C   UNL d   1     -41.367-122.730 -54.065  0.00  0.00     0.130 A 
ATOM     10  N   UNL d   1     -41.163-122.937 -54.838  0.00  0.00    -0.236 NA
ATOM     11  C   UNL d   1     -41.914-122.116 -53.931  0.00  0.00     0.106 A 
ATOM     12  C   UNL d   1     -41.502-122.536 -55.477  0.00  0.00     0.100 A 
ATOM     13  C   UNL d   1     -42.051-121.920 -55.339  0.00  0.00     0.022 A 
ATOM     14  C   UNL d   1     -42.251-121.716 -54.567  0.00  0.00     0.023 A 
ATOM     15  N   UNL d   1     -42.004-122.038 -53.097  0.00  0.00    -0.237 NA
ENDBRANCH   1   7
BRANCH   4  16
ATOM     16  N   UNL d   1     -41.206-123.047 -49.476  0.00  0.00    -0.206 NA
ATOM     17  C   UNL d   1     -41.879-123.145 -49.012  0.00  0.00     0.302 C 
ATOM     18  O   UNL d   1     -42.630-123.129 -49.349  0.00  0.00    -0.263 OA
BRANCH  17  19
ATOM     19  C   UNL d   1     -41.800-123.261 -48.203  0.00  0.00     0.158 A 
ATOM     20  O   UNL d   1     -41.138-123.567 -47.814  0.00  0.00    -0.300 OA
ATOM     21  C   UNL d   1     -41.307-123.583 -47.010  0.00  0.00     0.123 A 
ATOM     22  C   UNL d   1     -42.073-123.288 -46.893  0.00  0.00     0.029 A 
ATOM     23  C   UNL d   1     -42.380-123.089 -47.629  0.00  0.00     0.032 A 
ENDBRANCH  17  19
ENDBRANCH   4  16
TORSDOF 3
ENDMDL
MODEL 2
REMARK VINA RESULT:      -6.6      1.811      5.514
REMARK  3 active torsions:
REMARK  status: ('A' for Active; 'I' for Inactive)
REMARK    1  A    between atoms: C_8  and  C_1 
REMARK       I    between atoms: C_5  and  N_7 
REMARK    2  A    between atoms: C_10  and  C_5 
REMARK    3  A    between atoms: N_7  and  C_15 
ROOT
ATOM      1  C   UNL d   1     -41.561-122.920 -50.750  0.00  0.00     0.024 A 
ATOM      2  C   UNL d   1     -41.549-123.549 -51.270  0.00  0.00     0.004 A 
ATOM      3  C   UNL d   1     -41.482-122.148 -51.024  0.00  0.00     0.004 A 
ATOM      4  C   UNL d   1     -41.376-122.638 -52.360  0.00  0.00     0.085 A 
ATOM      5  C   UNL d   1     -41.389-122.003 -51.831  0.00  0.00     0.019 A 
ATOM      6  C   UNL d   1     -41.456-123.412 -52.078  0.00  0.00     0.019 A 
ENDROOT
BRANCH   1   7
ATOM      7  C   UNL d   1     -41.654-123.062 -49.938  0.00  0.00     0.112 A 
ATOM      8  S   UNL d   1     -42.310-122.826 -49.474  0.00  0.00    -0.047 SA
ATOM      9  C   UNL d   1     -42.173-123.083 -48.694  0.00  0.00     0.130 A 
ATOM     10  N   UNL d   1     -42.619-123.010 -48.003  0.00  0.00    -0.236 NA
ATOM     11  C   UNL d   1     -41.438-123.474 -48.674  0.00  0.00     0.106 A 
ATOM     12  C   UNL d   1     -42.336-123.327 -47.293  0.00  0.00     0.100 A 
ATOM     13  C   UNL d   1     -41.598-123.720 -47.276  0.00  0.00     0.022 A 
ATOM     14  C   UNL d   1     -41.156-123.790 -47.967  0.00  0.00     0.023 A 
ATOM     15  N   UNL d   1     -41.123-123.457 -49.455  0.00  0.00    -0.237 NA
ENDBRANCH   1   7
BRANCH   4  16
ATOM     16  N   UNL d   1     -41.283-122.500 -53.172  0.00  0.00    -0.206 NA
ATOM     17  C   UNL d   1     -41.935-122.283 -53.626  0.00  0.00     0.302 C 
ATOM     18  O   UNL d   1     -42.679-122.202 -53.282  0.00  0.00    -0.263 OA
BRANCH  17  19
ATOM     19  C   UNL d   1     -41.843-122.146 -54.430  0.00  0.00     0.158 A 
ATOM     20  O   UNL d   1     -41.130-122.147 -54.848  0.00  0.00    -0.300 OA
ATOM     21  C   UNL d   1     -41.304-121.985 -55.635  0.00  0.00     0.123 A 
ATOM     22  C   UNL d   1     -42.123-121.882 -55.711  0.00  0.00     0.029 A 
ATOM     23  C   UNL d   1     -42.459-121.982 -54.967  0.00  0.00     0.032 A 
ENDBRANCH  17  19
ENDBRANCH   4  16
TORSDOF 3
ENDMDL
