MODEL 1
REMARK VINA RESULT:      38.6      0.000      0.000
REMARK  8 active torsions:
REMARK  status: ('A' for Active; 'I' for Inactive)
REMARK    1  A    between atoms: C_4  and  C_1 
REMARK    2  A    between atoms: N_6  and  C_3 
REMARK    3  A    between atoms: O_18  and  C_4 
REMARK       I    between atoms: C_7  and  N_6 
REMARK    4  A    between atoms: C_16  and  C_7 
REMARK    5  A    between atoms: C_10  and  C_8 
REMARK    6  A    between atoms: C_9  and  S_11 
REMARK    7  A    between atoms: S_11  and  C_16 
REMARK    8  A    between atoms: C_24  and  O_18 
ROOT
ATOM      1  N   UNL d   1      44.939 -13.990  38.229  0.00  0.00    -0.207 NA
ATOM      2  C   UNL d   1      45.204 -13.308  38.611  0.00  0.00     0.286 C 
ATOM      3  O   UNL d   1      45.896 -12.937  38.356  0.00  0.00    -0.265 OA
ENDROOT
BRANCH   2   4
ATOM      4  C   UNL d   1      44.779 -12.998  39.243  0.00  0.00     0.099 C 
BRANCH   4   5
ATOM      5  S   UNL d   1      45.102 -12.389  39.688  0.00  0.00    -0.061 SA
BRANCH   5   6
ATOM      6  C   UNL d   1      45.136 -12.447  40.511  0.00  0.00     0.133 A 
ATOM      7  N   UNL d   1      45.835 -12.649  40.886  0.00  0.00    -0.141 NA
ATOM      8  N   UNL d   1      45.869 -12.707  41.708  0.00  0.00    -0.148 NA
ATOM      9  C   UNL d   1      45.192 -12.560  42.163  0.00  0.00     0.104 A 
ATOM     10  C   UNL d   1      44.485 -12.355  41.787  0.00  0.00     0.023 A 
ATOM     11  C   UNL d   1      44.454 -12.299  40.967  0.00  0.00     0.029 A 
BRANCH   9  12
ATOM     12  C   UNL d   1      45.226 -12.617  42.985  0.00  0.00     0.039 A 
ATOM     13  C   UNL d   1      44.756 -13.158  43.372  0.00  0.00     0.101 A 
ATOM     14  N   UNL d   1      44.786 -13.219  44.187  0.00  0.00    -0.242 NA
ATOM     15  C   UNL d   1      45.299 -12.726  44.620  0.00  0.00     0.099 A 
ATOM     16  C   UNL d   1      45.770 -12.184  44.227  0.00  0.00     0.021 A 
ATOM     17  C   UNL d   1      45.743 -12.120  43.404  0.00  0.00     0.005 A 
ENDBRANCH   9  12
ENDBRANCH   5   6
ENDBRANCH   4   5
ENDBRANCH   2   4
BRANCH   1  18
ATOM     18  C   UNL d   1      45.362 -14.298  37.600  0.00  0.00     0.090 A 
ATOM     19  C   UNL d   1      45.034 -14.894  37.133  0.00  0.00     0.081 A 
ATOM     20  C   UNL d   1      45.459 -15.204  36.501  0.00  0.00     0.007 A 
ATOM     21  C   UNL d   1      46.211 -14.922  36.331  0.00  0.00     0.000 A 
ATOM     22  C   UNL d   1      46.551 -14.319  36.797  0.00  0.00     0.002 A 
ATOM     23  C   UNL d   1      46.118 -14.013  37.430  0.00  0.00     0.019 A 
BRANCH  19  24
ATOM     24  C   UNL d   1      44.283 -15.172  37.308  0.00  0.00     0.302 C 
ATOM     25  O   UNL d   1      44.141 -15.538  38.029  0.00  0.00    -0.259 OA
BRANCH  24  26
ATOM     26  O   UNL d   1      43.671 -15.086  36.766  0.00  0.00    -0.271 OA
BRANCH  26  27
ATOM     27  C   UNL d   1      43.211 -15.739  36.559  0.00  0.00     0.126 C 
ATOM     28  C   UNL d   1      42.416 -15.631  36.356  0.00  0.00     0.029 C 
ENDBRANCH  26  27
ENDBRANCH  24  26
ENDBRANCH  19  24
ENDBRANCH   1  18
TORSDOF 8
ENDMDL
MODEL 2
REMARK VINA RESULT:      39.4      4.687      7.080
REMARK  8 active torsions:
REMARK  status: ('A' for Active; 'I' for Inactive)
REMARK    1  A    between atoms: C_4  and  C_1 
REMARK    2  A    between atoms: N_6  and  C_3 
REMARK    3  A    between atoms: O_18  and  C_4 
REMARK       I    between atoms: C_7  and  N_6 
REMARK    4  A    between atoms: C_16  and  C_7 
REMARK    5  A    between atoms: C_10  and  C_8 
REMARK    6  A    between atoms: C_9  and  S_11 
REMARK    7  A    between atoms: S_11  and  C_16 
REMARK    8  A    between atoms: C_24  and  O_18 
ROOT
ATOM      1  N   UNL d   1      46.248 -18.502  41.900  0.00  0.00    -0.207 NA
ATOM      2  C   UNL d   1      46.378 -18.768  41.130  0.00  0.00     0.286 C 
ATOM      3  O   UNL d   1      46.643 -19.540  41.002  0.00  0.00    -0.265 OA
ENDROOT
BRANCH   2   4
ATOM      4  C   UNL d   1      46.246 -18.267  40.492  0.00  0.00     0.099 C 
BRANCH   4   5
ATOM      5  S   UNL d   1      45.477 -18.130  40.238  0.00  0.00    -0.061 SA
BRANCH   5   6
ATOM      6  C   UNL d   1      45.334 -17.646  39.586  0.00  0.00     0.133 A 
ATOM      7  N   UNL d   1      45.929 -17.484  39.047  0.00  0.00    -0.141 NA
ATOM      8  N   UNL d   1      45.785 -16.999  38.396  0.00  0.00    -0.148 NA
ATOM      9  C   UNL d   1      45.033 -16.671  38.280  0.00  0.00     0.104 A 
ATOM     10  C   UNL d   1      44.430 -16.833  38.822  0.00  0.00     0.023 A 
ATOM     11  C   UNL d   1      44.576 -17.316  39.471  0.00  0.00     0.029 A 
BRANCH   9  12
ATOM     12  C   UNL d   1      44.889 -16.186  37.628  0.00  0.00     0.039 A 
ATOM     13  C   UNL d   1      45.375 -15.549  37.484  0.00  0.00     0.101 A 
ATOM     14  N   UNL d   1      45.236 -15.065  36.839  0.00  0.00    -0.242 NA
ATOM     15  C   UNL d   1      44.598 -15.228  36.330  0.00  0.00     0.099 A 
ATOM     16  C   UNL d   1      44.113 -15.870  36.478  0.00  0.00     0.021 A 
ATOM     17  C   UNL d   1      44.249 -16.360  37.128  0.00  0.00     0.005 A 
ENDBRANCH   9  12
ENDBRANCH   5   6
ENDBRANCH   4   5
ENDBRANCH   2   4
BRANCH   1  18
ATOM     18  C   UNL d   1      46.380 -19.001  42.535  0.00  0.00     0.090 A 
ATOM     19  C   UNL d   1      46.495 -18.689  43.290  0.00  0.00     0.081 A 
ATOM     20  C   UNL d   1      46.628 -19.190  43.928  0.00  0.00     0.007 A 
ATOM     21  C   UNL d   1      46.647 -20.004  43.816  0.00  0.00     0.000 A 
ATOM     22  C   UNL d   1      46.532 -20.329  43.057  0.00  0.00     0.002 A 
ATOM     23  C   UNL d   1      46.399 -19.818  42.422  0.00  0.00     0.019 A 
BRANCH  19  24
ATOM     24  C   UNL d   1      46.476 -17.876  43.394  0.00  0.00     0.302 C 
ATOM     25  O   UNL d   1      46.609 -17.380  42.754  0.00  0.00    -0.259 OA
BRANCH  24  26
ATOM     26  O   UNL d   1      46.323 -17.556  44.136  0.00  0.00    -0.271 OA
BRANCH  26  27
ATOM     27  C   UNL d   1      45.798 -16.923  44.210  0.00  0.00     0.126 C 
ATOM     28  C   UNL d   1      45.663 -16.590  44.954  0.00  0.00     0.029 C 
ENDBRANCH  26  27
ENDBRANCH  24  26
ENDBRANCH  19  24
ENDBRANCH   1  18
TORSDOF 8
ENDMDL
