MODEL 1
REMARK VINA RESULT:      -6.0      0.000      0.000
REMARK  2 active torsions:
REMARK  status: ('A' for Active; 'I' for Inactive)
REMARK    1  A    between atoms: C_3  and  C_1 
REMARK       I    between atoms: N_6  and  C_3 
REMARK    2  A    between atoms: C_11  and  N_6 
ROOT
ATOM      1  C   UNL d   1     -41.359-122.495 -52.040  0.00  0.00     0.121 A 
ATOM      2  C   UNL d   1     -41.253-121.751 -52.415  0.00  0.00     0.305 A 
ATOM      3  C   UNL d   1     -41.403-123.180 -52.499  0.00  0.00     0.012 A 
ATOM      4  O   UNL d   1     -41.192-121.699 -53.245  0.00  0.00    -0.273 OA
ATOM      5  C   UNL d   1     -41.342-123.126 -53.321  0.00  0.00     0.023 A 
ATOM      6  C   UNL d   1     -41.238-122.395 -53.690  0.00  0.00     0.103 A 
ATOM      7  O   UNL d   1     -41.202-121.022 -51.983  0.00  0.00    -0.259 OA
ATOM      8  C   UNL d   1     -41.388-123.816 -53.756  0.00  0.00     0.002 A 
ATOM      9  C   UNL d   1     -41.178-122.335 -54.503  0.00  0.00     0.025 A 
ATOM     10  C   UNL d   1     -41.224-123.033 -54.950  0.00  0.00     0.002 A 
ATOM     11  C   UNL d   1     -41.329-123.777 -54.575  0.00  0.00     0.000 A 
ENDROOT
BRANCH   1  12
ATOM     12  C   UNL d   1     -41.422-122.565 -51.205  0.00  0.00     0.284 C 
ATOM     13  N   UNL d   1     -41.749-123.240 -50.862  0.00  0.00    -0.208 NA
ATOM     14  O   UNL d   1     -41.143-121.930 -50.741  0.00  0.00    -0.265 OA
BRANCH  13  15
ATOM     15  C   UNL d   1     -41.804-123.295 -50.035  0.00  0.00     0.085 A 
ATOM     16  C   UNL d   1     -42.522-123.158 -49.651  0.00  0.00     0.019 A 
ATOM     17  C   UNL d   1     -42.565-123.213 -48.851  0.00  0.00     0.002 A 
ATOM     18  C   UNL d   1     -43.279-123.077 -48.469  0.00  0.00     0.000 C 
ATOM     19  C   UNL d   1     -41.903-123.405 -48.408  0.00  0.00     0.000 A 
ATOM     20  C   UNL d   1     -41.166-123.546 -48.803  0.00  0.00     0.002 A 
ATOM     21  C   UNL d   1     -41.967-123.459 -47.573  0.00  0.00     0.000 C 
ATOM     22  C   UNL d   1     -41.131-123.488 -49.619  0.00  0.00     0.019 A 
ENDBRANCH  13  15
ENDBRANCH   1  12
TORSDOF 2
ENDMDL
MODEL 2
REMARK VINA RESULT:      -5.6      0.992      4.586
REMARK  2 active torsions:
REMARK  status: ('A' for Active; 'I' for Inactive)
REMARK    1  A    between atoms: C_3  and  C_1 
REMARK       I    between atoms: N_6  and  C_3 
REMARK    2  A    between atoms: C_11  and  N_6 
ROOT
ATOM      1  C   UNL d   1     -41.943-122.542 -51.062  0.00  0.00     0.121 A 
ATOM      2  C   UNL d   1     -42.593-122.162 -50.690  0.00  0.00     0.305 A 
ATOM      3  C   UNL d   1     -41.460-123.048 -50.624  0.00  0.00     0.012 A 
ATOM      4  O   UNL d   1     -42.753-122.293 -49.882  0.00  0.00    -0.273 OA
ATOM      5  C   UNL d   1     -41.622-123.176 -49.824  0.00  0.00     0.023 A 
ATOM      6  C   UNL d   1     -42.260-122.803 -49.457  0.00  0.00     0.103 A 
ATOM      7  O   UNL d   1     -43.114-121.634 -51.102  0.00  0.00    -0.259 OA
ATOM      8  C   UNL d   1     -41.132-123.681 -49.408  0.00  0.00     0.002 A 
ATOM      9  C   UNL d   1     -42.425-122.925 -48.666  0.00  0.00     0.025 A 
ATOM     10  C   UNL d   1     -41.931-123.437 -48.238  0.00  0.00     0.002 A 
ATOM     11  C   UNL d   1     -41.281-123.816 -48.611  0.00  0.00     0.000 A 
ENDROOT
BRANCH   1  12
ATOM     12  C   UNL d   1     -41.766-122.422 -51.875  0.00  0.00     0.284 C 
ATOM     13  N   UNL d   1     -42.110-122.895 -52.456  0.00  0.00    -0.208 NA
ATOM     14  O   UNL d   1     -41.233-121.810 -52.069  0.00  0.00    -0.265 OA
BRANCH  13  15
ATOM     15  C   UNL d   1     -41.926-122.765 -53.255  0.00  0.00     0.085 A 
ATOM     16  C   UNL d   1     -42.347-122.212 -53.700  0.00  0.00     0.019 A 
ATOM     17  C   UNL d   1     -42.161-122.093 -54.472  0.00  0.00     0.002 A 
ATOM     18  C   UNL d   1     -42.581-121.542 -54.914  0.00  0.00     0.000 C 
ATOM     19  C   UNL d   1     -41.556-122.515 -54.827  0.00  0.00     0.000 A 
ATOM     20  C   UNL d   1     -41.123-123.083 -54.370  0.00  0.00     0.002 A 
ATOM     21  C   UNL d   1     -41.375-122.377 -55.635  0.00  0.00     0.000 C 
ATOM     22  C   UNL d   1     -41.319-123.198 -53.583  0.00  0.00     0.019 A 
ENDBRANCH  13  15
ENDBRANCH   1  12
TORSDOF 2
ENDMDL
