MODEL 1
REMARK VINA RESULT:      13.2      0.000      0.000
REMARK  2 active torsions:
REMARK  status: ('A' for Active; 'I' for Inactive)
REMARK    1  A    between atoms: C_6  and  C_1 
REMARK    2  A    between atoms: O_12  and  C_9 
ROOT
ATOM      1  C   UNL d   1     -54.949-102.156 -37.986  0.00  0.00     0.162 A 
ATOM      2  N   UNL d   1     -55.271-102.781 -37.507  0.00  0.00    -0.225 NA
ATOM      3  N   UNL d   1     -54.711-101.555 -37.472  0.00  0.00    -0.225 NA
ATOM      4  C   UNL d   1     -55.224-102.551 -36.736  0.00  0.00     0.101 A 
ATOM      5  C   UNL d   1     -54.868-101.774 -36.715  0.00  0.00     0.101 A 
ATOM      6  C   UNL d   1     -55.426-102.873 -36.004  0.00  0.00     0.021 A 
ATOM      7  C   UNL d   1     -54.749-101.396 -35.992  0.00  0.00     0.021 A 
ATOM      8  C   UNL d   1     -54.969-101.767 -35.316  0.00  0.00     0.002 A 
ATOM      9  C   UNL d   1     -55.313-102.518 -35.337  0.00  0.00     0.002 A 
ENDROOT
BRANCH   1  10
ATOM     10  C   UNL d   1     -54.889-102.160 -38.809  0.00  0.00     0.036 A 
ATOM     11  C   UNL d   1     -54.931-102.872 -39.222  0.00  0.00     0.005 A 
ATOM     12  C   UNL d   1     -54.872-102.876 -40.045  0.00  0.00     0.024 A 
ATOM     13  C   UNL d   1     -54.770-102.168 -40.454  0.00  0.00     0.094 A 
ATOM     14  C   UNL d   1     -54.728-101.451 -40.042  0.00  0.00     0.024 A 
ATOM     15  C   UNL d   1     -54.787-101.446 -39.219  0.00  0.00     0.005 A 
BRANCH  13  16
ATOM     16  O   UNL d   1     -54.711-102.172 -41.277  0.00  0.00    -0.328 OA
ATOM     17  C   UNL d   1     -54.740-101.770 -41.998  0.00  0.00     0.181 C 
ENDBRANCH  13  16
ENDBRANCH   1  10
TORSDOF 2
ENDMDL
