MODEL 1
REMARK VINA RESULT:      -4.9      0.000      0.000
REMARK  3 active torsions:
REMARK  status: ('A' for Active; 'I' for Inactive)
REMARK    1  A    between atoms: N_2  and  C_1 
REMARK    2  A    between atoms: C_5  and  C_1 
REMARK    3  A    between atoms: C_3  and  N_2 
ROOT
ATOM      1  N   UNL d   1     -41.532-121.880 -52.654  0.00  0.00    -0.233 NA
ENDROOT
BRANCH   1   2
ATOM      2  C   UNL d   1     -41.462-122.461 -53.222  0.00  0.00     0.153 C 
ATOM      3  S   UNL d   1     -41.129-123.195 -53.035  0.00  0.00    -0.056 SA
BRANCH   2   4
ATOM      4  C   UNL d   1     -41.725-122.322 -53.990  0.00  0.00     0.109 A 
ATOM      5  N   UNL d   1     -42.481-122.010 -54.118  0.00  0.00    -0.242 NA
ATOM      6  C   UNL d   1     -42.743-121.871 -54.886  0.00  0.00     0.099 A 
ATOM      7  C   UNL d   1     -42.254-122.042 -55.528  0.00  0.00     0.021 A 
ATOM      8  C   UNL d   1     -41.497-122.354 -55.409  0.00  0.00     0.003 A 
ATOM      9  C   UNL d   1     -41.231-122.495 -54.638  0.00  0.00     0.021 A 
ENDBRANCH   2   4
ENDBRANCH   1   2
BRANCH   1  10
ATOM     10  C   UNL d   1     -41.407-122.067 -51.854  0.00  0.00     0.082 A 
ATOM     11  C   UNL d   1     -41.248-121.459 -51.319  0.00  0.00     0.018 A 
ATOM     12  C   UNL d   1     -41.123-121.646 -50.520  0.00  0.00     0.002 A 
ATOM     13  C   UNL d   1     -41.215-120.676 -51.571  0.00  0.00     0.002 C 
ATOM     14  C   UNL d   1     -41.157-122.429 -50.268  0.00  0.00     0.000 A 
ATOM     15  C   UNL d   1     -41.317-123.028 -50.818  0.00  0.00     0.002 A 
ATOM     16  C   UNL d   1     -41.441-122.844 -51.608  0.00  0.00     0.019 A 
ATOM     17  C   UNL d   1     -41.352-123.817 -50.571  0.00  0.00     0.000 C 
ENDBRANCH   1  10
TORSDOF 3
ENDMDL
MODEL 2
REMARK VINA RESULT:      -4.5      1.065      3.776
REMARK  3 active torsions:
REMARK  status: ('A' for Active; 'I' for Inactive)
REMARK    1  A    between atoms: N_2  and  C_1 
REMARK    2  A    between atoms: C_5  and  C_1 
REMARK    3  A    between atoms: C_3  and  N_2 
ROOT
ATOM      1  N   UNL d   1     -41.702-123.001 -52.927  0.00  0.00    -0.233 NA
ENDROOT
BRANCH   1   2
ATOM      2  C   UNL d   1     -41.492-122.525 -52.299  0.00  0.00     0.153 C 
ATOM      3  S   UNL d   1     -41.123-121.796 -52.428  0.00  0.00    -0.056 SA
BRANCH   2   4
ATOM      4  C   UNL d   1     -41.648-122.767 -51.527  0.00  0.00     0.109 A 
ATOM      5  N   UNL d   1     -42.205-122.360 -51.070  0.00  0.00    -0.242 NA
ATOM      6  C   UNL d   1     -42.360-122.602 -50.299  0.00  0.00     0.099 A 
ATOM      7  C   UNL d   1     -41.961-123.251 -49.981  0.00  0.00     0.021 A 
ATOM      8  C   UNL d   1     -41.403-123.664 -50.430  0.00  0.00     0.003 A 
ATOM      9  C   UNL d   1     -41.246-123.422 -51.206  0.00  0.00     0.021 A 
ENDBRANCH   2   4
ENDBRANCH   1   2
BRANCH   1  10
ATOM     10  C   UNL d   1     -41.819-122.666 -53.679  0.00  0.00     0.082 A 
ATOM     11  C   UNL d   1     -41.549-123.069 -54.346  0.00  0.00     0.018 A 
ATOM     12  C   UNL d   1     -41.666-122.734 -55.096  0.00  0.00     0.002 A 
ATOM     13  C   UNL d   1     -41.168-123.795 -54.272  0.00  0.00     0.002 C 
ATOM     14  C   UNL d   1     -42.048-122.009 -55.170  0.00  0.00     0.000 A 
ATOM     15  C   UNL d   1     -42.313-121.616 -54.490  0.00  0.00     0.002 A 
ATOM     16  C   UNL d   1     -42.198-121.946 -53.747  0.00  0.00     0.019 A 
ATOM     17  C   UNL d   1     -42.698-120.886 -54.557  0.00  0.00     0.000 C 
ENDBRANCH   1  10
TORSDOF 3
ENDMDL
MODEL 3
REMARK VINA RESULT:      -4.4      2.059      3.142
REMARK  3 active torsions:
REMARK  status: ('A' for Active; 'I' for Inactive)
REMARK    1  A    between atoms: N_2  and  C_1 
REMARK    2  A    between atoms: C_5  and  C_1 
REMARK    3  A    between atoms: C_3  and  N_2 
ROOT
ATOM      1  N   UNL d   1     -42.277-122.972 -50.097  0.00  0.00    -0.233 NA
ENDROOT
BRANCH   1   2
ATOM      2  C   UNL d   1     -41.626-123.240 -50.511  0.00  0.00     0.153 C 
ATOM      3  S   UNL d   1     -41.129-123.817 -50.187  0.00  0.00    -0.056 SA
BRANCH   2   4
ATOM      4  C   UNL d   1     -41.459-122.937 -51.259  0.00  0.00     0.109 A 
ATOM      5  N   UNL d   1     -41.459-122.119 -51.383  0.00  0.00    -0.242 NA
ATOM      6  C   UNL d   1     -41.292-121.816 -52.130  0.00  0.00     0.099 A 
ATOM      7  C   UNL d   1     -41.125-122.328 -52.755  0.00  0.00     0.021 A 
ATOM      8  C   UNL d   1     -41.123-123.147 -52.641  0.00  0.00     0.003 A 
ATOM      9  C   UNL d   1     -41.290-123.453 -51.890  0.00  0.00     0.021 A 
ENDBRANCH   2   4
ENDBRANCH   1   2
BRANCH   1  10
ATOM     10  C   UNL d   1     -42.382-123.195 -49.304  0.00  0.00     0.082 A 
ATOM     11  C   UNL d   1     -43.100-123.529 -49.071  0.00  0.00     0.018 A 
ATOM     12  C   UNL d   1     -43.204-123.752 -48.278  0.00  0.00     0.002 A 
ATOM     13  C   UNL d   1     -43.706-123.640 -49.615  0.00  0.00     0.002 C 
ATOM     14  C   UNL d   1     -42.597-123.640 -47.734  0.00  0.00     0.000 A 
ATOM     15  C   UNL d   1     -41.882-123.304 -47.983  0.00  0.00     0.002 A 
ATOM     16  C   UNL d   1     -41.777-123.083 -48.767  0.00  0.00     0.019 A 
ATOM     17  C   UNL d   1     -41.267-123.189 -47.441  0.00  0.00     0.000 C 
ENDBRANCH   1  10
TORSDOF 3
ENDMDL
MODEL 4
REMARK VINA RESULT:      -3.9      1.871      4.120
REMARK  3 active torsions:
REMARK  status: ('A' for Active; 'I' for Inactive)
REMARK    1  A    between atoms: N_2  and  C_1 
REMARK    2  A    between atoms: C_5  and  C_1 
REMARK    3  A    between atoms: C_3  and  N_2 
ROOT
ATOM      1  N   UNL d   1     -41.634-122.447 -50.515  0.00  0.00    -0.233 NA
ENDROOT
BRANCH   1   2
ATOM      2  C   UNL d   1     -41.584-123.153 -50.109  0.00  0.00     0.153 C 
ATOM      3  S   UNL d   1     -41.234-123.815 -50.459  0.00  0.00    -0.056 SA
BRANCH   2   4
ATOM      4  C   UNL d   1     -41.882-123.211 -49.343  0.00  0.00     0.109 A 
ATOM      5  N   UNL d   1     -42.698-123.169 -49.213  0.00  0.00    -0.242 NA
ATOM      6  C   UNL d   1     -42.996-123.227 -48.447  0.00  0.00     0.099 A 
ATOM      7  C   UNL d   1     -42.482-123.328 -47.810  0.00  0.00     0.021 A 
ATOM      8  C   UNL d   1     -41.665-123.372 -47.931  0.00  0.00     0.003 A 
ATOM      9  C   UNL d   1     -41.363-123.313 -48.699  0.00  0.00     0.021 A 
ENDBRANCH   2   4
ENDBRANCH   1   2
BRANCH   1  10
ATOM     10  C   UNL d   1     -41.466-122.425 -51.328  0.00  0.00     0.082 A 
ATOM     11  C   UNL d   1     -41.293-121.701 -51.683  0.00  0.00     0.018 A 
ATOM     12  C   UNL d   1     -41.124-121.679 -52.496  0.00  0.00     0.002 A 
ATOM     13  C   UNL d   1     -41.286-121.007 -51.241  0.00  0.00     0.002 C 
ATOM     14  C   UNL d   1     -41.131-122.373 -52.938  0.00  0.00     0.000 A 
ATOM     15  C   UNL d   1     -41.306-123.093 -52.566  0.00  0.00     0.002 A 
ATOM     16  C   UNL d   1     -41.473-123.115 -51.762  0.00  0.00     0.019 A 
ATOM     17  C   UNL d   1     -41.314-123.795 -53.005  0.00  0.00     0.000 C 
ENDBRANCH   1  10
TORSDOF 3
ENDMDL
MODEL 5
REMARK VINA RESULT:      -3.4      0.840      3.634
REMARK  3 active torsions:
REMARK  status: ('A' for Active; 'I' for Inactive)
REMARK    1  A    between atoms: N_2  and  C_1 
REMARK    2  A    between atoms: C_5  and  C_1 
REMARK    3  A    between atoms: C_3  and  N_2 
ROOT
ATOM      1  N   UNL d   1     -41.476-122.356 -52.917  0.00  0.00    -0.233 NA
ENDROOT
BRANCH   1   2
ATOM      2  C   UNL d   1     -41.315-123.012 -52.459  0.00  0.00     0.153 C 
ATOM      3  S   UNL d   1     -41.126-123.736 -52.811  0.00  0.00    -0.056 SA
BRANCH   2   4
ATOM      4  C   UNL d   1     -41.341-122.958 -51.637  0.00  0.00     0.109 A 
ATOM      5  N   UNL d   1     -41.122-122.253 -51.262  0.00  0.00    -0.242 NA
ATOM      6  C   UNL d   1     -41.148-122.200 -50.441  0.00  0.00     0.099 A 
ATOM      7  C   UNL d   1     -41.391-122.848 -49.991  0.00  0.00     0.021 A 
ATOM      8  C   UNL d   1     -41.611-123.556 -50.358  0.00  0.00     0.003 A 
ATOM      9  C   UNL d   1     -41.586-123.612 -51.183  0.00  0.00     0.021 A 
ENDBRANCH   2   4
ENDBRANCH   1   2
BRANCH   1  10
ATOM     10  C   UNL d   1     -41.620-122.445 -53.730  0.00  0.00     0.082 A 
ATOM     11  C   UNL d   1     -42.083-121.885 -54.121  0.00  0.00     0.018 A 
ATOM     12  C   UNL d   1     -42.226-121.975 -54.933  0.00  0.00     0.002 A 
ATOM     13  C   UNL d   1     -42.399-121.244 -53.713  0.00  0.00     0.002 C 
ATOM     14  C   UNL d   1     -41.910-122.616 -55.341  0.00  0.00     0.000 A 
ATOM     15  C   UNL d   1     -41.446-123.170 -54.934  0.00  0.00     0.002 A 
ATOM     16  C   UNL d   1     -41.303-123.082 -54.130  0.00  0.00     0.019 A 
ATOM     17  C   UNL d   1     -41.125-123.817 -55.338  0.00  0.00     0.000 C 
ENDBRANCH   1  10
TORSDOF 3
ENDMDL
