MODEL 1
REMARK VINA RESULT:      -7.2      0.000      0.000
REMARK  6 active torsions:
REMARK  status: ('A' for Active; 'I' for Inactive)
REMARK    1  A    between atoms: C_2  and  C_1 
REMARK       I    between atoms: N_5  and  C_1 
REMARK    2  A    between atoms: C_4  and  C_2 
REMARK    3  A    between atoms: O_13  and  C_3 
REMARK    4  A    between atoms: C_9  and  C_4 
REMARK    5  A    between atoms: C_11  and  N_5 
REMARK    6  A    between atoms: O_14  and  C_6 
ROOT
ATOM      1  C   UNL d   1     -47.518  13.392  23.085  0.00  0.00     0.005 C 
ENDROOT
BRANCH   1   2
ATOM      2  C   UNL d   1     -47.815  14.121  22.832  0.00  0.00     0.062 C 
BRANCH   2   3
ATOM      3  C   UNL d   1     -48.590  14.339  23.016  0.00  0.00     0.279 C 
ATOM      4  N   UNL d   1     -48.886  14.997  22.741  0.00  0.00    -0.208 NA
ATOM      5  O   UNL d   1     -49.023  13.881  23.468  0.00  0.00    -0.265 OA
BRANCH   4   6
ATOM      6  C   UNL d   1     -49.612  15.201  22.913  0.00  0.00     0.085 A 
ATOM      7  C   UNL d   1     -49.726  15.683  23.518  0.00  0.00     0.019 A 
ATOM      8  C   UNL d   1     -50.448  15.892  23.698  0.00  0.00     0.002 A 
ATOM      9  C   UNL d   1     -51.062  15.618  23.268  0.00  0.00     0.000 A 
ATOM     10  C   UNL d   1     -50.939  15.135  22.662  0.00  0.00     0.002 A 
ATOM     11  C   UNL d   1     -50.212  14.922  22.480  0.00  0.00     0.019 A 
ENDBRANCH   4   6
ENDBRANCH   2   3
ENDBRANCH   1   2
BRANCH   1  12
ATOM     12  C   UNL d   1     -46.751  13.164  22.883  0.00  0.00     0.002 A 
ATOM     13  C   UNL d   1     -46.412  12.487  23.228  0.00  0.00     0.026 A 
ATOM     14  C   UNL d   1     -45.645  12.259  23.026  0.00  0.00     0.116 A 
ATOM     15  C   UNL d   1     -45.218  12.708  22.480  0.00  0.00     0.116 A 
ATOM     16  C   UNL d   1     -45.553  13.383  22.135  0.00  0.00     0.026 A 
ATOM     17  C   UNL d   1     -46.322  13.609  22.340  0.00  0.00     0.002 A 
BRANCH  14  18
ATOM     18  O   UNL d   1     -45.314  11.596  23.363  0.00  0.00    -0.326 OA
ATOM     19  C   UNL d   1     -45.802  11.016  23.694  0.00  0.00     0.181 C 
ENDBRANCH  14  18
BRANCH  15  20
ATOM     20  O   UNL d   1     -44.446  12.485  22.272  0.00  0.00    -0.326 OA
ATOM     21  C   UNL d   1     -44.048  12.876  21.662  0.00  0.00     0.181 C 
ENDBRANCH  15  20
ENDBRANCH   1  12
TORSDOF 6
ENDMDL
MODEL 2
REMARK VINA RESULT:      -6.6      0.649      1.482
REMARK  6 active torsions:
REMARK  status: ('A' for Active; 'I' for Inactive)
REMARK    1  A    between atoms: C_2  and  C_1 
REMARK       I    between atoms: N_5  and  C_1 
REMARK    2  A    between atoms: C_4  and  C_2 
REMARK    3  A    between atoms: O_13  and  C_3 
REMARK    4  A    between atoms: C_9  and  C_4 
REMARK    5  A    between atoms: C_11  and  N_5 
REMARK    6  A    between atoms: O_14  and  C_6 
ROOT
ATOM      1  C   UNL d   1     -48.027  12.611  23.157  0.00  0.00     0.005 C 
ENDROOT
BRANCH   1   2
ATOM      2  C   UNL d   1     -48.102  13.430  23.243  0.00  0.00     0.062 C 
BRANCH   2   3
ATOM      3  C   UNL d   1     -48.850  13.775  23.289  0.00  0.00     0.279 C 
ATOM      4  N   UNL d   1     -48.962  14.500  23.047  0.00  0.00    -0.208 NA
ATOM      5  O   UNL d   1     -49.446  13.369  23.577  0.00  0.00    -0.265 OA
BRANCH   4   6
ATOM      6  C   UNL d   1     -49.663  14.824  23.089  0.00  0.00     0.085 A 
ATOM      7  C   UNL d   1     -49.781  15.379  23.626  0.00  0.00     0.019 A 
ATOM      8  C   UNL d   1     -50.479  15.708  23.676  0.00  0.00     0.002 A 
ATOM      9  C   UNL d   1     -51.064  15.480  23.184  0.00  0.00     0.000 A 
ATOM     10  C   UNL d   1     -50.937  14.921  22.648  0.00  0.00     0.002 A 
ATOM     11  C   UNL d   1     -50.234  14.588  22.596  0.00  0.00     0.019 A 
ENDBRANCH   4   6
ENDBRANCH   2   3
ENDBRANCH   1   2
BRANCH   1  12
ATOM     12  C   UNL d   1     -47.288  12.252  23.231  0.00  0.00     0.002 A 
ATOM     13  C   UNL d   1     -46.612  12.620  22.914  0.00  0.00     0.026 A 
ATOM     14  C   UNL d   1     -45.872  12.261  22.989  0.00  0.00     0.116 A 
ATOM     15  C   UNL d   1     -45.809  11.536  23.380  0.00  0.00     0.116 A 
ATOM     16  C   UNL d   1     -46.481  11.168  23.697  0.00  0.00     0.026 A 
ATOM     17  C   UNL d   1     -47.221  11.531  23.620  0.00  0.00     0.002 A 
BRANCH  14  18
ATOM     18  O   UNL d   1     -45.211  12.620  22.679  0.00  0.00    -0.326 OA
ATOM     19  C   UNL d   1     -45.279  13.096  22.006  0.00  0.00     0.181 C 
ENDBRANCH  14  18
BRANCH  15  20
ATOM     20  O   UNL d   1     -45.069  11.170  23.459  0.00  0.00    -0.326 OA
ATOM     21  C   UNL d   1     -45.017  10.380  23.698  0.00  0.00     0.181 C 
ENDBRANCH  15  20
ENDBRANCH   1  12
TORSDOF 6
ENDMDL
MODEL 3
REMARK VINA RESULT:      -5.4      8.728      9.723
REMARK  6 active torsions:
REMARK  status: ('A' for Active; 'I' for Inactive)
REMARK    1  A    between atoms: C_2  and  C_1 
REMARK       I    between atoms: N_5  and  C_1 
REMARK    2  A    between atoms: C_4  and  C_2 
REMARK    3  A    between atoms: O_13  and  C_3 
REMARK    4  A    between atoms: C_9  and  C_4 
REMARK    5  A    between atoms: C_11  and  N_5 
REMARK    6  A    between atoms: O_14  and  C_6 
ROOT
ATOM      1  C   UNL d   1     -39.359  14.989  19.378  0.00  0.00     0.005 C 
ENDROOT
BRANCH   1   2
ATOM      2  C   UNL d   1     -39.648  14.522  19.995  0.00  0.00     0.062 C 
BRANCH   2   3
ATOM      3  C   UNL d   1     -39.182  14.381  20.662  0.00  0.00     0.279 C 
ATOM      4  N   UNL d   1     -39.400  13.860  21.188  0.00  0.00    -0.208 NA
ATOM      5  O   UNL d   1     -38.520  14.774  20.759  0.00  0.00    -0.265 OA
BRANCH   4   6
ATOM      6  C   UNL d   1     -38.963  13.728  21.813  0.00  0.00     0.085 A 
ATOM      7  C   UNL d   1     -39.122  14.126  22.466  0.00  0.00     0.019 A 
ATOM      8  C   UNL d   1     -38.690  14.000  23.095  0.00  0.00     0.002 A 
ATOM      9  C   UNL d   1     -38.093  13.472  23.071  0.00  0.00     0.000 A 
ATOM     10  C   UNL d   1     -37.940  13.077  22.410  0.00  0.00     0.002 A 
ATOM     11  C   UNL d   1     -38.374  13.202  21.775  0.00  0.00     0.019 A 
ENDBRANCH   4   6
ENDBRANCH   2   3
ENDBRANCH   1   2
BRANCH   1  12
ATOM     12  C   UNL d   1     -39.795  15.071  18.681  0.00  0.00     0.002 A 
ATOM     13  C   UNL d   1     -39.504  14.757  17.968  0.00  0.00     0.026 A 
ATOM     14  C   UNL d   1     -39.940  14.839  17.272  0.00  0.00     0.116 A 
ATOM     15  C   UNL d   1     -40.664  15.235  17.289  0.00  0.00     0.116 A 
ATOM     16  C   UNL d   1     -40.956  15.549  17.998  0.00  0.00     0.026 A 
ATOM     17  C   UNL d   1     -40.517  15.465  18.695  0.00  0.00     0.002 A 
BRANCH  14  18
ATOM     18  O   UNL d   1     -39.655  14.531  16.574  0.00  0.00    -0.326 OA
ATOM     19  C   UNL d   1     -38.928  14.137  16.564  0.00  0.00     0.181 C 
ENDBRANCH  14  18
BRANCH  15  20
ATOM     20  O   UNL d   1     -41.107  15.321  16.593  0.00  0.00    -0.326 OA
ATOM     21  C   UNL d   1     -41.704  15.891  16.546  0.00  0.00     0.181 C 
ENDBRANCH  15  20
ENDBRANCH   1  12
TORSDOF 6
ENDMDL
MODEL 4
REMARK VINA RESULT:      -5.3      1.710      5.240
REMARK  6 active torsions:
REMARK  status: ('A' for Active; 'I' for Inactive)
REMARK    1  A    between atoms: C_2  and  C_1 
REMARK       I    between atoms: N_5  and  C_1 
REMARK    2  A    between atoms: C_4  and  C_2 
REMARK    3  A    between atoms: O_13  and  C_3 
REMARK    4  A    between atoms: C_9  and  C_4 
REMARK    5  A    between atoms: C_11  and  N_5 
REMARK    6  A    between atoms: O_14  and  C_6 
ROOT
ATOM      1  C   UNL d   1     -47.318  12.284  22.946  0.00  0.00     0.005 C 
ENDROOT
BRANCH   1   2
ATOM      2  C   UNL d   1     -46.574  12.387  23.292  0.00  0.00     0.062 C 
BRANCH   2   3
ATOM      3  C   UNL d   1     -46.069  11.742  23.392  0.00  0.00     0.279 C 
ATOM      4  N   UNL d   1     -45.324  11.795  23.200  0.00  0.00    -0.208 NA
ATOM      5  O   UNL d   1     -46.346  11.077  23.681  0.00  0.00    -0.265 OA
BRANCH   4   6
ATOM      6  C   UNL d   1     -44.851  11.190  23.293  0.00  0.00     0.085 A 
ATOM      7  C   UNL d   1     -44.106  11.266  23.069  0.00  0.00     0.019 A 
ATOM      8  C   UNL d   1     -43.627  10.666  23.158  0.00  0.00     0.002 A 
ATOM      9  C   UNL d   1     -43.894   9.984  23.475  0.00  0.00     0.000 A 
ATOM     10  C   UNL d   1     -44.643   9.917  23.698  0.00  0.00     0.002 A 
ATOM     11  C   UNL d   1     -45.129  10.520  23.608  0.00  0.00     0.019 A 
ENDBRANCH   4   6
ENDBRANCH   2   3
ENDBRANCH   1   2
BRANCH   1  12
ATOM     12  C   UNL d   1     -47.852  12.912  22.916  0.00  0.00     0.002 A 
ATOM     13  C   UNL d   1     -48.606  12.835  23.262  0.00  0.00     0.026 A 
ATOM     14  C   UNL d   1     -49.140  13.463  23.232  0.00  0.00     0.116 A 
ATOM     15  C   UNL d   1     -48.922  14.166  22.858  0.00  0.00     0.116 A 
ATOM     16  C   UNL d   1     -48.172  14.245  22.513  0.00  0.00     0.026 A 
ATOM     17  C   UNL d   1     -47.639  13.613  22.545  0.00  0.00     0.002 A 
BRANCH  14  18
ATOM     18  O   UNL d   1     -49.877  13.387  23.569  0.00  0.00    -0.326 OA
ATOM     19  C   UNL d   1     -50.238  12.645  23.608  0.00  0.00     0.181 C 
ENDBRANCH  14  18
BRANCH  15  20
ATOM     20  O   UNL d   1     -49.455  14.801  22.824  0.00  0.00    -0.326 OA
ATOM     21  C   UNL d   1     -49.207  15.540  22.547  0.00  0.00     0.181 C 
ENDBRANCH  15  20
ENDBRANCH   1  12
TORSDOF 6
ENDMDL
MODEL 5
REMARK VINA RESULT:      -4.8      1.623      2.345
REMARK  6 active torsions:
REMARK  status: ('A' for Active; 'I' for Inactive)
REMARK    1  A    between atoms: C_2  and  C_1 
REMARK       I    between atoms: N_5  and  C_1 
REMARK    2  A    between atoms: C_4  and  C_2 
REMARK    3  A    between atoms: O_13  and  C_3 
REMARK    4  A    between atoms: C_9  and  C_4 
REMARK    5  A    between atoms: C_11  and  N_5 
REMARK    6  A    between atoms: O_14  and  C_6 
ROOT
ATOM      1  C   UNL d   1     -47.337  11.563  22.893  0.00  0.00     0.005 C 
ENDROOT
BRANCH   1   2
ATOM      2  C   UNL d   1     -47.873  11.707  23.507  0.00  0.00     0.062 C 
BRANCH   2   3
ATOM      3  C   UNL d   1     -48.637  11.968  23.337  0.00  0.00     0.279 C 
ATOM      4  N   UNL d   1     -48.916  12.605  23.672  0.00  0.00    -0.208 NA
ATOM      5  O   UNL d   1     -49.079  11.570  22.839  0.00  0.00    -0.265 OA
BRANCH   4   6
ATOM      6  C   UNL d   1     -49.632  12.849  23.513  0.00  0.00     0.085 A 
ATOM      7  C   UNL d   1     -49.730  13.595  23.303  0.00  0.00     0.019 A 
ATOM      8  C   UNL d   1     -50.443  13.848  23.142  0.00  0.00     0.002 A 
ATOM      9  C   UNL d   1     -51.064  13.350  23.192  0.00  0.00     0.000 A 
ATOM     10  C   UNL d   1     -50.957  12.602  23.405  0.00  0.00     0.002 A 
ATOM     11  C   UNL d   1     -50.240  12.345  23.567  0.00  0.00     0.019 A 
ENDBRANCH   4   6
ENDBRANCH   2   3
ENDBRANCH   1   2
BRANCH   1  12
ATOM     12  C   UNL d   1     -46.552  11.376  23.064  0.00  0.00     0.002 A 
ATOM     13  C   UNL d   1     -45.937  11.854  22.770  0.00  0.00     0.026 A 
ATOM     14  C   UNL d   1     -45.151  11.668  22.940  0.00  0.00     0.116 A 
ATOM     15  C   UNL d   1     -44.980  11.006  23.403  0.00  0.00     0.116 A 
ATOM     16  C   UNL d   1     -45.591  10.529  23.697  0.00  0.00     0.026 A 
ATOM     17  C   UNL d   1     -46.378  10.718  23.525  0.00  0.00     0.002 A 
BRANCH  14  18
ATOM     18  O   UNL d   1     -44.550  12.135  22.652  0.00  0.00    -0.326 OA
ATOM     19  C   UNL d   1     -44.717  12.731  22.104  0.00  0.00     0.181 C 
ENDBRANCH  14  18
BRANCH  15  20
ATOM     20  O   UNL d   1     -44.193  10.813  23.578  0.00  0.00    -0.326 OA
ATOM     21  C   UNL d   1     -43.933  10.029  23.526  0.00  0.00     0.181 C 
ENDBRANCH  15  20
ENDBRANCH   1  12
TORSDOF 6
ENDMDL
MODEL 6
REMARK VINA RESULT:      -4.6      8.735      9.259
REMARK  6 active torsions:
REMARK  status: ('A' for Active; 'I' for Inactive)
REMARK    1  A    between atoms: C_2  and  C_1 
REMARK       I    between atoms: N_5  and  C_1 
REMARK    2  A    between atoms: C_4  and  C_2 
REMARK    3  A    between atoms: O_13  and  C_3 
REMARK    4  A    between atoms: C_9  and  C_4 
REMARK    5  A    between atoms: C_11  and  N_5 
REMARK    6  A    between atoms: O_14  and  C_6 
ROOT
ATOM      1  C   UNL d   1     -38.992  14.761  20.573  0.00  0.00     0.005 C 
ENDROOT
BRANCH   1   2
ATOM      2  C   UNL d   1     -39.668  14.510  20.168  0.00  0.00     0.062 C 
BRANCH   2   3
ATOM      3  C   UNL d   1     -39.832  14.802  19.414  0.00  0.00     0.279 C 
ATOM      4  N   UNL d   1     -40.013  14.320  18.839  0.00  0.00    -0.208 NA
ATOM      5  O   UNL d   1     -39.804  15.566  19.282  0.00  0.00    -0.265 OA
BRANCH   4   6
ATOM      6  C   UNL d   1     -40.167  14.594  18.132  0.00  0.00     0.085 A 
ATOM      7  C   UNL d   1     -39.632  14.491  17.572  0.00  0.00     0.019 A 
ATOM      8  C   UNL d   1     -39.778  14.762  16.862  0.00  0.00     0.002 A 
ATOM      9  C   UNL d   1     -40.464  15.139  16.711  0.00  0.00     0.000 A 
ATOM     10  C   UNL d   1     -40.996  15.238  17.280  0.00  0.00     0.002 A 
ATOM     11  C   UNL d   1     -40.852  14.966  17.996  0.00  0.00     0.019 A 
ENDBRANCH   4   6
ENDBRANCH   2   3
ENDBRANCH   1   2
BRANCH   1  12
ATOM     12  C   UNL d   1     -38.833  14.475  21.331  0.00  0.00     0.002 A 
ATOM     13  C   UNL d   1     -38.791  15.001  21.974  0.00  0.00     0.026 A 
ATOM     14  C   UNL d   1     -38.631  14.715  22.732  0.00  0.00     0.116 A 
ATOM     15  C   UNL d   1     -38.514  13.905  22.845  0.00  0.00     0.116 A 
ATOM     16  C   UNL d   1     -38.555  13.380  22.206  0.00  0.00     0.026 A 
ATOM     17  C   UNL d   1     -38.715  13.670  21.447  0.00  0.00     0.002 A 
BRANCH  14  18
ATOM     18  O   UNL d   1     -38.590  15.229  23.361  0.00  0.00    -0.326 OA
ATOM     19  C   UNL d   1     -39.046  15.919  23.360  0.00  0.00     0.181 C 
ENDBRANCH  14  18
BRANCH  15  20
ATOM     20  O   UNL d   1     -38.353  13.611  23.604  0.00  0.00    -0.326 OA
ATOM     21  C   UNL d   1     -37.940  12.901  23.698  0.00  0.00     0.181 C 
ENDBRANCH  15  20
ENDBRANCH   1  12
TORSDOF 6
ENDMDL
