MODEL 1
REMARK VINA RESULT:      38.8      0.000      0.000
REMARK  3 active torsions:
REMARK  status: ('A' for Active; 'I' for Inactive)
REMARK    1  A    between atoms: N_9  and  C_3 
REMARK    2  A    between atoms: C_14  and  C_5 
REMARK       I    between atoms: C_10  and  N_11 
REMARK    3  A    between atoms: C_13  and  C_10 
ROOT
ATOM      1  N   UNL d   1      46.136 -17.282  43.062  0.00  0.00    -0.196 N 
ATOM      2  C   UNL d   1      46.180 -18.095  42.936  0.00  0.00     0.167 A 
ATOM      3  C   UNL d   1      45.982 -16.988  43.816  0.00  0.00     0.152 A 
ATOM      4  N   UNL d   1      46.267 -16.906  42.346  0.00  0.00    -0.163 NA
ATOM      5  C   UNL d   1      46.338 -18.217  42.143  0.00  0.00     0.055 A 
ATOM      6  C   UNL d   1      46.392 -17.486  41.776  0.00  0.00     0.104 A 
ATOM      7  N   UNL d   1      46.070 -18.616  43.563  0.00  0.00    -0.227 NA
ATOM      8  C   UNL d   1      45.870 -17.512  44.451  0.00  0.00     0.057 A 
ATOM      9  C   UNL d   1      45.914 -18.325  44.325  0.00  0.00     0.086 A 
ATOM     10  C   UNL d   1      46.545 -17.362  40.975  0.00  0.00     0.023 C 
ATOM     11  C   UNL d   1      45.804 -18.855  44.955  0.00  0.00     0.021 C 
ENDROOT
BRANCH   3  12
ATOM     12  N   UNL d   1      45.937 -16.170  43.942  0.00  0.00    -0.286 N 
ATOM     13  C   UNL d   1      45.440 -15.689  43.496  0.00  0.00     0.101 A 
ATOM     14  C   UNL d   1      45.413 -14.878  43.641  0.00  0.00     0.102 A 
ATOM     15  N   UNL d   1      45.874 -14.546  44.222  0.00  0.00    -0.267 N 
ATOM     16  C   UNL d   1      45.841 -13.725  44.362  0.00  0.00     0.288 C 
ATOM     17  C   UNL d   1      46.379 -15.024  44.677  0.00  0.00     0.102 A 
ATOM     18  O   UNL d   1      46.302 -13.381  44.945  0.00  0.00    -0.264 OA
ATOM     19  C   UNL d   1      46.407 -15.836  44.533  0.00  0.00     0.101 A 
BRANCH  16  20
ATOM     20  C   UNL d   1      45.337 -13.260  43.904  0.00  0.00     0.156 A 
ATOM     21  O   UNL d   1      44.553 -13.340  43.694  0.00  0.00    -0.300 OA
ATOM     22  C   UNL d   1      44.352 -12.695  43.225  0.00  0.00     0.123 A 
ATOM     23  C   UNL d   1      44.998 -12.221  43.144  0.00  0.00     0.029 A 
ATOM     24  C   UNL d   1      45.619 -12.564  43.564  0.00  0.00     0.032 A 
ENDBRANCH  16  20
ENDBRANCH   3  12
BRANCH   5  25
ATOM     25  C   UNL d   1      46.441 -18.911  41.700  0.00  0.00     0.004 A 
ATOM     26  C   UNL d   1      46.469 -18.872  40.876  0.00  0.00     0.000 A 
ATOM     27  C   UNL d   1      46.572 -19.566  40.433  0.00  0.00     0.000 A 
ATOM     28  C   UNL d   1      46.646 -20.294  40.816  0.00  0.00     0.000 A 
ATOM     29  C   UNL d   1      46.617 -20.330  41.644  0.00  0.00     0.000 A 
ATOM     30  C   UNL d   1      46.514 -19.638  42.082  0.00  0.00     0.000 A 
ENDBRANCH   5  25
TORSDOF 3
ENDMDL
