MODEL 1
REMARK VINA RESULT:      -3.4      0.000      0.000
REMARK  4 active torsions:
REMARK  status: ('A' for Active; 'I' for Inactive)
REMARK    1  A    between atoms: C_7  and  C_3 
REMARK    2  A    between atoms: S_6  and  C_7 
REMARK    3  A    between atoms: C_9  and  S_6 
REMARK    4  A    between atoms: C_8  and  C_9 
ROOT
ATOM      1  N   UNL d   1      33.199  21.356 -20.585  0.00  0.00    -0.225 NA
ATOM      2  N   UNL d   1      32.265  21.828 -21.456  0.00  0.00    -0.225 NA
ATOM      3  C   UNL d   1      32.768  21.180 -21.284  0.00  0.00     0.169 A 
ATOM      4  C   UNL d   1      32.955  22.114 -20.332  0.00  0.00     0.101 A 
ATOM      5  C   UNL d   1      32.382  22.411 -20.862  0.00  0.00     0.101 A 
ATOM      6  C   UNL d   1      33.188  22.575 -19.675  0.00  0.00     0.021 A 
ATOM      7  C   UNL d   1      32.053  23.162 -20.724  0.00  0.00     0.021 A 
ATOM      8  C   UNL d   1      32.288  23.606 -20.079  0.00  0.00     0.002 A 
ATOM      9  C   UNL d   1      32.856  23.313 -19.554  0.00  0.00     0.002 A 
ENDROOT
BRANCH   3  10
ATOM     10  C   UNL d   1      33.101  20.436 -21.410  0.00  0.00     0.074 C 
BRANCH  10  11
ATOM     11  S   UNL d   1      32.941  20.026 -22.108  0.00  0.00    -0.083 SA
BRANCH  11  12
ATOM     12  C   UNL d   1      33.241  19.266 -22.216  0.00  0.00     0.035 C 
BRANCH  12  13
ATOM     13  C   UNL d   1      33.063  18.848 -22.905  0.00  0.00     0.006 A 
ATOM     14  C   UNL d   1      32.708  18.103 -22.848  0.00  0.00     0.001 A 
ATOM     15  C   UNL d   1      32.530  17.684 -23.537  0.00  0.00     0.000 A 
ATOM     16  C   UNL d   1      32.706  18.011 -24.273  0.00  0.00     0.000 A 
ATOM     17  C   UNL d   1      33.061  18.757 -24.322  0.00  0.00     0.000 A 
ATOM     18  C   UNL d   1      33.239  19.175 -23.633  0.00  0.00     0.001 A 
ENDBRANCH  12  13
ENDBRANCH  11  12
ENDBRANCH  10  11
ENDBRANCH   3  10
TORSDOF 4
ENDMDL
MODEL 2
REMARK VINA RESULT:      -3.3      1.611      5.039
REMARK  4 active torsions:
REMARK  status: ('A' for Active; 'I' for Inactive)
REMARK    1  A    between atoms: C_7  and  C_3 
REMARK    2  A    between atoms: S_6  and  C_7 
REMARK    3  A    between atoms: C_9  and  S_6 
REMARK    4  A    between atoms: C_8  and  C_9 
ROOT
ATOM      1  N   UNL d   1      33.241  17.888 -22.673  0.00  0.00    -0.225 NA
ATOM      2  N   UNL d   1      32.349  18.430 -23.547  0.00  0.00    -0.225 NA
ATOM      3  C   UNL d   1      32.841  18.595 -22.890  0.00  0.00     0.169 A 
ATOM      4  C   UNL d   1      32.988  17.293 -23.203  0.00  0.00     0.101 A 
ATOM      5  C   UNL d   1      32.440  17.618 -23.742  0.00  0.00     0.101 A 
ATOM      6  C   UNL d   1      33.193  16.485 -23.259  0.00  0.00     0.021 A 
ATOM      7  C   UNL d   1      32.108  17.129 -24.327  0.00  0.00     0.021 A 
ATOM      8  C   UNL d   1      32.315  16.339 -24.374  0.00  0.00     0.002 A 
ATOM      9  C   UNL d   1      32.858  16.017 -23.840  0.00  0.00     0.002 A 
ENDROOT
BRANCH   3  10
ATOM     10  C   UNL d   1      33.177  19.070 -22.305  0.00  0.00     0.074 C 
BRANCH  10  11
ATOM     11  S   UNL d   1      32.932  19.853 -22.220  0.00  0.00    -0.083 SA
BRANCH  11  12
ATOM     12  C   UNL d   1      33.238  20.316 -21.610  0.00  0.00     0.035 C 
BRANCH  12  13
ATOM     13  C   UNL d   1      32.941  21.075 -21.481  0.00  0.00     0.006 A 
ATOM     14  C   UNL d   1      32.431  21.210 -20.844  0.00  0.00     0.001 A 
ATOM     15  C   UNL d   1      32.135  21.969 -20.715  0.00  0.00     0.000 A 
ATOM     16  C   UNL d   1      32.348  22.585 -21.221  0.00  0.00     0.000 A 
ATOM     17  C   UNL d   1      32.858  22.442 -21.856  0.00  0.00     0.000 A 
ATOM     18  C   UNL d   1      33.155  21.683 -21.984  0.00  0.00     0.001 A 
ENDBRANCH  12  13
ENDBRANCH  11  12
ENDBRANCH  10  11
ENDBRANCH   3  10
TORSDOF 4
ENDMDL
MODEL 3
REMARK VINA RESULT:      -3.0      1.124      1.882
REMARK  4 active torsions:
REMARK  status: ('A' for Active; 'I' for Inactive)
REMARK    1  A    between atoms: C_7  and  C_3 
REMARK    2  A    between atoms: S_6  and  C_7 
REMARK    3  A    between atoms: C_9  and  S_6 
REMARK    4  A    between atoms: C_8  and  C_9 
ROOT
ATOM      1  N   UNL d   1      33.239  20.713 -22.577  0.00  0.00    -0.225 NA
ATOM      2  N   UNL d   1      32.781  20.139 -21.431  0.00  0.00    -0.225 NA
ATOM      3  C   UNL d   1      33.048  19.982 -22.210  0.00  0.00     0.169 A 
ATOM      4  C   UNL d   1      33.087  21.315 -22.017  0.00  0.00     0.101 A 
ATOM      5  C   UNL d   1      32.806  20.970 -21.311  0.00  0.00     0.101 A 
ATOM      6  C   UNL d   1      33.173  22.144 -22.067  0.00  0.00     0.021 A 
ATOM      7  C   UNL d   1      32.616  21.462 -20.668  0.00  0.00     0.021 A 
ATOM      8  C   UNL d   1      32.702  22.273 -20.726  0.00  0.00     0.002 A 
ATOM      9  C   UNL d   1      32.981  22.614 -21.425  0.00  0.00     0.002 A 
ENDROOT
BRANCH   3  10
ATOM     10  C   UNL d   1      33.240  19.505 -22.854  0.00  0.00     0.074 C 
BRANCH  10  11
ATOM     11  S   UNL d   1      33.000  18.716 -22.868  0.00  0.00    -0.083 SA
BRANCH  11  12
ATOM     12  C   UNL d   1      33.154  18.250 -23.531  0.00  0.00     0.035 C 
BRANCH  12  13
ATOM     13  C   UNL d   1      32.792  17.513 -23.609  0.00  0.00     0.006 A 
ATOM     14  C   UNL d   1      32.059  17.456 -23.987  0.00  0.00     0.001 A 
ATOM     15  C   UNL d   1      31.698  16.719 -24.065  0.00  0.00     0.000 A 
ATOM     16  C   UNL d   1      32.069  16.046 -23.766  0.00  0.00     0.000 A 
ATOM     17  C   UNL d   1      32.802  16.110 -23.389  0.00  0.00     0.000 A 
ATOM     18  C   UNL d   1      33.164  16.847 -23.311  0.00  0.00     0.001 A 
ENDBRANCH  12  13
ENDBRANCH  11  12
ENDBRANCH  10  11
ENDBRANCH   3  10
TORSDOF 4
ENDMDL
MODEL 4
REMARK VINA RESULT:      -0.6      3.307      5.893
REMARK  4 active torsions:
REMARK  status: ('A' for Active; 'I' for Inactive)
REMARK    1  A    between atoms: C_7  and  C_3 
REMARK    2  A    between atoms: S_6  and  C_7 
REMARK    3  A    between atoms: C_9  and  S_6 
REMARK    4  A    between atoms: C_8  and  C_9 
ROOT
ATOM      1  N   UNL d   1      30.594  16.179 -23.262  0.00  0.00    -0.225 NA
ATOM      2  N   UNL d   1      30.447  16.454 -24.587  0.00  0.00    -0.225 NA
ATOM      3  C   UNL d   1      30.980  16.489 -23.941  0.00  0.00     0.169 A 
ATOM      4  C   UNL d   1      29.824  15.956 -23.499  0.00  0.00     0.101 A 
ATOM      5  C   UNL d   1      29.726  16.122 -24.311  0.00  0.00     0.101 A 
ATOM      6  C   UNL d   1      29.193  15.619 -23.067  0.00  0.00     0.021 A 
ATOM      7  C   UNL d   1      29.000  15.947 -24.676  0.00  0.00     0.021 A 
ATOM      8  C   UNL d   1      28.388  15.617 -24.245  0.00  0.00     0.002 A 
ATOM      9  C   UNL d   1      28.485  15.453 -23.441  0.00  0.00     0.002 A 
ENDROOT
BRANCH   3  10
ATOM     10  C   UNL d   1      31.696  16.658 -23.568  0.00  0.00     0.074 C 
BRANCH  10  11
ATOM     11  S   UNL d   1      32.106  17.348 -23.758  0.00  0.00    -0.083 SA
BRANCH  11  12
ATOM     12  C   UNL d   1      32.730  17.600 -23.282  0.00  0.00     0.035 C 
BRANCH  12  13
ATOM     13  C   UNL d   1      32.901  18.405 -23.220  0.00  0.00     0.006 A 
ATOM     14  C   UNL d   1      32.904  18.764 -22.475  0.00  0.00     0.001 A 
ATOM     15  C   UNL d   1      33.075  19.569 -22.414  0.00  0.00     0.000 A 
ATOM     16  C   UNL d   1      33.241  20.007 -23.093  0.00  0.00     0.000 A 
ATOM     17  C   UNL d   1      33.236  19.640 -23.834  0.00  0.00     0.000 A 
ATOM     18  C   UNL d   1      33.065  18.836 -23.895  0.00  0.00     0.001 A 
ENDBRANCH  12  13
ENDBRANCH  11  12
ENDBRANCH  10  11
ENDBRANCH   3  10
TORSDOF 4
ENDMDL
