MODEL 1
REMARK VINA RESULT:      -9.4      0.000      0.000
REMARK  4 active torsions:
REMARK  status: ('A' for Active; 'I' for Inactive)
REMARK    1  A    between atoms: N_9  and  C_3 
REMARK    2  A    between atoms: C_11  and  C_5 
REMARK    3  A    between atoms: C_15  and  C_10 
REMARK    4  A    between atoms: C_18  and  C_15 
ROOT
ATOM      1  N   UNL d   1      52.106  34.159  53.352  0.00  0.00    -0.196 N 
ATOM      2  C   UNL d   1      52.802  33.865  53.710  0.00  0.00     0.167 A 
ATOM      3  C   UNL d   1      51.700  33.673  52.837  0.00  0.00     0.152 A 
ATOM      4  N   UNL d   1      52.272  35.389  54.041  0.00  0.00    -0.163 NA
ATOM      5  C   UNL d   1      53.221  34.331  54.224  0.00  0.00     0.055 A 
ATOM      6  C   UNL d   1      52.968  35.095  54.399  0.00  0.00     0.104 A 
ATOM      7  N   UNL d   1      53.055  33.100  53.535  0.00  0.00    -0.227 NA
ATOM      8  C   UNL d   1      51.940  32.921  52.659  0.00  0.00     0.057 A 
ATOM      9  C   UNL d   1      52.635  32.627  53.017  0.00  0.00     0.086 A 
ATOM     10  C   UNL d   1      53.384  35.570  54.915  0.00  0.00     0.023 C 
ENDROOT
BRANCH   5  11
ATOM     11  C   UNL d   1      53.907  34.041  54.577  0.00  0.00     0.004 A 
ATOM     12  C   UNL d   1      53.856  33.643  55.295  0.00  0.00     0.000 A 
ATOM     13  C   UNL d   1      54.541  33.354  55.647  0.00  0.00     0.000 A 
ATOM     14  C   UNL d   1      55.276  33.462  55.283  0.00  0.00     0.000 A 
ATOM     15  C   UNL d   1      55.329  33.860  54.563  0.00  0.00     0.000 A 
ATOM     16  C   UNL d   1      54.633  34.154  54.205  0.00  0.00     0.000 A 
ENDBRANCH   5  11
BRANCH   3  17
ATOM     17  N   UNL d   1      50.982  33.976  52.468  0.00  0.00    -0.289 N 
ATOM     18  C   UNL d   1      50.356  34.067  52.874  0.00  0.00     0.082 A 
ATOM     19  C   UNL d   1      49.736  34.329  52.554  0.00  0.00     0.021 A 
ATOM     20  C   UNL d   1      50.356  34.414  51.421  0.00  0.00     0.021 A 
ATOM     21  C   UNL d   1      50.986  34.147  51.746  0.00  0.00     0.082 A 
ENDBRANCH   3  17
BRANCH   9  22
ATOM     22  C   UNL d   1      52.904  31.831  52.839  0.00  0.00     0.019 C 
BRANCH  22  23
ATOM     23  C   UNL d   1      52.516  31.143  53.196  0.00  0.00     0.002 C 
ATOM     24  C   UNL d   1      52.862  30.369  53.126  0.00  0.00     0.000 C 
ENDBRANCH  22  23
ENDBRANCH   9  22
TORSDOF 4
ENDMDL
MODEL 2
REMARK VINA RESULT:      -8.3      0.875      3.580
REMARK  4 active torsions:
REMARK  status: ('A' for Active; 'I' for Inactive)
REMARK    1  A    between atoms: N_9  and  C_3 
REMARK    2  A    between atoms: C_11  and  C_5 
REMARK    3  A    between atoms: C_15  and  C_10 
REMARK    4  A    between atoms: C_18  and  C_15 
ROOT
ATOM      1  N   UNL d   1      53.324  33.836  54.106  0.00  0.00    -0.196 N 
ATOM      2  C   UNL d   1      52.686  33.700  53.584  0.00  0.00     0.167 A 
ATOM      3  C   UNL d   1      53.871  33.240  54.214  0.00  0.00     0.152 A 
ATOM      4  N   UNL d   1      52.829  35.140  54.371  0.00  0.00    -0.163 NA
ATOM      5  C   UNL d   1      52.132  34.278  53.462  0.00  0.00     0.055 A 
ATOM      6  C   UNL d   1      52.191  35.004  53.848  0.00  0.00     0.104 A 
ATOM      7  N   UNL d   1      52.627  32.974  53.197  0.00  0.00    -0.227 NA
ATOM      8  C   UNL d   1      53.823  32.525  53.840  0.00  0.00     0.057 A 
ATOM      9  C   UNL d   1      53.184  32.388  53.317  0.00  0.00     0.086 A 
ATOM     10  C   UNL d   1      51.637  35.590  53.730  0.00  0.00     0.023 C 
ENDROOT
BRANCH   5  11
ATOM     11  C   UNL d   1      51.503  34.144  52.947  0.00  0.00     0.004 A 
ATOM     12  C   UNL d   1      50.793  33.852  53.242  0.00  0.00     0.000 A 
ATOM     13  C   UNL d   1      50.165  33.718  52.728  0.00  0.00     0.000 A 
ATOM     14  C   UNL d   1      50.246  33.875  51.919  0.00  0.00     0.000 A 
ATOM     15  C   UNL d   1      50.957  34.167  51.621  0.00  0.00     0.000 A 
ATOM     16  C   UNL d   1      51.595  34.304  52.143  0.00  0.00     0.000 A 
ENDBRANCH   5  11
BRANCH   3  17
ATOM     17  N   UNL d   1      54.529  33.381  54.753  0.00  0.00    -0.289 N 
ATOM     18  C   UNL d   1      55.187  33.632  54.490  0.00  0.00     0.082 A 
ATOM     19  C   UNL d   1      55.756  33.753  54.955  0.00  0.00     0.021 A 
ATOM     20  C   UNL d   1      55.022  33.377  55.952  0.00  0.00     0.021 A 
ATOM     21  C   UNL d   1      54.443  33.253  55.478  0.00  0.00     0.082 A 
ENDBRANCH   3  17
BRANCH   9  22
ATOM     22  C   UNL d   1      53.118  31.634  52.912  0.00  0.00     0.019 C 
BRANCH  22  23
ATOM     23  C   UNL d   1      52.967  30.905  53.355  0.00  0.00     0.002 C 
ATOM     24  C   UNL d   1      52.910  30.159  52.950  0.00  0.00     0.000 C 
ENDBRANCH  22  23
ENDBRANCH   9  22
TORSDOF 4
ENDMDL
MODEL 3
REMARK VINA RESULT:      -8.2      0.901      3.009
REMARK  4 active torsions:
REMARK  status: ('A' for Active; 'I' for Inactive)
REMARK    1  A    between atoms: N_9  and  C_3 
REMARK    2  A    between atoms: C_11  and  C_5 
REMARK    3  A    between atoms: C_15  and  C_10 
REMARK    4  A    between atoms: C_18  and  C_15 
ROOT
ATOM      1  N   UNL d   1      53.195  32.258  53.726  0.00  0.00    -0.196 N 
ATOM      2  C   UNL d   1      53.082  33.080  53.832  0.00  0.00     0.167 A 
ATOM      3  C   UNL d   1      52.684  31.857  53.232  0.00  0.00     0.152 A 
ATOM      4  N   UNL d   1      54.309  32.298  54.606  0.00  0.00    -0.163 NA
ATOM      5  C   UNL d   1      53.578  33.497  54.318  0.00  0.00     0.055 A 
ATOM      6  C   UNL d   1      54.196  33.119  54.712  0.00  0.00     0.104 A 
ATOM      7  N   UNL d   1      52.464  33.458  53.438  0.00  0.00    -0.227 NA
ATOM      8  C   UNL d   1      52.075  32.218  52.841  0.00  0.00     0.057 A 
ATOM      9  C   UNL d   1      51.962  33.040  52.947  0.00  0.00     0.086 A 
ATOM     10  C   UNL d   1      54.699  33.533  55.202  0.00  0.00     0.023 C 
ENDROOT
BRANCH   5  11
ATOM     11  C   UNL d   1      53.467  34.307  54.422  0.00  0.00     0.004 A 
ATOM     12  C   UNL d   1      53.769  34.832  53.867  0.00  0.00     0.000 A 
ATOM     13  C   UNL d   1      53.658  35.641  53.971  0.00  0.00     0.000 A 
ATOM     14  C   UNL d   1      53.245  35.925  54.630  0.00  0.00     0.000 A 
ATOM     15  C   UNL d   1      52.941  35.399  55.188  0.00  0.00     0.000 A 
ATOM     16  C   UNL d   1      53.053  34.577  55.082  0.00  0.00     0.000 A 
ENDBRANCH   5  11
BRANCH   3  17
ATOM     17  N   UNL d   1      52.800  31.009  53.123  0.00  0.00    -0.289 N 
ATOM     18  C   UNL d   1      52.469  30.519  53.586  0.00  0.00     0.082 A 
ATOM     19  C   UNL d   1      52.569  29.787  53.491  0.00  0.00     0.021 A 
ATOM     20  C   UNL d   1      53.332  30.022  52.473  0.00  0.00     0.021 A 
ATOM     21  C   UNL d   1      53.230  30.767  52.569  0.00  0.00     0.082 A 
ENDBRANCH   3  17
BRANCH   9  22
ATOM     22  C   UNL d   1      51.320  33.438  52.539  0.00  0.00     0.019 C 
BRANCH  22  23
ATOM     23  C   UNL d   1      50.579  33.618  52.951  0.00  0.00     0.002 C 
ATOM     24  C   UNL d   1      50.070  34.239  52.670  0.00  0.00     0.000 C 
ENDBRANCH  22  23
ENDBRANCH   9  22
TORSDOF 4
ENDMDL
MODEL 4
REMARK VINA RESULT:      -7.5      1.238      3.493
REMARK  4 active torsions:
REMARK  status: ('A' for Active; 'I' for Inactive)
REMARK    1  A    between atoms: N_9  and  C_3 
REMARK    2  A    between atoms: C_11  and  C_5 
REMARK    3  A    between atoms: C_15  and  C_10 
REMARK    4  A    between atoms: C_18  and  C_15 
ROOT
ATOM      1  N   UNL d   1      52.717  32.017  53.470  0.00  0.00    -0.196 N 
ATOM      2  C   UNL d   1      52.832  32.837  53.588  0.00  0.00     0.167 A 
ATOM      3  C   UNL d   1      53.346  31.514  53.599  0.00  0.00     0.152 A 
ATOM      4  N   UNL d   1      51.366  32.260  53.106  0.00  0.00    -0.163 NA
ATOM      5  C   UNL d   1      52.220  33.354  53.466  0.00  0.00     0.055 A 
ATOM      6  C   UNL d   1      51.481  33.080  53.225  0.00  0.00     0.104 A 
ATOM      7  N   UNL d   1      53.571  33.111  53.829  0.00  0.00    -0.227 NA
ATOM      8  C   UNL d   1      54.075  31.773  53.836  0.00  0.00     0.057 A 
ATOM      9  C   UNL d   1      54.191  32.592  53.954  0.00  0.00     0.086 A 
ATOM     10  C   UNL d   1      50.861  33.594  53.100  0.00  0.00     0.023 C 
ENDROOT
BRANCH   5  11
ATOM     11  C   UNL d   1      52.334  34.161  53.583  0.00  0.00     0.004 A 
ATOM     12  C   UNL d   1      52.621  34.623  52.966  0.00  0.00     0.000 A 
ATOM     13  C   UNL d   1      52.735  35.430  53.083  0.00  0.00     0.000 A 
ATOM     14  C   UNL d   1      52.562  35.775  53.815  0.00  0.00     0.000 A 
ATOM     15  C   UNL d   1      52.274  35.313  54.435  0.00  0.00     0.000 A 
ATOM     16  C   UNL d   1      52.159  34.493  54.316  0.00  0.00     0.000 A 
ENDBRANCH   5  11
BRANCH   3  17
ATOM     17  N   UNL d   1      53.227  30.669  53.477  0.00  0.00    -0.289 N 
ATOM     18  C   UNL d   1      53.222  30.198  54.063  0.00  0.00     0.082 A 
ATOM     19  C   UNL d   1      53.119  29.468  53.957  0.00  0.00     0.021 A 
ATOM     20  C   UNL d   1      53.024  29.666  52.682  0.00  0.00     0.021 A 
ATOM     21  C   UNL d   1      53.129  30.409  52.789  0.00  0.00     0.082 A 
ENDBRANCH   3  17
BRANCH   9  22
ATOM     22  C   UNL d   1      54.959  32.883  54.205  0.00  0.00     0.019 C 
BRANCH  22  23
ATOM     23  C   UNL d   1      55.066  33.223  54.995  0.00  0.00     0.002 C 
ATOM     24  C   UNL d   1      55.655  33.822  55.129  0.00  0.00     0.000 C 
ENDBRANCH  22  23
ENDBRANCH   9  22
TORSDOF 4
ENDMDL
MODEL 5
REMARK VINA RESULT:      -7.4      0.934      2.575
REMARK  4 active torsions:
REMARK  status: ('A' for Active; 'I' for Inactive)
REMARK    1  A    between atoms: N_9  and  C_3 
REMARK    2  A    between atoms: C_11  and  C_5 
REMARK    3  A    between atoms: C_15  and  C_10 
REMARK    4  A    between atoms: C_18  and  C_15 
ROOT
ATOM      1  N   UNL d   1      51.823  33.503  52.870  0.00  0.00    -0.196 N 
ATOM      2  C   UNL d   1      52.546  33.476  53.288  0.00  0.00     0.167 A 
ATOM      3  C   UNL d   1      51.448  34.223  52.789  0.00  0.00     0.152 A 
ATOM      4  N   UNL d   1      51.899  32.103  52.647  0.00  0.00    -0.163 NA
ATOM      5  C   UNL d   1      52.935  32.771  53.380  0.00  0.00     0.055 A 
ATOM      6  C   UNL d   1      52.623  32.076  53.065  0.00  0.00     0.104 A 
ATOM      7  N   UNL d   1      52.858  34.171  53.603  0.00  0.00    -0.227 NA
ATOM      8  C   UNL d   1      51.746  34.911  53.094  0.00  0.00     0.057 A 
ATOM      9  C   UNL d   1      52.470  34.884  53.512  0.00  0.00     0.086 A 
ATOM     10  C   UNL d   1      53.008  31.363  53.154  0.00  0.00     0.023 C 
ENDROOT
BRANCH   5  11
ATOM     11  C   UNL d   1      53.648  32.744  53.792  0.00  0.00     0.004 A 
ATOM     12  C   UNL d   1      54.355  32.844  53.384  0.00  0.00     0.000 A 
ATOM     13  C   UNL d   1      55.067  32.818  53.796  0.00  0.00     0.000 A 
ATOM     14  C   UNL d   1      55.073  32.691  54.614  0.00  0.00     0.000 A 
ATOM     15  C   UNL d   1      54.365  32.591  55.024  0.00  0.00     0.000 A 
ATOM     16  C   UNL d   1      53.641  32.618  54.606  0.00  0.00     0.000 A 
ENDBRANCH   5  11
BRANCH   3  17
ATOM     17  N   UNL d   1      50.702  34.251  52.358  0.00  0.00    -0.289 N 
ATOM     18  C   UNL d   1      50.050  34.288  52.731  0.00  0.00     0.082 A 
ATOM     19  C   UNL d   1      49.406  34.311  52.359  0.00  0.00     0.021 A 
ATOM     20  C   UNL d   1      50.051  34.263  51.238  0.00  0.00     0.021 A 
ATOM     21  C   UNL d   1      50.707  34.239  51.617  0.00  0.00     0.082 A 
ENDBRANCH   3  17
BRANCH   9  22
ATOM     22  C   UNL d   1      52.799  35.605  53.842  0.00  0.00     0.019 C 
BRANCH  22  23
ATOM     23  C   UNL d   1      52.670  35.809  54.674  0.00  0.00     0.002 C 
ATOM     24  C   UNL d   1      53.111  36.441  55.035  0.00  0.00     0.000 C 
ENDBRANCH  22  23
ENDBRANCH   9  22
TORSDOF 4
ENDMDL
MODEL 6
REMARK VINA RESULT:      -6.5      1.253      3.490
REMARK  4 active torsions:
REMARK  status: ('A' for Active; 'I' for Inactive)
REMARK    1  A    between atoms: N_9  and  C_3 
REMARK    2  A    between atoms: C_11  and  C_5 
REMARK    3  A    between atoms: C_15  and  C_10 
REMARK    4  A    between atoms: C_18  and  C_15 
ROOT
ATOM      1  N   UNL d   1      52.675  32.283  53.255  0.00  0.00    -0.196 N 
ATOM      2  C   UNL d   1      53.060  31.653  53.646  0.00  0.00     0.167 A 
ATOM      3  C   UNL d   1      52.805  33.043  53.522  0.00  0.00     0.152 A 
ATOM      4  N   UNL d   1      52.063  31.358  52.368  0.00  0.00    -0.163 NA
ATOM      5  C   UNL d   1      52.945  30.891  53.398  0.00  0.00     0.055 A 
ATOM      6  C   UNL d   1      52.448  30.728  52.760  0.00  0.00     0.104 A 
ATOM      7  N   UNL d   1      53.556  31.816  54.284  0.00  0.00    -0.227 NA
ATOM      8  C   UNL d   1      53.290  33.214  54.147  0.00  0.00     0.057 A 
ATOM      9  C   UNL d   1      53.676  32.583  54.538  0.00  0.00     0.086 A 
ATOM     10  C   UNL d   1      52.327  29.963  52.504  0.00  0.00     0.023 C 
ENDROOT
BRANCH   5  11
ATOM     11  C   UNL d   1      53.324  30.269  53.783  0.00  0.00     0.004 A 
ATOM     12  C   UNL d   1      54.070  30.032  53.532  0.00  0.00     0.000 A 
ATOM     13  C   UNL d   1      54.449  29.412  53.917  0.00  0.00     0.000 A 
ATOM     14  C   UNL d   1      54.083  29.029  54.554  0.00  0.00     0.000 A 
ATOM     15  C   UNL d   1      53.336  29.266  54.807  0.00  0.00     0.000 A 
ATOM     16  C   UNL d   1      52.950  29.896  54.416  0.00  0.00     0.000 A 
ENDBRANCH   5  11
BRANCH   3  17
ATOM     17  N   UNL d   1      52.408  33.693  53.118  0.00  0.00    -0.289 N 
ATOM     18  C   UNL d   1      51.711  33.893  53.317  0.00  0.00     0.082 A 
ATOM     19  C   UNL d   1      51.367  34.455  52.968  0.00  0.00     0.021 A 
ATOM     20  C   UNL d   1      52.408  34.626  52.219  0.00  0.00     0.021 A 
ATOM     21  C   UNL d   1      52.758  34.055  52.573  0.00  0.00     0.082 A 
ENDBRANCH   3  17
BRANCH   9  22
ATOM     22  C   UNL d   1      54.193  32.747  55.203  0.00  0.00     0.019 C 
BRANCH  22  23
ATOM     23  C   UNL d   1      54.843  33.315  55.128  0.00  0.00     0.002 C 
ATOM     24  C   UNL d   1      55.178  33.680  55.820  0.00  0.00     0.000 C 
ENDBRANCH  22  23
ENDBRANCH   9  22
TORSDOF 4
ENDMDL
MODEL 7
REMARK VINA RESULT:      -6.4      1.149      3.307
REMARK  4 active torsions:
REMARK  status: ('A' for Active; 'I' for Inactive)
REMARK    1  A    between atoms: N_9  and  C_3 
REMARK    2  A    between atoms: C_11  and  C_5 
REMARK    3  A    between atoms: C_15  and  C_10 
REMARK    4  A    between atoms: C_18  and  C_15 
ROOT
ATOM      1  N   UNL d   1      53.097  33.733  54.049  0.00  0.00    -0.196 N 
ATOM      2  C   UNL d   1      52.900  33.019  53.661  0.00  0.00     0.167 A 
ATOM      3  C   UNL d   1      52.741  34.423  53.799  0.00  0.00     0.152 A 
ATOM      4  N   UNL d   1      53.983  33.023  54.902  0.00  0.00    -0.163 NA
ATOM      5  C   UNL d   1      53.242  32.323  53.894  0.00  0.00     0.055 A 
ATOM      6  C   UNL d   1      53.786  32.309  54.513  0.00  0.00     0.104 A 
ATOM      7  N   UNL d   1      52.356  33.033  53.041  0.00  0.00    -0.227 NA
ATOM      8  C   UNL d   1      52.206  34.447  53.192  0.00  0.00     0.057 A 
ATOM      9  C   UNL d   1      52.008  33.733  52.803  0.00  0.00     0.086 A 
ATOM     10  C   UNL d   1      54.134  31.612  54.753  0.00  0.00     0.023 C 
ENDROOT
BRANCH   5  11
ATOM     11  C   UNL d   1      53.047  31.620  53.511  0.00  0.00     0.004 A 
ATOM     12  C   UNL d   1      53.495  31.372  52.867  0.00  0.00     0.000 A 
ATOM     13  C   UNL d   1      53.300  30.670  52.485  0.00  0.00     0.000 A 
ATOM     14  C   UNL d   1      52.659  30.215  52.745  0.00  0.00     0.000 A 
ATOM     15  C   UNL d   1      52.209  30.463  53.391  0.00  0.00     0.000 A 
ATOM     16  C   UNL d   1      52.407  31.176  53.779  0.00  0.00     0.000 A 
ENDBRANCH   5  11
BRANCH   3  17
ATOM     17  N   UNL d   1      52.944  35.158  54.200  0.00  0.00    -0.289 N 
ATOM     18  C   UNL d   1      52.526  35.405  54.773  0.00  0.00     0.082 A 
ATOM     19  C   UNL d   1      52.702  36.041  55.120  0.00  0.00     0.021 A 
ATOM     20  C   UNL d   1      53.714  36.193  54.327  0.00  0.00     0.021 A 
ATOM     21  C   UNL d   1      53.535  35.546  53.975  0.00  0.00     0.082 A 
ENDBRANCH   3  17
BRANCH   9  22
ATOM     22  C   UNL d   1      51.442  33.742  52.158  0.00  0.00     0.019 C 
BRANCH  22  23
ATOM     23  C   UNL d   1      50.646  34.063  52.272  0.00  0.00     0.002 C 
ATOM     24  C   UNL d   1      50.120  34.156  51.609  0.00  0.00     0.000 C 
ENDBRANCH  22  23
ENDBRANCH   9  22
TORSDOF 4
ENDMDL
