MODEL 1
REMARK VINA RESULT:      20.1      0.000      0.000
REMARK  3 active torsions:
REMARK  status: ('A' for Active; 'I' for Inactive)
REMARK    1  A    between atoms: S_2  and  C_1 
REMARK    2  A    between atoms: N_8  and  S_2 
REMARK    3  A    between atoms: C_12  and  N_9 
ROOT
ATOM      1  N   UNL d   1      46.031 -16.299  44.089  0.00  0.00    -0.226 N 
ATOM      2  N   UNL d   1      45.791 -14.689  44.325  0.00  0.00    -0.299 N 
ATOM      3  C   UNL d   1      46.438 -15.752  43.641  0.00  0.00     0.111 A 
ATOM      4  C   UNL d   1      45.496 -16.032  44.662  0.00  0.00     0.111 A 
ATOM      5  C   UNL d   1      46.326 -14.957  43.751  0.00  0.00     0.100 A 
ATOM      6  C   UNL d   1      45.376 -15.224  44.780  0.00  0.00     0.100 A 
ENDROOT
BRANCH   1   7
ATOM      7  S   UNL d   1      46.153 -17.110  43.968  0.00  0.00     0.278 S 
ATOM      8  O   UNL d   1      45.897 -17.014  43.190  0.00  0.00    -0.199 OA
ATOM      9  O   UNL d   1      46.409 -17.194  44.754  0.00  0.00    -0.199 OA
BRANCH   7  10
ATOM     10  C   UNL d   1      46.271 -17.916  43.836  0.00  0.00     0.178 A 
ATOM     11  C   UNL d   1      46.384 -18.189  43.061  0.00  0.00     0.282 A 
ATOM     12  N   UNL d   1      46.501 -18.991  42.932  0.00  0.00    -0.224 N 
ATOM     13  O   UNL d   1      46.377 -17.668  42.439  0.00  0.00    -0.266 OA
ATOM     14  C   UNL d   1      46.613 -19.258  42.156  0.00  0.00     0.107 C 
ATOM     15  C   UNL d   1      46.508 -19.521  43.563  0.00  0.00     0.342 A 
ATOM     16  N   UNL d   1      46.397 -19.250  44.326  0.00  0.00    -0.255 N 
ATOM     17  O   UNL d   1      46.626 -20.330  43.434  0.00  0.00    -0.245 OA
ATOM     18  C   UNL d   1      46.278 -18.446  44.467  0.00  0.00     0.102 A 
ATOM     19  C   UNL d   1      46.404 -19.777  44.955  0.00  0.00     0.104 C 
ENDBRANCH   7  10
ENDBRANCH   1   7
BRANCH   2  20
ATOM     20  C   UNL d   1      45.673 -13.873  44.440  0.00  0.00     0.092 A 
ATOM     21  C   UNL d   1      44.983 -13.514  44.152  0.00  0.00     0.156 A 
ATOM     22  F   UNL d   1      44.420 -13.954  43.758  0.00  0.00    -0.203 F 
ATOM     23  C   UNL d   1      44.870 -12.705  44.269  0.00  0.00     0.031 A 
ATOM     24  C   UNL d   1      45.439 -12.261  44.667  0.00  0.00     0.002 A 
ATOM     25  C   UNL d   1      46.128 -12.620  44.955  0.00  0.00     0.002 A 
ATOM     26  C   UNL d   1      46.241 -13.429  44.838  0.00  0.00     0.020 A 
ENDBRANCH   2  20
TORSDOF 3
ENDMDL
MODEL 2
REMARK VINA RESULT:      20.2      1.830      5.071
REMARK  3 active torsions:
REMARK  status: ('A' for Active; 'I' for Inactive)
REMARK    1  A    between atoms: S_2  and  C_1 
REMARK    2  A    between atoms: N_8  and  S_2 
REMARK    3  A    between atoms: C_12  and  N_9 
ROOT
ATOM      1  N   UNL d   1      45.895 -16.273  44.242  0.00  0.00    -0.226 N 
ATOM      2  N   UNL d   1      46.176 -17.891  44.154  0.00  0.00    -0.299 N 
ATOM      3  C   UNL d   1      45.945 -16.644  43.516  0.00  0.00     0.111 A 
ATOM      4  C   UNL d   1      45.988 -16.724  44.930  0.00  0.00     0.111 A 
ATOM      5  C   UNL d   1      46.083 -17.440  43.464  0.00  0.00     0.100 A 
ATOM      6  C   UNL d   1      46.129 -17.535  44.886  0.00  0.00     0.100 A 
ENDROOT
BRANCH   1   7
ATOM      7  S   UNL d   1      45.753 -15.458  44.283  0.00  0.00     0.278 S 
ATOM      8  O   UNL d   1      46.495 -15.330  43.947  0.00  0.00    -0.199 OA
ATOM      9  O   UNL d   1      45.008 -15.600  44.622  0.00  0.00    -0.199 OA
BRANCH   7  10
ATOM     10  C   UNL d   1      45.622 -14.643  44.320  0.00  0.00     0.178 A 
ATOM     11  C   UNL d   1      44.901 -14.335  44.052  0.00  0.00     0.282 A 
ATOM     12  N   UNL d   1      44.774 -13.525  44.089  0.00  0.00    -0.224 N 
ATOM     13  O   UNL d   1      44.330 -14.829  43.757  0.00  0.00    -0.266 OA
ATOM     14  C   UNL d   1      44.052 -13.222  43.820  0.00  0.00     0.107 C 
ATOM     15  C   UNL d   1      45.354 -13.022  44.389  0.00  0.00     0.342 A 
ATOM     16  N   UNL d   1      46.064 -13.328  44.653  0.00  0.00    -0.255 N 
ATOM     17  O   UNL d   1      45.226 -12.205  44.427  0.00  0.00    -0.245 OA
ATOM     18  C   UNL d   1      46.203 -14.141  44.620  0.00  0.00     0.102 A 
ATOM     19  C   UNL d   1      46.642 -12.828  44.951  0.00  0.00     0.104 C 
ENDBRANCH   7  10
ENDBRANCH   1   7
BRANCH   2  20
ATOM     20  C   UNL d   1      46.319 -18.710  44.103  0.00  0.00     0.092 A 
ATOM     21  C   UNL d   1      46.497 -19.050  43.369  0.00  0.00     0.156 A 
ATOM     22  F   UNL d   1      46.535 -18.589  42.696  0.00  0.00    -0.203 F 
ATOM     23  C   UNL d   1      46.638 -19.862  43.323  0.00  0.00     0.031 A 
ATOM     24  C   UNL d   1      46.600 -20.328  44.002  0.00  0.00     0.002 A 
ATOM     25  C   UNL d   1      46.421 -19.988  44.736  0.00  0.00     0.002 A 
ATOM     26  C   UNL d   1      46.281 -19.175  44.782  0.00  0.00     0.020 A 
ENDBRANCH   2  20
TORSDOF 3
ENDMDL
