MODEL 1
REMARK VINA RESULT:      65.4      0.000      0.000
REMARK  2 active torsions:
REMARK  status: ('A' for Active; 'I' for Inactive)
REMARK    1  A    between atoms: N_7  and  C_3 
REMARK       I    between atoms: C_8  and  N_7 
REMARK    2  A    between atoms: C_9  and  C_8 
ROOT
ATOM      1  N   UNL d   1     -54.940-101.101 -42.932  0.00  0.00    -0.190 NA
ATOM      2  C   UNL d   1     -54.816-100.605 -42.286  0.00  0.00     0.281 C 
ATOM      3  O   UNL d   1     -54.713 -99.795 -42.401  0.00  0.00    -0.265 OA
ENDROOT
BRANCH   1   4
ATOM      4  C   UNL d   1     -54.961-100.787 -43.697  0.00  0.00     0.159 A 
ATOM      5  N   UNL d   1     -54.936-101.286 -44.350  0.00  0.00    -0.241 N 
ATOM      6  C   UNL d   1     -54.957-100.974 -45.107  0.00  0.00     0.343 A 
ATOM      7  C   UNL d   1     -54.891-102.103 -44.241  0.00  0.00     0.105 C 
ATOM      8  N   UNL d   1     -55.002-100.157 -45.215  0.00  0.00    -0.224 N 
ATOM      9  O   UNL d   1     -54.932-101.477 -45.763  0.00  0.00    -0.245 OA
ATOM     10  C   UNL d   1     -55.028 -99.642 -44.569  0.00  0.00     0.271 A 
ATOM     11  C   UNL d   1     -55.023 -99.843 -45.980  0.00  0.00     0.107 C 
ATOM     12  C   UNL d   1     -55.006 -99.970 -43.806  0.00  0.00     0.099 A 
ATOM     13  O   UNL d   1     -55.073 -98.834 -44.676  0.00  0.00    -0.266 OA
ENDBRANCH   1   4
BRANCH   2  14
ATOM     14  C   UNL d   1     -54.796-100.920 -41.524  0.00  0.00     0.069 A 
ATOM     15  C   UNL d   1     -54.745-100.422 -40.898  0.00  0.00     0.062 A 
ATOM     16  C   UNL d   1     -54.724-100.720 -40.134  0.00  0.00     0.012 A 
ATOM     17 CL   UNL d   1     -54.714 -99.599 -41.018  0.00  0.00    -0.082 Cl
ATOM     18  C   UNL d   1     -54.755-101.534 -40.011  0.00  0.00     0.008 A 
ATOM     19  C   UNL d   1     -54.807-102.032 -40.652  0.00  0.00     0.035 A 
ATOM     20  C   UNL d   1     -54.828-101.738 -41.420  0.00  0.00     0.012 A 
ATOM     21 BR   UNL d   1     -54.838-102.861 -40.520  0.00  0.00    -0.049 Br
ENDBRANCH   2  14
TORSDOF 2
ENDMDL
