MODEL 1
REMARK VINA RESULT:      15.6      0.000      0.000
REMARK  2 active torsions:
REMARK  status: ('A' for Active; 'I' for Inactive)
REMARK    1  A    between atoms: C_8  and  N_1 
REMARK    2  A    between atoms: O_15  and  C_14 
ROOT
ATOM      1  N   UNL d   1     -51.408  25.235  33.323  0.00  0.00    -0.243 N 
ATOM      2  C   UNL d   1     -52.077  25.659  33.317  0.00  0.00     0.251 A 
ATOM      3  C   UNL d   1     -51.567  24.450  33.325  0.00  0.00     0.264 A 
ATOM      4  C   UNL d   1     -52.719  25.112  33.314  0.00  0.00     0.129 A 
ATOM      5  C   UNL d   1     -52.403  24.363  33.319  0.00  0.00     0.047 A 
ATOM      6  C   UNL d   1     -52.718  23.573  33.320  0.00  0.00     0.001 A 
ATOM      7  C   UNL d   1     -52.896  23.948  33.318  0.00  0.00    -0.009 A 
ATOM      8  C   UNL d   1     -53.562  23.211  33.316  0.00  0.00    -0.000 A 
ATOM      9  C   UNL d   1     -53.725  23.598  33.313  0.00  0.00    -0.004 A 
ATOM     10  C   UNL d   1     -51.996  23.216  33.327  0.00  0.00    -0.004 A 
ATOM     11  O   UNL d   1     -52.119  26.503  33.313  0.00  0.00    -0.271 OA
ATOM     12  O   UNL d   1     -50.872  23.905  33.332  0.00  0.00    -0.267 OA
ENDROOT
BRANCH   1  13
ATOM     13  C   UNL d   1     -50.664  25.570  33.327  0.00  0.00     0.092 A 
ATOM     14  C   UNL d   1     -50.578  26.394  33.338  0.00  0.00     0.110 A 
ATOM     15  C   UNL d   1     -49.831  26.724  33.342  0.00  0.00     0.026 A 
ATOM     16  C   UNL d   1     -49.163  26.240  33.335  0.00  0.00     0.002 A 
ATOM     17  C   UNL d   1     -49.253  25.434  33.325  0.00  0.00     0.002 A 
ATOM     18  C   UNL d   1     -50.003  25.097  33.320  0.00  0.00     0.020 A 
BRANCH  14  19
ATOM     19  O   UNL d   1     -51.255  26.854  33.345  0.00  0.00    -0.327 OA
ATOM     20  C   UNL d   1     -51.225  27.600  33.324  0.00  0.00     0.181 C 
ENDBRANCH  14  19
ENDBRANCH   1  13
TORSDOF 2
ENDMDL
