MODEL 1
REMARK VINA RESULT:       1.6      0.000      0.000
REMARK  3 active torsions:
REMARK  status: ('A' for Active; 'I' for Inactive)
REMARK       I    between atoms: C_4  and  N_1 
REMARK    1  A    between atoms: N_3  and  C_2 
REMARK    2  A    between atoms: C_9  and  C_4 
REMARK    3  A    between atoms: N_10  and  C_5 
ROOT
ATOM      1  C   UNL d   1      32.425  20.547 -21.601  0.00  0.00     0.143 A 
ATOM      2  C   UNL d   1      32.817  21.020 -22.187  0.00  0.00     0.086 A 
ATOM      3  C   UNL d   1      32.467  19.715 -21.684  0.00  0.00     0.030 A 
ATOM      4  C   UNL d   1      32.877  19.387 -22.317  0.00  0.00     0.058 A 
ATOM      5  C   UNL d   1      33.214  20.664 -22.802  0.00  0.00     0.019 A 
ATOM      6  C   UNL d   1      33.240  19.845 -22.861  0.00  0.00     0.006 A 
ENDROOT
BRANCH   4   7
ATOM      7  C   UNL d   1      32.899  18.561 -22.370  0.00  0.00     0.265 C 
ATOM      8  N   UNL d   1      32.581  18.199 -23.059  0.00  0.00    -0.275 N 
ATOM      9  C   UNL d   1      32.554  17.388 -23.209  0.00  0.00     0.067 A 
ATOM     10  C   UNL d   1      32.243  18.596 -23.701  0.00  0.00     0.067 A 
ATOM     11  C   UNL d   1      32.210  17.286 -23.922  0.00  0.00     0.019 A 
ATOM     12  C   UNL d   1      32.850  16.491 -22.712  0.00  0.00     0.019 C 
ATOM     13  C   UNL d   1      32.009  18.022 -24.246  0.00  0.00     0.018 A 
ATOM     14  C   UNL d   1      31.649  18.255 -24.951  0.00  0.00     0.002 A 
ATOM     15  C   UNL d   1      31.533  19.044 -25.095  0.00  0.00     0.000 A 
ATOM     16  C   UNL d   1      31.762  19.614 -24.562  0.00  0.00     0.002 A 
ATOM     17  C   UNL d   1      32.122  19.391 -23.856  0.00  0.00     0.018 A 
ATOM     18  O   UNL d   1      33.222  18.087 -21.767  0.00  0.00    -0.267 OA
ENDBRANCH   4   7
BRANCH   1  19
ATOM     19  N   UNL d   1      32.017  20.906 -20.970  0.00  0.00    -0.112 N 
ATOM     20  O   UNL d   1      32.386  20.980 -20.210  0.00  0.00    -0.532 OA
ATOM     21  O   UNL d   1      31.247  21.196 -21.073  0.00  0.00    -0.532 OA
ENDBRANCH   1  19
BRANCH   2  22
ATOM     22  N   UNL d   1      32.788  21.850 -22.125  0.00  0.00    -0.302 N 
ATOM     23  C   UNL d   1      32.315  22.320 -22.641  0.00  0.00     0.080 A 
ATOM     24  C   UNL d   1      32.302  23.141 -22.561  0.00  0.00     0.019 A 
ATOM     25  C   UNL d   1      32.747  23.509 -21.981  0.00  0.00     0.003 A 
ATOM     26  C   UNL d   1      33.222  23.069 -21.458  0.00  0.00     0.019 A 
ATOM     27  C   UNL d   1      33.238  22.248 -21.536  0.00  0.00     0.080 A 
ENDBRANCH   2  22
TORSDOF 3
ENDMDL
MODEL 2
REMARK VINA RESULT:       3.5      3.437      5.513
REMARK  3 active torsions:
REMARK  status: ('A' for Active; 'I' for Inactive)
REMARK       I    between atoms: C_4  and  N_1 
REMARK    1  A    between atoms: N_3  and  C_2 
REMARK    2  A    between atoms: C_9  and  C_4 
REMARK    3  A    between atoms: N_10  and  C_5 
ROOT
ATOM      1  C   UNL d   1      29.230  17.450 -24.135  0.00  0.00     0.143 A 
ATOM      2  C   UNL d   1      29.167  16.633 -24.359  0.00  0.00     0.086 A 
ATOM      3  C   UNL d   1      29.970  17.824 -24.241  0.00  0.00     0.030 A 
ATOM      4  C   UNL d   1      30.603  17.400 -24.553  0.00  0.00     0.058 A 
ATOM      5  C   UNL d   1      29.812  16.242 -24.665  0.00  0.00     0.019 A 
ATOM      6  C   UNL d   1      30.528  16.632 -24.760  0.00  0.00     0.006 A 
ENDROOT
BRANCH   4   7
ATOM      7  C   UNL d   1      31.321  17.801 -24.646  0.00  0.00     0.265 C 
ATOM      8  N   UNL d   1      32.003  17.485 -24.266  0.00  0.00    -0.275 N 
ATOM      9  C   UNL d   1      32.762  17.805 -24.294  0.00  0.00     0.067 A 
ATOM     10  C   UNL d   1      32.024  16.801 -23.802  0.00  0.00     0.067 A 
ATOM     11  C   UNL d   1      33.239  17.335 -23.861  0.00  0.00     0.019 A 
ATOM     12  C   UNL d   1      33.239  18.649 -24.744  0.00  0.00     0.019 C 
ATOM     13  C   UNL d   1      32.803  16.705 -23.546  0.00  0.00     0.018 A 
ATOM     14  C   UNL d   1      32.996  16.062 -23.067  0.00  0.00     0.002 A 
ATOM     15  C   UNL d   1      32.416  15.536 -22.857  0.00  0.00     0.000 A 
ATOM     16  C   UNL d   1      31.646  15.625 -23.106  0.00  0.00     0.002 A 
ATOM     17  C   UNL d   1      31.445  16.265 -23.585  0.00  0.00     0.018 A 
ATOM     18  O   UNL d   1      31.387  18.497 -25.097  0.00  0.00    -0.267 OA
ENDBRANCH   4   7
BRANCH   1  19
ATOM     19  N   UNL d   1      28.573  17.855 -23.821  0.00  0.00    -0.112 N 
ATOM     20  O   UNL d   1      28.073  18.315 -24.329  0.00  0.00    -0.532 OA
ATOM     21  O   UNL d   1      28.398  17.816 -23.012  0.00  0.00    -0.532 OA
ENDBRANCH   1  19
BRANCH   2  22
ATOM     22  N   UNL d   1      28.440  16.241 -24.262  0.00  0.00    -0.302 N 
ATOM     23  C   UNL d   1      28.113  16.089 -23.499  0.00  0.00     0.080 A 
ATOM     24  C   UNL d   1      27.390  15.698 -23.426  0.00  0.00     0.019 A 
ATOM     25  C   UNL d   1      26.982  15.452 -24.092  0.00  0.00     0.003 A 
ATOM     26  C   UNL d   1      27.281  15.589 -24.856  0.00  0.00     0.019 A 
ATOM     27  C   UNL d   1      28.004  15.980 -24.932  0.00  0.00     0.080 A 
ENDBRANCH   2  22
TORSDOF 3
ENDMDL
MODEL 3
REMARK VINA RESULT:       3.5      1.779      2.903
REMARK  3 active torsions:
REMARK  status: ('A' for Active; 'I' for Inactive)
REMARK       I    between atoms: C_4  and  N_1 
REMARK    1  A    between atoms: N_3  and  C_2 
REMARK    2  A    between atoms: C_9  and  C_4 
REMARK    3  A    between atoms: N_10  and  C_5 
ROOT
ATOM      1  C   UNL d   1      32.229  21.295 -21.067  0.00  0.00     0.143 A 
ATOM      2  C   UNL d   1      32.651  22.027 -20.984  0.00  0.00     0.086 A 
ATOM      3  C   UNL d   1      32.343  20.860 -21.772  0.00  0.00     0.030 A 
ATOM      4  C   UNL d   1      32.850  21.147 -22.353  0.00  0.00     0.058 A 
ATOM      5  C   UNL d   1      33.146  22.284 -21.579  0.00  0.00     0.019 A 
ATOM      6  C   UNL d   1      33.240  21.838 -22.262  0.00  0.00     0.006 A 
ENDROOT
BRANCH   4   7
ATOM      7  C   UNL d   1      32.941  20.692 -23.039  0.00  0.00     0.265 C 
ATOM      8  N   UNL d   1      33.003  21.093 -23.776  0.00  0.00    -0.275 N 
ATOM      9  C   UNL d   1      33.095  20.735 -24.513  0.00  0.00     0.067 A 
ATOM     10  C   UNL d   1      32.982  21.913 -23.883  0.00  0.00     0.067 A 
ATOM     11  C   UNL d   1      33.130  21.315 -25.061  0.00  0.00     0.019 A 
ATOM     12  C   UNL d   1      33.174  19.741 -24.896  0.00  0.00     0.019 C 
ATOM     13  C   UNL d   1      33.062  22.054 -24.692  0.00  0.00     0.018 A 
ATOM     14  C   UNL d   1      33.061  22.831 -24.970  0.00  0.00     0.002 A 
ATOM     15  C   UNL d   1      32.982  23.441 -24.442  0.00  0.00     0.000 A 
ATOM     16  C   UNL d   1      32.903  23.308 -23.643  0.00  0.00     0.002 A 
ATOM     17  C   UNL d   1      32.902  22.535 -23.357  0.00  0.00     0.018 A 
ATOM     18  O   UNL d   1      32.971  19.861 -23.019  0.00  0.00    -0.267 OA
ENDBRANCH   4   7
BRANCH   1  19
ATOM     19  N   UNL d   1      31.722  21.028 -20.462  0.00  0.00    -0.112 N 
ATOM     20  O   UNL d   1      30.886  21.159 -20.517  0.00  0.00    -0.532 OA
ATOM     21  O   UNL d   1      32.025  20.631 -19.800  0.00  0.00    -0.532 OA
ENDBRANCH   1  19
BRANCH   2  22
ATOM     22  N   UNL d   1      32.553  22.476 -20.291  0.00  0.00    -0.302 N 
ATOM     23  C   UNL d   1      31.913  23.020 -20.198  0.00  0.00     0.080 A 
ATOM     24  C   UNL d   1      31.836  23.455 -19.502  0.00  0.00     0.019 A 
ATOM     25  C   UNL d   1      32.376  23.366 -18.894  0.00  0.00     0.003 A 
ATOM     26  C   UNL d   1      33.015  22.837 -18.959  0.00  0.00     0.019 A 
ATOM     27  C   UNL d   1      33.096  22.400 -19.654  0.00  0.00     0.080 A 
ENDBRANCH   2  22
TORSDOF 3
ENDMDL
