MODEL 1
REMARK VINA RESULT:      -5.2      0.000      0.000
REMARK  5 active torsions:
REMARK  status: ('A' for Active; 'I' for Inactive)
REMARK    1  A    between atoms: C_7  and  N_2 
REMARK    2  A    between atoms: C_15  and  C_7 
REMARK    3  A    between atoms: C_8  and  O_14 
REMARK    4  A    between atoms: O_17  and  C_9 
REMARK    5  A    between atoms: O_14  and  C_15 
ROOT
ATOM      1  C   UNL d   1     -41.635-122.378 -50.645  0.00  0.00     0.110 C 
ENDROOT
BRANCH   1   2
ATOM      2  N   UNL d   1     -42.166-122.615 -50.056  0.00  0.00    -0.266 N 
ATOM      3  C   UNL d   1     -42.990-122.508 -50.021  0.00  0.00     0.296 A 
ATOM      4  S   UNL d   1     -43.263-122.848 -49.313  0.00  0.00    -0.025 SA
ATOM      5  O   UNL d   1     -43.450-122.131 -50.593  0.00  0.00    -0.259 OA
ATOM      6  C   UNL d   1     -42.607-123.162 -48.915  0.00  0.00     0.050 A 
ATOM      7  C   UNL d   1     -42.533-123.565 -48.188  0.00  0.00     0.008 A 
ATOM      8  C   UNL d   1     -41.934-123.020 -49.369  0.00  0.00     0.074 A 
ATOM      9  C   UNL d   1     -41.794-123.817 -47.927  0.00  0.00     0.001 A 
ATOM     10  C   UNL d   1     -41.123-123.673 -48.385  0.00  0.00     0.002 A 
ATOM     11  C   UNL d   1     -41.190-123.276 -49.102  0.00  0.00     0.018 A 
ENDBRANCH   1   2
BRANCH   1  12
ATOM     12  C   UNL d   1     -41.742-122.625 -51.420  0.00  0.00     0.142 C 
BRANCH  12  13
ATOM     13  O   UNL d   1     -41.139-122.503 -51.985  0.00  0.00    -0.304 OA
BRANCH  13  14
ATOM     14  C   UNL d   1     -41.317-122.554 -52.792  0.00  0.00     0.100 A 
ATOM     15  C   UNL d   1     -41.162-123.240 -53.201  0.00  0.00     0.027 A 
ATOM     16  C   UNL d   1     -41.340-123.292 -54.007  0.00  0.00     0.026 A 
ATOM     17  C   UNL d   1     -41.676-122.642 -54.393  0.00  0.00     0.094 A 
ATOM     18  C   UNL d   1     -41.828-121.950 -53.964  0.00  0.00     0.026 A 
ATOM     19  C   UNL d   1     -41.648-121.910 -53.167  0.00  0.00     0.027 A 
BRANCH  17  20
ATOM     20  O   UNL d   1     -41.854-122.687 -55.192  0.00  0.00    -0.328 OA
ATOM     21  C   UNL d   1     -42.278-122.079 -55.556  0.00  0.00     0.181 C 
ENDBRANCH  17  20
ENDBRANCH  13  14
ENDBRANCH  12  13
ENDBRANCH   1  12
TORSDOF 5
ENDMDL
