MODEL 1
REMARK VINA RESULT:      93.4      0.000      0.000
REMARK  5 active torsions:
REMARK  status: ('A' for Active; 'I' for Inactive)
REMARK    1  A    between atoms: S_4  and  N_1 
REMARK    2  A    between atoms: C_2  and  C_5 
REMARK    3  A    between atoms: C_12  and  C_7 
REMARK    4  A    between atoms: O_26  and  C_24 
REMARK    5  A    between atoms: C_27  and  O_26 
ROOT
ATOM      1  C   UNL d   1      60.153  47.842  50.739  0.00  0.00     0.076 A 
ATOM      2  C   UNL d   1      60.233  47.245  51.296  0.00  0.00     0.281 A 
ATOM      3  C   UNL d   1      60.610  47.830  50.051  0.00  0.00     0.008 A 
ATOM      4  N   UNL d   1      60.771  46.630  51.170  0.00  0.00    -0.208 NA
ATOM      5  C   UNL d   1      61.232  46.616  50.478  0.00  0.00     0.087 A 
ATOM      6  C   UNL d   1      61.152  47.213  49.921  0.00  0.00     0.018 A 
ATOM      7  C   UNL d   1      61.770  46.002  50.352  0.00  0.00     0.044 A 
ATOM      8  O   UNL d   1      60.019  46.899  52.018  0.00  0.00    -0.265 OA
ATOM      9  C   UNL d   1      61.609  47.201  49.233  0.00  0.00     0.004 A 
ATOM     10  C   UNL d   1      62.186  46.015  49.697  0.00  0.00     0.102 A 
ATOM     11  C   UNL d   1      62.106  46.613  49.139  0.00  0.00     0.025 A 
ENDROOT
BRANCH   1  12
ATOM     12  C   UNL d   1      59.615  48.456  50.866  0.00  0.00     0.101 A 
ATOM     13  N   UNL d   1      59.784  49.184  51.179  0.00  0.00    -0.155 N 
ATOM     14  N   UNL d   1      59.093  49.624  51.209  0.00  0.00    -0.153 NA
ATOM     15  C   UNL d   1      58.494  49.154  50.909  0.00  0.00     0.126 A 
ATOM     16  C   UNL d   1      58.808  48.427  50.693  0.00  0.00     0.043 A 
BRANCH  13  17
ATOM     17  S   UNL d   1      60.524  49.437  51.423  0.00  0.00     0.266 S 
ATOM     18  O   UNL d   1      60.724  49.634  50.628  0.00  0.00    -0.203 OA
ATOM     19  O   UNL d   1      60.354  49.254  52.209  0.00  0.00    -0.203 OA
ATOM     20  C   UNL d   1      61.294  49.704  51.658  0.00  0.00     0.165 C 
ENDBRANCH  13  17
BRANCH  15  21
ATOM     21  C   UNL d   1      57.712  49.368  50.835  0.00  0.00     0.119 A 
ATOM     22  O   UNL d   1      57.174  49.494  51.456  0.00  0.00    -0.304 OA
ATOM     23  C   UNL d   1      56.455  49.700  51.129  0.00  0.00     0.123 A 
ATOM     24  C   UNL d   1      56.527  49.706  50.289  0.00  0.00     0.029 A 
ATOM     25  C   UNL d   1      57.316  49.498  50.131  0.00  0.00     0.028 A 
ENDBRANCH  15  21
ENDBRANCH   1  12
BRANCH  10  26
ATOM     26  O   UNL d   1      62.722  45.418  49.553  0.00  0.00    -0.305 OA
BRANCH  26  27
ATOM     27  C   UNL d   1      62.079  44.463  49.573  0.00  0.00     0.123 C 
ATOM     28  C   UNL d   1      61.984  43.992  48.887  0.00  0.00     0.029 C 
ENDBRANCH  26  27
ENDBRANCH  10  26
TORSDOF 5
ENDMDL
MODEL 2
REMARK VINA RESULT:      94.5      0.860      1.265
REMARK  5 active torsions:
REMARK  status: ('A' for Active; 'I' for Inactive)
REMARK    1  A    between atoms: S_4  and  N_1 
REMARK    2  A    between atoms: C_2  and  C_5 
REMARK    3  A    between atoms: C_12  and  C_7 
REMARK    4  A    between atoms: O_26  and  C_24 
REMARK    5  A    between atoms: C_27  and  O_26 
ROOT
ATOM      1  C   UNL d   1      60.225  47.814  50.646  0.00  0.00     0.076 A 
ATOM      2  C   UNL d   1      60.911  47.949  50.217  0.00  0.00     0.281 A 
ATOM      3  C   UNL d   1      60.072  47.063  50.953  0.00  0.00     0.008 A 
ATOM      4  N   UNL d   1      61.450  47.335  50.091  0.00  0.00    -0.208 NA
ATOM      5  C   UNL d   1      61.297  46.579  50.400  0.00  0.00     0.087 A 
ATOM      6  C   UNL d   1      60.611  46.443  50.830  0.00  0.00     0.018 A 
ATOM      7  C   UNL d   1      61.836  45.964  50.275  0.00  0.00     0.044 A 
ATOM      8  O   UNL d   1      61.404  48.459  49.787  0.00  0.00    -0.265 OA
ATOM      9  C   UNL d   1      60.458  45.692  51.137  0.00  0.00     0.004 A 
ATOM     10  C   UNL d   1      61.666  45.269  50.575  0.00  0.00     0.102 A 
ATOM     11  C   UNL d   1      60.980  45.133  51.005  0.00  0.00     0.025 A 
ENDROOT
BRANCH   1  12
ATOM     12  C   UNL d   1      59.687  48.429  50.770  0.00  0.00     0.101 A 
ATOM     13  N   UNL d   1      59.856  49.156  51.085  0.00  0.00    -0.155 N 
ATOM     14  N   UNL d   1      59.166  49.597  51.111  0.00  0.00    -0.153 NA
ATOM     15  C   UNL d   1      58.568  49.129  50.806  0.00  0.00     0.126 A 
ATOM     16  C   UNL d   1      58.882  48.401  50.592  0.00  0.00     0.043 A 
BRANCH  13  17
ATOM     17  S   UNL d   1      60.595  49.407  51.336  0.00  0.00     0.266 S 
ATOM     18  O   UNL d   1      60.758  49.708  50.566  0.00  0.00    -0.203 OA
ATOM     19  O   UNL d   1      60.461  49.121  52.098  0.00  0.00    -0.203 OA
ATOM     20  C   UNL d   1      61.363  49.673  51.577  0.00  0.00     0.165 C 
ENDBRANCH  13  17
BRANCH  15  21
ATOM     21  C   UNL d   1      57.787  49.345  50.727  0.00  0.00     0.119 A 
ATOM     22  O   UNL d   1      57.239  49.450  51.343  0.00  0.00    -0.304 OA
ATOM     23  C   UNL d   1      56.525  49.666  51.012  0.00  0.00     0.123 A 
ATOM     24  C   UNL d   1      56.610  49.701  50.174  0.00  0.00     0.029 A 
ATOM     25  C   UNL d   1      57.402  49.498  50.021  0.00  0.00     0.028 A 
ENDBRANCH  15  21
ENDBRANCH   1  12
BRANCH  10  26
ATOM     26  O   UNL d   1      62.184  44.650  50.464  0.00  0.00    -0.305 OA
BRANCH  26  27
ATOM     27  C   UNL d   1      61.828  43.856  51.219  0.00  0.00     0.123 C 
ATOM     28  C   UNL d   1      62.285  43.172  51.375  0.00  0.00     0.029 C 
ENDBRANCH  26  27
ENDBRANCH  10  26
TORSDOF 5
ENDMDL
