MODEL 1
REMARK VINA RESULT:      -9.1      0.000      0.000
REMARK  3 active torsions:
REMARK  status: ('A' for Active; 'I' for Inactive)
REMARK    1  A    between atoms: S_4  and  C_1 
REMARK    2  A    between atoms: C_8  and  S_4 
REMARK    3  A    between atoms: C_9  and  C_8 
ROOT
ATOM      1  C   UNL d   1      53.759  32.980  54.241  0.00  0.00     0.114 A 
ATOM      2  C   UNL d   1      53.398  33.716  54.148  0.00  0.00     0.042 A 
ATOM      3  N   UNL d   1      54.395  32.901  54.757  0.00  0.00    -0.217 NA
ATOM      4  N   UNL d   1      54.309  34.291  55.085  0.00  0.00    -0.224 NA
ATOM      5  C   UNL d   1      54.671  33.558  55.180  0.00  0.00     0.200 A 
ATOM      6  C   UNL d   1      53.673  34.370  54.569  0.00  0.00     0.085 A 
ATOM      7  C   UNL d   1      52.762  33.795  53.633  0.00  0.00     0.004 A 
ATOM      8  C   UNL d   1      53.307  35.105  54.472  0.00  0.00     0.019 A 
ATOM      9  C   UNL d   1      52.390  34.532  53.530  0.00  0.00     0.000 A 
ATOM     10  C   UNL d   1      52.671  35.184  53.957  0.00  0.00     0.002 A 
ENDROOT
BRANCH   1  11
ATOM     11  S   UNL d   1      53.481  32.319  53.816  0.00  0.00    -0.067 SA
BRANCH  11  12
ATOM     12  C   UNL d   1      53.647  31.561  54.079  0.00  0.00     0.037 C 
BRANCH  12  13
ATOM     13  C   UNL d   1      53.361  30.909  53.660  0.00  0.00     0.006 A 
ATOM     14  C   UNL d   1      53.273  30.174  54.051  0.00  0.00     0.001 A 
ATOM     15  C   UNL d   1      53.472  30.106  54.849  0.00  0.00     0.000 C 
ATOM     16  C   UNL d   1      52.985  29.522  53.624  0.00  0.00     0.000 A 
ATOM     17  C   UNL d   1      52.790  29.598  52.835  0.00  0.00     0.000 A 
ATOM     18  C   UNL d   1      52.879  30.323  52.457  0.00  0.00     0.000 A 
ATOM     19  C   UNL d   1      53.164  30.986  52.864  0.00  0.00     0.001 A 
ENDBRANCH  12  13
ENDBRANCH  11  12
ENDBRANCH   1  11
TORSDOF 3
ENDMDL
MODEL 2
REMARK VINA RESULT:      -8.3      1.605      3.519
REMARK  3 active torsions:
REMARK  status: ('A' for Active; 'I' for Inactive)
REMARK    1  A    between atoms: S_4  and  C_1 
REMARK    2  A    between atoms: C_8  and  S_4 
REMARK    3  A    between atoms: C_9  and  C_8 
ROOT
ATOM      1  C   UNL d   1      53.025  33.009  53.656  0.00  0.00     0.114 A 
ATOM      2  C   UNL d   1      53.618  33.264  54.169  0.00  0.00     0.042 A 
ATOM      3  N   UNL d   1      53.126  32.312  53.231  0.00  0.00    -0.217 NA
ATOM      4  N   UNL d   1      54.411  32.126  53.833  0.00  0.00    -0.224 NA
ATOM      5  C   UNL d   1      53.821  31.869  53.320  0.00  0.00     0.200 A 
ATOM      6  C   UNL d   1      54.309  32.824  54.257  0.00  0.00     0.085 A 
ATOM      7  C   UNL d   1      53.516  33.962  54.593  0.00  0.00     0.004 A 
ATOM      8  C   UNL d   1      54.901  33.084  54.773  0.00  0.00     0.019 A 
ATOM      9  C   UNL d   1      54.107  34.230  55.113  0.00  0.00     0.000 A 
ATOM     10  C   UNL d   1      54.799  33.782  55.197  0.00  0.00     0.002 A 
ENDROOT
BRANCH   1  11
ATOM     11  S   UNL d   1      52.326  33.454  53.566  0.00  0.00    -0.067 SA
BRANCH  11  12
ATOM     12  C   UNL d   1      51.934  33.466  52.847  0.00  0.00     0.037 C 
BRANCH  12  13
ATOM     13  C   UNL d   1      51.199  33.836  52.785  0.00  0.00     0.006 A 
ATOM     14  C   UNL d   1      50.995  34.235  52.078  0.00  0.00     0.001 A 
ATOM     15  C   UNL d   1      51.529  34.255  51.449  0.00  0.00     0.000 C 
ATOM     16  C   UNL d   1      50.253  34.605  52.022  0.00  0.00     0.000 A 
ATOM     17  C   UNL d   1      49.731  34.580  52.649  0.00  0.00     0.000 A 
ATOM     18  C   UNL d   1      49.937  34.187  53.342  0.00  0.00     0.000 A 
ATOM     19  C   UNL d   1      50.671  33.811  53.418  0.00  0.00     0.001 A 
ENDBRANCH  12  13
ENDBRANCH  11  12
ENDBRANCH   1  11
TORSDOF 3
ENDMDL
MODEL 3
REMARK VINA RESULT:      -8.2      1.604      3.791
REMARK  3 active torsions:
REMARK  status: ('A' for Active; 'I' for Inactive)
REMARK    1  A    between atoms: S_4  and  C_1 
REMARK    2  A    between atoms: C_8  and  S_4 
REMARK    3  A    between atoms: C_9  and  C_8 
ROOT
ATOM      1  C   UNL d   1      52.943  32.677  53.239  0.00  0.00     0.114 A 
ATOM      2  C   UNL d   1      53.101  31.869  53.279  0.00  0.00     0.042 A 
ATOM      3  N   UNL d   1      53.462  33.211  53.589  0.00  0.00    -0.217 NA
ATOM      4  N   UNL d   1      54.294  32.129  54.018  0.00  0.00    -0.224 NA
ATOM      5  C   UNL d   1      54.139  32.936  53.980  0.00  0.00     0.200 A 
ATOM      6  C   UNL d   1      53.775  31.595  53.668  0.00  0.00     0.085 A 
ATOM      7  C   UNL d   1      52.582  31.335  52.929  0.00  0.00     0.004 A 
ATOM      8  C   UNL d   1      53.928  30.783  53.705  0.00  0.00     0.019 A 
ATOM      9  C   UNL d   1      52.730  30.517  52.962  0.00  0.00     0.000 A 
ATOM     10  C   UNL d   1      53.409  30.250  53.355  0.00  0.00     0.002 A 
ENDROOT
BRANCH   1  11
ATOM     11  S   UNL d   1      52.263  32.954  52.846  0.00  0.00    -0.067 SA
BRANCH  11  12
ATOM     12  C   UNL d   1      51.904  33.651  53.085  0.00  0.00     0.037 C 
BRANCH  12  13
ATOM     13  C   UNL d   1      51.260  33.949  52.660  0.00  0.00     0.006 A 
ATOM     14  C   UNL d   1      50.581  34.213  53.072  0.00  0.00     0.001 A 
ATOM     15  C   UNL d   1      50.559  34.175  53.896  0.00  0.00     0.000 C 
ATOM     16  C   UNL d   1      49.939  34.511  52.639  0.00  0.00     0.000 A 
ATOM     17  C   UNL d   1      49.969  34.546  51.824  0.00  0.00     0.000 A 
ATOM     18  C   UNL d   1      50.639  34.284  51.425  0.00  0.00     0.000 A 
ATOM     19  C   UNL d   1      51.291  33.983  51.838  0.00  0.00     0.001 A 
ENDBRANCH  12  13
ENDBRANCH  11  12
ENDBRANCH   1  11
TORSDOF 3
ENDMDL
MODEL 4
REMARK VINA RESULT:      -8.0      1.248      4.230
REMARK  3 active torsions:
REMARK  status: ('A' for Active; 'I' for Inactive)
REMARK    1  A    between atoms: S_4  and  C_1 
REMARK    2  A    between atoms: C_8  and  S_4 
REMARK    3  A    between atoms: C_9  and  C_8 
ROOT
ATOM      1  C   UNL d   1      53.359  31.197  53.563  0.00  0.00     0.114 A 
ATOM      2  C   UNL d   1      53.283  30.425  53.842  0.00  0.00     0.042 A 
ATOM      3  N   UNL d   1      53.101  31.383  52.804  0.00  0.00    -0.217 NA
ATOM      4  N   UNL d   1      52.692  30.026  52.605  0.00  0.00    -0.224 NA
ATOM      5  C   UNL d   1      52.766  30.796  52.324  0.00  0.00     0.200 A 
ATOM      6  C   UNL d   1      52.950  29.840  53.364  0.00  0.00     0.085 A 
ATOM      7  C   UNL d   1      53.541  30.239  54.600  0.00  0.00     0.004 A 
ATOM      8  C   UNL d   1      52.876  29.068  53.649  0.00  0.00     0.019 A 
ATOM      9  C   UNL d   1      53.470  29.463  54.893  0.00  0.00     0.000 A 
ATOM     10  C   UNL d   1      53.135  28.882  54.407  0.00  0.00     0.002 A 
ENDROOT
BRANCH   1  11
ATOM     11  S   UNL d   1      53.695  31.787  54.046  0.00  0.00    -0.067 SA
BRANCH  11  12
ATOM     12  C   UNL d   1      53.519  32.576  53.915  0.00  0.00     0.037 C 
BRANCH  12  13
ATOM     13  C   UNL d   1      53.887  33.160  54.368  0.00  0.00     0.006 A 
ATOM     14  C   UNL d   1      53.485  33.879  54.520  0.00  0.00     0.001 A 
ATOM     15  C   UNL d   1      52.727  33.998  54.218  0.00  0.00     0.000 C 
ATOM     16  C   UNL d   1      53.862  34.462  54.976  0.00  0.00     0.000 A 
ATOM     17  C   UNL d   1      54.612  34.336  55.272  0.00  0.00     0.000 A 
ATOM     18  C   UNL d   1      55.001  33.628  55.118  0.00  0.00     0.000 A 
ATOM     19  C   UNL d   1      54.644  33.033  54.666  0.00  0.00     0.001 A 
ENDBRANCH  12  13
ENDBRANCH  11  12
ENDBRANCH   1  11
TORSDOF 3
ENDMDL
MODEL 5
REMARK VINA RESULT:      -7.0      2.015      3.386
REMARK  3 active torsions:
REMARK  status: ('A' for Active; 'I' for Inactive)
REMARK    1  A    between atoms: S_4  and  C_1 
REMARK    2  A    between atoms: C_8  and  S_4 
REMARK    3  A    between atoms: C_9  and  C_8 
ROOT
ATOM      1  C   UNL d   1      52.195  33.096  53.512  0.00  0.00     0.114 A 
ATOM      2  C   UNL d   1      51.573  33.576  53.261  0.00  0.00     0.042 A 
ATOM      3  N   UNL d   1      52.125  32.278  53.457  0.00  0.00    -0.217 NA
ATOM      4  N   UNL d   1      50.814  32.422  52.901  0.00  0.00    -0.224 NA
ATOM      5  C   UNL d   1      51.432  31.940  53.151  0.00  0.00     0.200 A 
ATOM      6  C   UNL d   1      50.884  33.240  52.956  0.00  0.00     0.085 A 
ATOM      7  C   UNL d   1      51.643  34.394  53.315  0.00  0.00     0.004 A 
ATOM      8  C   UNL d   1      50.264  33.726  52.705  0.00  0.00     0.019 A 
ATOM      9  C   UNL d   1      51.023  34.890  53.065  0.00  0.00     0.000 A 
ATOM     10  C   UNL d   1      50.334  34.544  52.760  0.00  0.00     0.002 A 
ENDROOT
BRANCH   1  11
ATOM     11  S   UNL d   1      52.890  33.436  53.820  0.00  0.00    -0.067 SA
BRANCH  11  12
ATOM     12  C   UNL d   1      53.559  32.976  53.931  0.00  0.00     0.037 C 
BRANCH  12  13
ATOM     13  C   UNL d   1      54.190  33.269  54.377  0.00  0.00     0.006 A 
ATOM     14  C   UNL d   1      54.965  33.242  54.062  0.00  0.00     0.001 A 
ATOM     15  C   UNL d   1      55.093  32.924  53.311  0.00  0.00     0.000 C 
ATOM     16  C   UNL d   1      55.595  33.538  54.516  0.00  0.00     0.000 A 
ATOM     17  C   UNL d   1      55.459  33.850  55.257  0.00  0.00     0.000 A 
ATOM     18  C   UNL d   1      54.695  33.873  55.561  0.00  0.00     0.000 A 
ATOM     19  C   UNL d   1      54.053  33.584  55.126  0.00  0.00     0.001 A 
ENDBRANCH  12  13
ENDBRANCH  11  12
ENDBRANCH   1  11
TORSDOF 3
ENDMDL
MODEL 6
REMARK VINA RESULT:      -6.6      3.925      5.195
REMARK  3 active torsions:
REMARK  status: ('A' for Active; 'I' for Inactive)
REMARK    1  A    between atoms: S_4  and  C_1 
REMARK    2  A    between atoms: C_8  and  S_4 
REMARK    3  A    between atoms: C_9  and  C_8 
ROOT
ATOM      1  C   UNL d   1      49.334  34.773  52.079  0.00  0.00     0.114 A 
ATOM      2  C   UNL d   1      48.691  35.236  52.307  0.00  0.00     0.042 A 
ATOM      3  N   UNL d   1      49.330  34.404  51.344  0.00  0.00    -0.217 NA
ATOM      4  N   UNL d   1      48.041  34.959  51.067  0.00  0.00    -0.224 NA
ATOM      5  C   UNL d   1      48.681  34.497  50.837  0.00  0.00     0.200 A 
ATOM      6  C   UNL d   1      48.045  35.328  51.802  0.00  0.00     0.085 A 
ATOM      7  C   UNL d   1      48.695  35.606  53.042  0.00  0.00     0.004 A 
ATOM      8  C   UNL d   1      47.402  35.793  52.036  0.00  0.00     0.019 A 
ATOM      9  C   UNL d   1      48.052  36.075  53.284  0.00  0.00     0.000 A 
ATOM     10  C   UNL d   1      47.407  36.163  52.770  0.00  0.00     0.002 A 
ENDROOT
BRANCH   1  11
ATOM     11  S   UNL d   1      49.986  34.680  52.589  0.00  0.00    -0.067 SA
BRANCH  11  12
ATOM     12  C   UNL d   1      50.493  34.043  52.499  0.00  0.00     0.037 C 
BRANCH  12  13
ATOM     13  C   UNL d   1      51.221  34.036  52.889  0.00  0.00     0.006 A 
ATOM     14  C   UNL d   1      51.497  33.327  53.236  0.00  0.00     0.001 A 
ATOM     15  C   UNL d   1      51.042  32.640  53.186  0.00  0.00     0.000 C 
ATOM     16  C   UNL d   1      52.230  33.328  53.627  0.00  0.00     0.000 A 
ATOM     17  C   UNL d   1      52.674  34.011  53.672  0.00  0.00     0.000 A 
ATOM     18  C   UNL d   1      52.397  34.705  53.329  0.00  0.00     0.000 A 
ATOM     19  C   UNL d   1      51.669  34.726  52.934  0.00  0.00     0.001 A 
ENDBRANCH  12  13
ENDBRANCH  11  12
ENDBRANCH   1  11
TORSDOF 3
ENDMDL
MODEL 7
REMARK VINA RESULT:      -6.2      9.630     10.146
REMARK  3 active torsions:
REMARK  status: ('A' for Active; 'I' for Inactive)
REMARK    1  A    between atoms: S_4  and  C_1 
REMARK    2  A    between atoms: C_8  and  S_4 
REMARK    3  A    between atoms: C_9  and  C_8 
ROOT
ATOM      1  C   UNL d   1      44.960  29.753  58.074  0.00  0.00     0.114 A 
ATOM      2  C   UNL d   1      44.745  30.197  57.413  0.00  0.00     0.042 A 
ATOM      3  N   UNL d   1      45.164  30.137  58.773  0.00  0.00    -0.217 NA
ATOM      4  N   UNL d   1      44.940  31.405  58.148  0.00  0.00    -0.224 NA
ATOM      5  C   UNL d   1      45.155  30.965  58.810  0.00  0.00     0.200 A 
ATOM      6  C   UNL d   1      44.735  31.021  57.450  0.00  0.00     0.085 A 
ATOM      7  C   UNL d   1      44.540  29.813  56.715  0.00  0.00     0.004 A 
ATOM      8  C   UNL d   1      44.519  31.461  56.784  0.00  0.00     0.019 A 
ATOM      9  C   UNL d   1      44.322  30.249  56.041  0.00  0.00     0.000 A 
ATOM     10  C   UNL d   1      44.315  31.077  56.085  0.00  0.00     0.002 A 
ENDROOT
BRANCH   1  11
ATOM     11  S   UNL d   1      44.969  28.921  58.037  0.00  0.00    -0.067 SA
BRANCH  11  12
ATOM     12  C   UNL d   1      44.972  28.478  58.726  0.00  0.00     0.037 C 
BRANCH  12  13
ATOM     13  C   UNL d   1      44.997  27.653  58.685  0.00  0.00     0.006 A 
ATOM     14  C   UNL d   1      44.665  27.199  59.304  0.00  0.00     0.001 A 
ATOM     15  C   UNL d   1      44.316  27.576  59.949  0.00  0.00     0.000 C 
ATOM     16  C   UNL d   1      44.694  26.370  59.256  0.00  0.00     0.000 A 
ATOM     17  C   UNL d   1      45.041  26.005  58.614  0.00  0.00     0.000 A 
ATOM     18  C   UNL d   1      45.366  26.458  58.009  0.00  0.00     0.000 A 
ATOM     19  C   UNL d   1      45.348  27.285  58.037  0.00  0.00     0.001 A 
ENDBRANCH  12  13
ENDBRANCH  11  12
ENDBRANCH   1  11
TORSDOF 3
ENDMDL
