MODEL 1
REMARK VINA RESULT:      75.0      0.000      0.000
REMARK  4 active torsions:
REMARK  status: ('A' for Active; 'I' for Inactive)
REMARK    1  A    between atoms: S_5  and  C_3 
REMARK    2  A    between atoms: C_13  and  S_5 
REMARK    3  A    between atoms: C_23  and  N_7 
REMARK    4  A    between atoms: C_29  and  C_23 
ROOT
ATOM      1  C   UNL d   1      13.918  13.711  -2.915  0.00  0.00     0.155 A 
ATOM      2  C   UNL d   1      13.952  14.444  -3.267  0.00  0.00     0.092 A 
ATOM      3  C   UNL d   1      14.525  14.982  -2.097  0.00  0.00     0.124 A 
ATOM      4  N   UNL d   1      13.613  13.072  -3.328  0.00  0.00    -0.210 NA
ATOM      5  N   UNL d   1      13.378  13.907  -4.442  0.00  0.00    -0.258 N 
ATOM      6  N   UNL d   1      14.185  13.610  -2.159  0.00  0.00    -0.273 N 
ATOM      7  C   UNL d   1      13.346  13.168  -4.082  0.00  0.00     0.152 A 
ATOM      8  C   UNL d   1      14.491  14.242  -1.742  0.00  0.00     0.181 A 
ATOM      9  C   UNL d   1      13.682  14.545  -4.032  0.00  0.00     0.269 A 
ATOM     10  C   UNL d   1      14.254  15.080  -2.861  0.00  0.00     0.022 A 
ATOM     11  C   UNL d   1      13.040  12.529  -4.496  0.00  0.00     0.035 A 
ATOM     12  C   UNL d   1      13.104  13.997  -5.210  0.00  0.00     0.084 A 
ATOM     13  N   UNL d   1      14.762  14.134  -0.969  0.00  0.00    -0.128 N 
ATOM     14  O   UNL d   1      13.714  15.292  -4.395  0.00  0.00    -0.266 OA
ATOM     15  C   UNL d   1      12.801  13.360  -5.616  0.00  0.00     0.019 A 
ATOM     16  C   UNL d   1      12.769  12.622  -5.257  0.00  0.00     0.005 A 
ATOM     17  C   UNL d   1      13.008  11.782  -4.132  0.00  0.00     0.003 C 
ENDROOT
BRANCH   3  18
ATOM     18  S   UNL d   1      14.832  15.624  -1.681  0.00  0.00     0.213 S 
ATOM     19  O   UNL d   1      14.463  15.362  -0.983  0.00  0.00    -0.217 OA
ATOM     20  O   UNL d   1      15.202  15.893  -2.367  0.00  0.00    -0.217 OA
BRANCH  18  21
ATOM     21  C   UNL d   1      15.147  16.275  -1.270  0.00  0.00     0.088 A 
ATOM     22  C   UNL d   1      15.138  17.026  -1.612  0.00  0.00     0.014 A 
ATOM     23  C   UNL d   1      15.453  17.676  -1.199  0.00  0.00     0.030 A 
ATOM     24  C   UNL d   1      15.775  17.572  -0.446  0.00  0.00     0.140 A 
ATOM     25  C   UNL d   1      15.781  16.807  -0.104  0.00  0.00     0.030 A 
ATOM     26  F   UNL d   1      16.090  18.213  -0.030  0.00  0.00    -0.204 F 
ATOM     27  C   UNL d   1      15.467  16.162  -0.516  0.00  0.00     0.014 A 
ENDBRANCH  18  21
ENDBRANCH   3  18
BRANCH   6  28
ATOM     28  C   UNL d   1      14.151  12.858  -1.798  0.00  0.00     0.083 C 
BRANCH  28  29
ATOM     29  C   UNL d   1      14.845  12.519  -1.487  0.00  0.00     0.019 C 
ATOM     30  C   UNL d   1      14.815  11.792  -1.083  0.00  0.00     0.002 C 
ENDBRANCH  28  29
ENDBRANCH   6  28
TORSDOF 4
ENDMDL
