MODEL 1
REMARK VINA RESULT:      -4.5      0.000      0.000
REMARK  3 active torsions:
REMARK  status: ('A' for Active; 'I' for Inactive)
REMARK    1  A    between atoms: N_2  and  C_1 
REMARK    2  A    between atoms: C_4  and  C_8 
REMARK    3  A    between atoms: N_14  and  C_5 
ROOT
ATOM      1  C   UNL d   1      56.350  -0.742  32.543  0.00  0.00     0.143 A 
ATOM      2  C   UNL d   1      56.062  -0.024  32.823  0.00  0.00     0.086 A 
ATOM      3  C   UNL d   1      56.879  -0.758  31.904  0.00  0.00     0.027 A 
ATOM      4  C   UNL d   1      57.118  -0.044  31.546  0.00  0.00     0.021 A 
ATOM      5  C   UNL d   1      56.298   0.682  32.469  0.00  0.00     0.019 A 
ATOM      6  C   UNL d   1      56.825   0.678  31.831  0.00  0.00     0.003 A 
ENDROOT
BRANCH   4   7
ATOM      7  C   UNL d   1      57.642  -0.056  30.912  0.00  0.00     0.103 A 
ATOM      8  N   UNL d   1      57.429  -0.429  30.207  0.00  0.00    -0.145 NA
ATOM      9  N   UNL d   1      57.953  -0.441  29.574  0.00  0.00    -0.106 NA
ATOM     10  C   UNL d   1      58.692  -0.081  29.642  0.00  0.00     0.297 A 
ATOM     11  C   UNL d   1      58.904   0.292  30.348  0.00  0.00     0.066 A 
ATOM     12  O   UNL d   1      59.216  -0.093  29.009  0.00  0.00    -0.264 OA
ATOM     13  C   UNL d   1      58.378   0.306  30.989  0.00  0.00     0.024 A 
ATOM     14  C   UNL d   1      58.592   0.678  31.690  0.00  0.00     0.002 C 
ENDBRANCH   4   7
BRANCH   1  15
ATOM     15  N   UNL d   1      56.117  -1.455  32.893  0.00  0.00    -0.112 N 
ATOM     16  O   UNL d   1      55.488  -1.882  32.562  0.00  0.00    -0.532 OA
ATOM     17  O   UNL d   1      56.504  -1.739  33.561  0.00  0.00    -0.532 OA
ENDBRANCH   1  15
BRANCH   2  18
ATOM     18  N   UNL d   1      55.538  -0.012  33.456  0.00  0.00    -0.300 N 
ATOM     19  C   UNL d   1      54.728   0.013  33.316  0.00  0.00     0.100 C 
ATOM     20  C   UNL d   1      55.824  -0.026  34.228  0.00  0.00     0.100 C 
ENDBRANCH   2  18
TORSDOF 3
ENDMDL
MODEL 2
REMARK VINA RESULT:      -4.0      1.098      3.924
REMARK  3 active torsions:
REMARK  status: ('A' for Active; 'I' for Inactive)
REMARK    1  A    between atoms: N_2  and  C_1 
REMARK    2  A    between atoms: C_4  and  C_8 
REMARK    3  A    between atoms: N_14  and  C_5 
ROOT
ATOM      1  C   UNL d   1      58.353  -0.675  30.047  0.00  0.00     0.143 A 
ATOM      2  C   UNL d   1      58.404   0.121  29.844  0.00  0.00     0.086 A 
ATOM      3  C   UNL d   1      57.869  -0.915  30.676  0.00  0.00     0.027 A 
ATOM      4  C   UNL d   1      57.433  -0.348  31.103  0.00  0.00     0.021 A 
ATOM      5  C   UNL d   1      57.973   0.682  30.267  0.00  0.00     0.019 A 
ATOM      6  C   UNL d   1      57.487   0.454  30.896  0.00  0.00     0.003 A 
ENDROOT
BRANCH   4   7
ATOM      7  C   UNL d   1      56.952  -0.582  31.727  0.00  0.00     0.103 A 
ATOM      8  N   UNL d   1      56.603  -1.331  31.722  0.00  0.00    -0.145 NA
ATOM      9  N   UNL d   1      56.123  -1.565  32.346  0.00  0.00    -0.106 NA
ATOM     10  C   UNL d   1      55.987  -1.053  32.977  0.00  0.00     0.297 A 
ATOM     11  C   UNL d   1      56.336  -0.304  32.983  0.00  0.00     0.066 A 
ATOM     12  O   UNL d   1      55.506  -1.288  33.602  0.00  0.00    -0.264 OA
ATOM     13  C   UNL d   1      56.822  -0.064  32.355  0.00  0.00     0.024 A 
ATOM     14  C   UNL d   1      57.167   0.681  32.362  0.00  0.00     0.002 C 
ENDBRANCH   4   7
BRANCH   1  15
ATOM     15  N   UNL d   1      58.783  -1.245  29.627  0.00  0.00    -0.112 N 
ATOM     16  O   UNL d   1      59.565  -1.409  29.851  0.00  0.00    -0.532 OA
ATOM     17  O   UNL d   1      58.442  -1.645  28.994  0.00  0.00    -0.532 OA
ENDBRANCH   1  15
BRANCH   2  18
ATOM     18  N   UNL d   1      58.885   0.354  29.220  0.00  0.00    -0.300 N 
ATOM     19  C   UNL d   1      59.670   0.555  29.362  0.00  0.00     0.100 C 
ATOM     20  C   UNL d   1      58.581   0.388  28.455  0.00  0.00     0.100 C 
ENDBRANCH   2  18
TORSDOF 3
ENDMDL
MODEL 3
REMARK VINA RESULT:      -2.2      1.156      3.988
REMARK  3 active torsions:
REMARK  status: ('A' for Active; 'I' for Inactive)
REMARK    1  A    between atoms: N_2  and  C_1 
REMARK    2  A    between atoms: C_4  and  C_8 
REMARK    3  A    between atoms: N_14  and  C_5 
ROOT
ATOM      1  C   UNL d   1      58.472  -0.538  29.839  0.00  0.00     0.143 A 
ATOM      2  C   UNL d   1      59.073   0.023  29.854  0.00  0.00     0.086 A 
ATOM      3  C   UNL d   1      57.891  -0.543  30.431  0.00  0.00     0.027 A 
ATOM      4  C   UNL d   1      57.919   0.022  31.042  0.00  0.00     0.021 A 
ATOM      5  C   UNL d   1      59.101   0.582  30.459  0.00  0.00     0.019 A 
ATOM      6  C   UNL d   1      58.527   0.586  31.055  0.00  0.00     0.003 A 
ENDROOT
BRANCH   4   7
ATOM      7  C   UNL d   1      57.344   0.021  31.631  0.00  0.00     0.103 A 
ATOM      8  N   UNL d   1      56.602  -0.311  31.484  0.00  0.00    -0.145 NA
ATOM      9  N   UNL d   1      56.029  -0.312  32.073  0.00  0.00    -0.106 NA
ATOM     10  C   UNL d   1      56.193   0.017  32.810  0.00  0.00     0.297 A 
ATOM     11  C   UNL d   1      56.936   0.348  32.958  0.00  0.00     0.066 A 
ATOM     12  O   UNL d   1      55.619   0.015  33.399  0.00  0.00    -0.264 OA
ATOM     13  C   UNL d   1      57.517   0.352  32.366  0.00  0.00     0.024 A 
ATOM     14  C   UNL d   1      58.255   0.682  32.515  0.00  0.00     0.002 C 
ENDBRANCH   4   7
BRANCH   1  15
ATOM     15  N   UNL d   1      58.438  -1.103  29.235  0.00  0.00    -0.112 N 
ATOM     16  O   UNL d   1      58.676  -1.882  29.394  0.00  0.00    -0.532 OA
ATOM     17  O   UNL d   1      58.171  -0.898  28.484  0.00  0.00    -0.532 OA
ENDBRANCH   1  15
BRANCH   2  18
ATOM     18  N   UNL d   1      59.647   0.024  29.266  0.00  0.00    -0.300 N 
ATOM     19  C   UNL d   1      59.669   0.637  28.717  0.00  0.00     0.100 C 
ATOM     20  C   UNL d   1      60.198  -0.587  29.225  0.00  0.00     0.100 C 
ENDBRANCH   2  18
TORSDOF 3
ENDMDL
