MODEL 1
REMARK VINA RESULT:      -6.4      0.000      0.000
REMARK  4 active torsions:
REMARK  status: ('A' for Active; 'I' for Inactive)
REMARK    1  A    between atoms: N_2  and  C_1 
REMARK    2  A    between atoms: N_4  and  C_1 
REMARK       I    between atoms: C_3  and  N_2 
REMARK    3  A    between atoms: C_6  and  C_3 
REMARK    4  A    between atoms: C_9  and  N_5 
ROOT
ATOM      1  N   UNL d   1     -47.043  13.184  22.965  0.00  0.00    -0.278 N 
ATOM      2  N   UNL d   1     -45.893  12.023  23.152  0.00  0.00    -0.301 N 
ATOM      3  C   UNL d   1     -46.336  13.225  22.534  0.00  0.00     0.101 A 
ATOM      4  C   UNL d   1     -47.180  12.561  23.494  0.00  0.00     0.101 A 
ATOM      5  C   UNL d   1     -45.764  12.638  22.633  0.00  0.00     0.100 A 
ATOM      6  C   UNL d   1     -46.608  11.978  23.591  0.00  0.00     0.100 A 
ENDROOT
BRANCH   1   7
ATOM      7  C   UNL d   1     -47.610  13.774  22.861  0.00  0.00     0.209 C 
ATOM      8  S   UNL d   1     -47.388  14.556  22.920  0.00  0.00    -0.038 SA
BRANCH   7   9
ATOM      9  N   UNL d   1     -48.380  13.552  22.701  0.00  0.00    -0.179 NA
ATOM     10  C   UNL d   1     -48.941  14.121  22.553  0.00  0.00     0.287 C 
ATOM     11  O   UNL d   1     -48.698  14.898  22.574  0.00  0.00    -0.265 OA
BRANCH  10  12
ATOM     12  C   UNL d   1     -49.710  13.927  22.392  0.00  0.00     0.087 A 
ATOM     13  S   UNL d   1     -50.323  13.983  22.929  0.00  0.00    -0.082 SA
ATOM     14  C   UNL d   1     -51.039  13.731  22.554  0.00  0.00     0.036 A 
ATOM     15  C   UNL d   1     -50.830  13.523  21.775  0.00  0.00     0.008 A 
ATOM     16  C   UNL d   1     -50.037  13.633  21.658  0.00  0.00     0.012 A 
ENDBRANCH  10  12
ENDBRANCH   7   9
ENDBRANCH   1   7
BRANCH   2  17
ATOM     17  C   UNL d   1     -45.320  11.439  23.249  0.00  0.00     0.064 A 
ATOM     18  C   UNL d   1     -45.522  10.715  23.607  0.00  0.00     0.020 A 
ATOM     19  C   UNL d   1     -44.942  10.140  23.698  0.00  0.00     0.031 A 
ATOM     20  C   UNL d   1     -44.163  10.268  23.441  0.00  0.00     0.140 A 
ATOM     21  C   UNL d   1     -43.963  10.991  23.083  0.00  0.00     0.031 A 
ATOM     22  F   UNL d   1     -43.601   9.683  23.541  0.00  0.00    -0.204 F 
ATOM     23  C   UNL d   1     -44.549  11.576  22.990  0.00  0.00     0.020 A 
ENDBRANCH   2  17
TORSDOF 4
ENDMDL
MODEL 2
REMARK VINA RESULT:      -5.9      1.300      1.712
REMARK  4 active torsions:
REMARK  status: ('A' for Active; 'I' for Inactive)
REMARK    1  A    between atoms: N_2  and  C_1 
REMARK    2  A    between atoms: N_4  and  C_1 
REMARK       I    between atoms: C_3  and  N_2 
REMARK    3  A    between atoms: C_6  and  C_3 
REMARK    4  A    between atoms: C_9  and  N_5 
ROOT
ATOM      1  N   UNL d   1     -48.007  12.081  23.247  0.00  0.00    -0.278 N 
ATOM      2  N   UNL d   1     -46.461  11.522  23.291  0.00  0.00    -0.301 N 
ATOM      3  C   UNL d   1     -47.824  11.393  23.673  0.00  0.00     0.101 A 
ATOM      4  C   UNL d   1     -47.416  12.495  22.840  0.00  0.00     0.101 A 
ATOM      5  C   UNL d   1     -47.046  11.119  23.690  0.00  0.00     0.100 A 
ATOM      6  C   UNL d   1     -46.640  12.219  22.859  0.00  0.00     0.100 A 
ENDROOT
BRANCH   1   7
ATOM      7  C   UNL d   1     -48.786  12.349  23.235  0.00  0.00     0.209 C 
ATOM      8  S   UNL d   1     -49.395  11.807  23.262  0.00  0.00    -0.038 SA
BRANCH   7   9
ATOM      9  N   UNL d   1     -48.923  13.154  23.196  0.00  0.00    -0.179 NA
ATOM     10  C   UNL d   1     -49.672  13.442  23.319  0.00  0.00     0.287 C 
ATOM     11  O   UNL d   1     -50.259  12.900  23.479  0.00  0.00    -0.265 OA
BRANCH  10  12
ATOM     12  C   UNL d   1     -49.833  14.234  23.286  0.00  0.00     0.087 A 
ATOM     13  S   UNL d   1     -50.572  14.551  23.137  0.00  0.00    -0.082 SA
ATOM     14  C   UNL d   1     -50.515  15.395  23.147  0.00  0.00     0.036 A 
ATOM     15  C   UNL d   1     -49.717  15.570  23.308  0.00  0.00     0.008 A 
ATOM     16  C   UNL d   1     -49.292  14.888  23.394  0.00  0.00     0.012 A 
ENDBRANCH  10  12
ENDBRANCH   7   9
ENDBRANCH   1   7
BRANCH   2  17
ATOM     17  C   UNL d   1     -45.684  11.246  23.310  0.00  0.00     0.064 A 
ATOM     18  C   UNL d   1     -45.076  11.694  22.962  0.00  0.00     0.020 A 
ATOM     19  C   UNL d   1     -44.306  11.408  22.987  0.00  0.00     0.031 A 
ATOM     20  C   UNL d   1     -44.126  10.685  23.351  0.00  0.00     0.140 A 
ATOM     21  C   UNL d   1     -44.735  10.237  23.698  0.00  0.00     0.031 A 
ATOM     22  F   UNL d   1     -43.353  10.418  23.365  0.00  0.00    -0.204 F 
ATOM     23  C   UNL d   1     -45.516  10.525  23.674  0.00  0.00     0.020 A 
ENDBRANCH   2  17
TORSDOF 4
ENDMDL
MODEL 3
REMARK VINA RESULT:      -5.7      8.605      9.780
REMARK  4 active torsions:
REMARK  status: ('A' for Active; 'I' for Inactive)
REMARK    1  A    between atoms: N_2  and  C_1 
REMARK    2  A    between atoms: N_4  and  C_1 
REMARK       I    between atoms: C_3  and  N_2 
REMARK    3  A    between atoms: C_6  and  C_3 
REMARK    4  A    between atoms: C_9  and  N_5 
ROOT
ATOM      1  N   UNL d   1     -39.607  15.146  19.329  0.00  0.00    -0.278 N 
ATOM      2  N   UNL d   1     -39.051  14.573  17.892  0.00  0.00    -0.301 N 
ATOM      3  C   UNL d   1     -39.022  15.561  18.914  0.00  0.00     0.101 A 
ATOM      4  C   UNL d   1     -39.919  14.440  19.028  0.00  0.00     0.101 A 
ATOM      5  C   UNL d   1     -38.748  15.267  18.193  0.00  0.00     0.100 A 
ATOM      6  C   UNL d   1     -39.644  14.149  18.309  0.00  0.00     0.100 A 
ENDROOT
BRANCH   1   7
ATOM      7  C   UNL d   1     -39.876  15.446  20.049  0.00  0.00     0.209 C 
ATOM      8  S   UNL d   1     -40.553  15.900  20.064  0.00  0.00    -0.038 SA
BRANCH   7   9
ATOM      9  N   UNL d   1     -39.452  15.277  20.727  0.00  0.00    -0.179 NA
ATOM     10  C   UNL d   1     -39.738  15.508  21.451  0.00  0.00     0.287 C 
ATOM     11  O   UNL d   1     -40.449  15.906  21.460  0.00  0.00    -0.265 OA
BRANCH  10  12
ATOM     12  C   UNL d   1     -39.336  15.353  22.135  0.00  0.00     0.087 A 
ATOM     13  S   UNL d   1     -39.092  15.922  22.668  0.00  0.00    -0.082 SA
ATOM     14  C   UNL d   1     -38.692  15.543  23.311  0.00  0.00     0.036 A 
ATOM     15  C   UNL d   1     -38.707  14.728  23.141  0.00  0.00     0.008 A 
ATOM     16  C   UNL d   1     -39.089  14.593  22.441  0.00  0.00     0.012 A 
ENDBRANCH  10  12
ENDBRANCH   7   9
ENDBRANCH   1   7
BRANCH   2  17
ATOM     17  C   UNL d   1     -38.776  14.282  17.172  0.00  0.00     0.064 A 
ATOM     18  C   UNL d   1     -38.330  13.579  17.151  0.00  0.00     0.020 A 
ATOM     19  C   UNL d   1     -38.061  13.299  16.427  0.00  0.00     0.031 A 
ATOM     20  C   UNL d   1     -38.225  13.701  15.721  0.00  0.00     0.140 A 
ATOM     21  C   UNL d   1     -38.670  14.403  15.742  0.00  0.00     0.031 A 
ATOM     22  F   UNL d   1     -37.947  13.405  15.011  0.00  0.00    -0.204 F 
ATOM     23  C   UNL d   1     -38.944  14.690  16.475  0.00  0.00     0.020 A 
ENDBRANCH   2  17
TORSDOF 4
ENDMDL
MODEL 4
REMARK VINA RESULT:      -5.4      2.807      5.388
REMARK  4 active torsions:
REMARK  status: ('A' for Active; 'I' for Inactive)
REMARK    1  A    between atoms: N_2  and  C_1 
REMARK    2  A    between atoms: N_4  and  C_1 
REMARK       I    between atoms: C_3  and  N_2 
REMARK    3  A    between atoms: C_6  and  C_3 
REMARK    4  A    between atoms: C_9  and  N_5 
ROOT
ATOM      1  N   UNL d   1     -46.958  12.879  23.011  0.00  0.00    -0.278 N 
ATOM      2  N   UNL d   1     -48.320  13.799  22.987  0.00  0.00    -0.301 N 
ATOM      3  C   UNL d   1     -46.927  13.675  23.241  0.00  0.00     0.101 A 
ATOM      4  C   UNL d   1     -47.672  12.537  22.766  0.00  0.00     0.101 A 
ATOM      5  C   UNL d   1     -47.615  14.130  23.226  0.00  0.00     0.100 A 
ATOM      6  C   UNL d   1     -48.357  12.993  22.752  0.00  0.00     0.100 A 
ENDROOT
BRANCH   1   7
ATOM      7  C   UNL d   1     -46.266  12.430  23.028  0.00  0.00     0.209 C 
ATOM      8  S   UNL d   1     -46.223  11.781  23.519  0.00  0.00    -0.038 SA
BRANCH   7   9
ATOM      9  N   UNL d   1     -45.642  12.653  22.549  0.00  0.00    -0.179 NA
ATOM     10  C   UNL d   1     -44.942  12.244  22.581  0.00  0.00     0.287 C 
ATOM     11  O   UNL d   1     -44.899  11.619  23.103  0.00  0.00    -0.265 OA
BRANCH  10  12
ATOM     12  C   UNL d   1     -44.311  12.446  22.117  0.00  0.00     0.087 A 
ATOM     13  S   UNL d   1     -43.554  12.151  22.211  0.00  0.00    -0.082 SA
ATOM     14  C   UNL d   1     -43.051  12.493  21.622  0.00  0.00     0.036 A 
ATOM     15  C   UNL d   1     -43.536  13.002  21.175  0.00  0.00     0.008 A 
ATOM     16  C   UNL d   1     -44.294  12.988  21.456  0.00  0.00     0.012 A 
ENDBRANCH  10  12
ENDBRANCH   7   9
ENDBRANCH   1   7
BRANCH   2  17
ATOM     17  C   UNL d   1     -49.006  14.256  22.973  0.00  0.00     0.064 A 
ATOM     18  C   UNL d   1     -49.012  14.982  22.568  0.00  0.00     0.020 A 
ATOM     19  C   UNL d   1     -49.702  15.430  22.561  0.00  0.00     0.031 A 
ATOM     20  C   UNL d   1     -50.388  15.170  22.949  0.00  0.00     0.140 A 
ATOM     21  C   UNL d   1     -50.381  14.444  23.354  0.00  0.00     0.031 A 
ATOM     22  F   UNL d   1     -51.064  15.630  22.931  0.00  0.00    -0.204 F 
ATOM     23  C   UNL d   1     -49.683  13.989  23.362  0.00  0.00     0.020 A 
ENDBRANCH   2  17
TORSDOF 4
ENDMDL
MODEL 5
REMARK VINA RESULT:      -4.9      8.509      9.128
REMARK  4 active torsions:
REMARK  status: ('A' for Active; 'I' for Inactive)
REMARK    1  A    between atoms: N_2  and  C_1 
REMARK    2  A    between atoms: N_4  and  C_1 
REMARK       I    between atoms: C_3  and  N_2 
REMARK    3  A    between atoms: C_6  and  C_3 
REMARK    4  A    between atoms: C_9  and  N_5 
ROOT
ATOM      1  N   UNL d   1     -38.974  15.204  19.069  0.00  0.00    -0.278 N 
ATOM      2  N   UNL d   1     -38.808  14.461  20.527  0.00  0.00    -0.301 N 
ATOM      3  C   UNL d   1     -38.835  14.387  19.108  0.00  0.00     0.101 A 
ATOM      4  C   UNL d   1     -39.031  15.655  19.761  0.00  0.00     0.101 A 
ATOM      5  C   UNL d   1     -38.753  14.022  19.843  0.00  0.00     0.100 A 
ATOM      6  C   UNL d   1     -38.949  15.288  20.494  0.00  0.00     0.100 A 
ENDROOT
BRANCH   1   7
ATOM      7  C   UNL d   1     -39.055  15.562  18.331  0.00  0.00     0.209 C 
ATOM      8  S   UNL d   1     -38.389  15.809  17.932  0.00  0.00    -0.038 SA
BRANCH   7   9
ATOM      9  N   UNL d   1     -39.806  15.657  18.022  0.00  0.00    -0.179 NA
ATOM     10  C   UNL d   1     -39.912  15.679  17.217  0.00  0.00     0.287 C 
ATOM     11  O   UNL d   1     -39.248  15.602  16.752  0.00  0.00    -0.265 OA
BRANCH  10  12
ATOM     12  C   UNL d   1     -40.645  15.772  16.888  0.00  0.00     0.087 A 
ATOM     13  S   UNL d   1     -40.788  15.829  16.085  0.00  0.00    -0.082 SA
ATOM     14  C   UNL d   1     -41.620  15.922  15.961  0.00  0.00     0.036 A 
ATOM     15  C   UNL d   1     -41.967  15.918  16.718  0.00  0.00     0.008 A 
ATOM     16  C   UNL d   1     -41.400  15.829  17.287  0.00  0.00     0.012 A 
ENDBRANCH  10  12
ENDBRANCH   7   9
ENDBRANCH   1   7
BRANCH   2  17
ATOM     17  C   UNL d   1     -38.726  14.094  21.260  0.00  0.00     0.064 A 
ATOM     18  C   UNL d   1     -38.037  13.659  21.431  0.00  0.00     0.020 A 
ATOM     19  C   UNL d   1     -37.966  13.297  22.166  0.00  0.00     0.031 A 
ATOM     20  C   UNL d   1     -38.566  13.357  22.736  0.00  0.00     0.140 A 
ATOM     21  C   UNL d   1     -39.254  13.791  22.564  0.00  0.00     0.031 A 
ATOM     22  F   UNL d   1     -38.476  12.989  23.461  0.00  0.00    -0.204 F 
ATOM     23  C   UNL d   1     -39.328  14.159  21.820  0.00  0.00     0.020 A 
ENDBRANCH   2  17
TORSDOF 4
ENDMDL
MODEL 6
REMARK VINA RESULT:      -4.7      8.803      9.868
REMARK  4 active torsions:
REMARK  status: ('A' for Active; 'I' for Inactive)
REMARK    1  A    between atoms: N_2  and  C_1 
REMARK    2  A    between atoms: N_4  and  C_1 
REMARK       I    between atoms: C_3  and  N_2 
REMARK    3  A    between atoms: C_6  and  C_3 
REMARK    4  A    between atoms: C_9  and  N_5 
ROOT
ATOM      1  N   UNL d   1     -39.002  14.557  19.617  0.00  0.00    -0.278 N 
ATOM      2  N   UNL d   1     -39.967  15.008  18.364  0.00  0.00    -0.301 N 
ATOM      3  C   UNL d   1     -39.805  14.350  19.615  0.00  0.00     0.101 A 
ATOM      4  C   UNL d   1     -38.676  14.991  18.992  0.00  0.00     0.101 A 
ATOM      5  C   UNL d   1     -40.283  14.580  18.982  0.00  0.00     0.100 A 
ATOM      6  C   UNL d   1     -39.154  15.219  18.362  0.00  0.00     0.100 A 
ENDROOT
BRANCH   1   7
ATOM      7  C   UNL d   1     -38.531  14.323  20.253  0.00  0.00     0.209 C 
ATOM      8  S   UNL d   1     -38.044  13.675  20.172  0.00  0.00    -0.038 SA
BRANCH   7   9
ATOM      9  N   UNL d   1     -38.569  14.754  20.947  0.00  0.00    -0.179 NA
ATOM     10  C   UNL d   1     -38.370  14.402  21.651  0.00  0.00     0.287 C 
ATOM     11  O   UNL d   1     -38.138  13.621  21.625  0.00  0.00    -0.265 OA
BRANCH  10  12
ATOM     12  C   UNL d   1     -38.400  14.806  22.351  0.00  0.00     0.087 A 
ATOM     13  S   UNL d   1     -38.528  14.460  23.080  0.00  0.00    -0.082 SA
ATOM     14  C   UNL d   1     -38.520  15.063  23.675  0.00  0.00     0.036 A 
ATOM     15  C   UNL d   1     -38.383  15.779  23.273  0.00  0.00     0.008 A 
ATOM     16  C   UNL d   1     -38.308  15.647  22.479  0.00  0.00     0.012 A 
ENDBRANCH  10  12
ENDBRANCH   7   9
ENDBRANCH   1   7
BRANCH   2  17
ATOM     17  C   UNL d   1     -40.446  15.236  17.734  0.00  0.00     0.064 A 
ATOM     18  C   UNL d   1     -41.197  15.562  17.881  0.00  0.00     0.020 A 
ATOM     19  C   UNL d   1     -41.666  15.786  17.244  0.00  0.00     0.031 A 
ATOM     20  C   UNL d   1     -41.405  15.693  16.463  0.00  0.00     0.140 A 
ATOM     21  C   UNL d   1     -40.655  15.366  16.316  0.00  0.00     0.031 A 
ATOM     22  F   UNL d   1     -41.888  15.922  15.843  0.00  0.00    -0.204 F 
ATOM     23  C   UNL d   1     -40.177  15.139  16.960  0.00  0.00     0.020 A 
ENDBRANCH   2  17
TORSDOF 4
ENDMDL
MODEL 7
REMARK VINA RESULT:      -4.4      9.005     10.355
REMARK  4 active torsions:
REMARK  status: ('A' for Active; 'I' for Inactive)
REMARK    1  A    between atoms: N_2  and  C_1 
REMARK    2  A    between atoms: N_4  and  C_1 
REMARK       I    between atoms: C_3  and  N_2 
REMARK    3  A    between atoms: C_6  and  C_3 
REMARK    4  A    between atoms: C_9  and  N_5 
ROOT
ATOM      1  N   UNL d   1     -38.584  15.002  18.121  0.00  0.00    -0.278 N 
ATOM      2  N   UNL d   1     -38.374  14.489  16.573  0.00  0.00    -0.301 N 
ATOM      3  C   UNL d   1     -39.007  15.358  17.503  0.00  0.00     0.101 A 
ATOM      4  C   UNL d   1     -38.052  14.386  17.968  0.00  0.00     0.101 A 
ATOM      5  C   UNL d   1     -38.897  15.095  16.729  0.00  0.00     0.100 A 
ATOM      6  C   UNL d   1     -37.943  14.125  17.195  0.00  0.00     0.100 A 
ENDROOT
BRANCH   1   7
ATOM      7  C   UNL d   1     -38.700  15.270  18.892  0.00  0.00     0.209 C 
ATOM      8  S   UNL d   1     -38.073  15.592  19.301  0.00  0.00    -0.038 SA
BRANCH   7   9
ATOM      9  N   UNL d   1     -39.445  15.204  19.222  0.00  0.00    -0.179 NA
ATOM     10  C   UNL d   1     -39.550  15.348  20.014  0.00  0.00     0.287 C 
ATOM     11  O   UNL d   1     -38.891  15.555  20.446  0.00  0.00    -0.265 OA
BRANCH  10  12
ATOM     12  C   UNL d   1     -40.277  15.289  20.363  0.00  0.00     0.087 A 
ATOM     13  S   UNL d   1     -40.665  14.584  20.509  0.00  0.00    -0.082 SA
ATOM     14  C   UNL d   1     -41.407  14.751  20.880  0.00  0.00     0.036 A 
ATOM     15  C   UNL d   1     -41.448  15.580  20.949  0.00  0.00     0.008 A 
ATOM     16  C   UNL d   1     -40.780  15.920  20.646  0.00  0.00     0.012 A 
ENDBRANCH  10  12
ENDBRANCH   7   9
ENDBRANCH   1   7
BRANCH   2  17
ATOM     17  C   UNL d   1     -38.266  14.228  15.799  0.00  0.00     0.064 A 
ATOM     18  C   UNL d   1     -38.116  13.423  15.649  0.00  0.00     0.020 A 
ATOM     19  C   UNL d   1     -38.010  13.175  14.872  0.00  0.00     0.031 A 
ATOM     20  C   UNL d   1     -38.049  13.710  14.240  0.00  0.00     0.140 A 
ATOM     21  C   UNL d   1     -38.198  14.514  14.390  0.00  0.00     0.031 A 
ATOM     22  F   UNL d   1     -37.940  13.443  13.474  0.00  0.00    -0.204 F 
ATOM     23  C   UNL d   1     -38.306  14.768  15.176  0.00  0.00     0.020 A 
ENDBRANCH   2  17
TORSDOF 4
ENDMDL
MODEL 8
REMARK VINA RESULT:      -3.6      8.784      9.969
REMARK  4 active torsions:
REMARK  status: ('A' for Active; 'I' for Inactive)
REMARK    1  A    between atoms: N_2  and  C_1 
REMARK    2  A    between atoms: N_4  and  C_1 
REMARK       I    between atoms: C_3  and  N_2 
REMARK    3  A    between atoms: C_6  and  C_3 
REMARK    4  A    between atoms: C_9  and  N_5 
ROOT
ATOM      1  N   UNL d   1     -39.549  15.367  18.790  0.00  0.00    -0.278 N 
ATOM      2  N   UNL d   1     -39.365  15.309  20.422  0.00  0.00    -0.301 N 
ATOM      3  C   UNL d   1     -39.945  14.789  19.234  0.00  0.00     0.101 A 
ATOM      4  C   UNL d   1     -39.057  15.920  19.160  0.00  0.00     0.101 A 
ATOM      5  C   UNL d   1     -39.848  14.767  20.052  0.00  0.00     0.100 A 
ATOM      6  C   UNL d   1     -38.961  15.896  19.977  0.00  0.00     0.100 A 
ENDROOT
BRANCH   1   7
ATOM      7  C   UNL d   1     -39.652  15.382  17.971  0.00  0.00     0.209 C 
ATOM      8  S   UNL d   1     -40.183  15.908  17.646  0.00  0.00    -0.038 SA
BRANCH   7   9
ATOM      9  N   UNL d   1     -39.214  14.867  17.512  0.00  0.00    -0.179 NA
ATOM     10  C   UNL d   1     -39.071  15.043  16.732  0.00  0.00     0.287 C 
ATOM     11  O   UNL d   1     -39.379  15.741  16.445  0.00  0.00    -0.265 OA
BRANCH  10  12
ATOM     12  C   UNL d   1     -38.641  14.549  16.257  0.00  0.00     0.087 A 
ATOM     13  S   UNL d   1     -38.430  14.717  15.486  0.00  0.00    -0.082 SA
ATOM     14  C   UNL d   1     -37.985  14.066  15.176  0.00  0.00     0.036 A 
ATOM     15  C   UNL d   1     -37.940  13.506  15.790  0.00  0.00     0.008 A 
ATOM     16  C   UNL d   1     -38.327  13.776  16.447  0.00  0.00     0.012 A 
ENDBRANCH  10  12
ENDBRANCH   7   9
ENDBRANCH   1   7
BRANCH   2  17
ATOM     17  C   UNL d   1     -39.269  15.285  21.241  0.00  0.00     0.064 A 
ATOM     18  C   UNL d   1     -39.528  15.922  21.708  0.00  0.00     0.020 A 
ATOM     19  C   UNL d   1     -39.428  15.886  22.523  0.00  0.00     0.031 A 
ATOM     20  C   UNL d   1     -39.074  15.229  22.885  0.00  0.00     0.140 A 
ATOM     21  C   UNL d   1     -38.814  14.593  22.417  0.00  0.00     0.031 A 
ATOM     22  F   UNL d   1     -38.983  15.213  23.698  0.00  0.00    -0.204 F 
ATOM     23  C   UNL d   1     -38.915  14.627  21.591  0.00  0.00     0.020 A 
ENDBRANCH   2  17
TORSDOF 4
ENDMDL
