MODEL 1
REMARK VINA RESULT:       0.1      0.000      0.000
REMARK  2 active torsions:
REMARK  status: ('A' for Active; 'I' for Inactive)
REMARK    1  A    between atoms: C_2  and  C_1 
REMARK    2  A    between atoms: C_14  and  N_5 
ROOT
ATOM      1  C   UNL d   1      32.743  19.952 -22.610  0.00  0.00     0.117 A 
ATOM      2  N   UNL d   1      32.599  19.134 -22.496  0.00  0.00    -0.164 NA
ATOM      3  C   UNL d   1      32.895  20.076 -23.403  0.00  0.00     0.107 A 
ATOM      4  N   UNL d   1      32.665  18.771 -23.217  0.00  0.00    -0.228 N 
ATOM      5  C   UNL d   1      32.849  19.355 -23.785  0.00  0.00     0.112 A 
ATOM      6  C   UNL d   1      33.069  20.802 -23.774  0.00  0.00     0.104 C 
ATOM      7  N   UNL d   1      33.241  21.525 -24.142  0.00  0.00    -0.191 NA
ENDROOT
BRANCH   1   8
ATOM      8  C   UNL d   1      32.723  20.506 -21.985  0.00  0.00     0.084 A 
ATOM      9  C   UNL d   1      32.977  20.268 -21.215  0.00  0.00     0.302 A 
ATOM     10  O   UNL d   1      32.963  20.792 -20.600  0.00  0.00    -0.273 OA
ATOM     11  O   UNL d   1      33.241  19.500 -21.084  0.00  0.00    -0.259 OA
ATOM     12  C   UNL d   1      32.700  21.574 -20.711  0.00  0.00     0.103 A 
ATOM     13  C   UNL d   1      32.452  21.804 -21.467  0.00  0.00     0.023 A 
ATOM     14  C   UNL d   1      32.690  22.093 -20.087  0.00  0.00     0.025 A 
ATOM     15  C   UNL d   1      32.464  21.273 -22.098  0.00  0.00     0.009 A 
ATOM     16  C   UNL d   1      32.191  22.581 -21.577  0.00  0.00     0.002 A 
ATOM     17  C   UNL d   1      32.183  23.098 -20.947  0.00  0.00     0.000 A 
ATOM     18  C   UNL d   1      32.429  22.868 -20.199  0.00  0.00     0.002 A 
ENDBRANCH   1   8
BRANCH   4  19
ATOM     19  C   UNL d   1      32.561  17.960 -23.341  0.00  0.00     0.083 A 
ATOM     20  C   UNL d   1      31.876  17.671 -23.701  0.00  0.00     0.019 A 
ATOM     21  C   UNL d   1      31.784  16.867 -23.819  0.00  0.00     0.002 A 
ATOM     22  C   UNL d   1      32.369  16.350 -23.579  0.00  0.00     0.000 A 
ATOM     23  C   UNL d   1      33.076  16.625 -23.209  0.00  0.00     0.002 A 
ATOM     24  C   UNL d   1      33.158  17.446 -23.095  0.00  0.00     0.019 A 
ENDBRANCH   4  19
TORSDOF 2
ENDMDL
MODEL 2
REMARK VINA RESULT:       0.3      1.075      4.512
REMARK  2 active torsions:
REMARK  status: ('A' for Active; 'I' for Inactive)
REMARK    1  A    between atoms: C_2  and  C_1 
REMARK    2  A    between atoms: C_14  and  N_5 
ROOT
ATOM      1  C   UNL d   1      32.769  19.306 -22.987  0.00  0.00     0.117 A 
ATOM      2  N   UNL d   1      32.704  19.554 -22.189  0.00  0.00    -0.164 NA
ATOM      3  C   UNL d   1      32.961  19.956 -23.442  0.00  0.00     0.107 A 
ATOM      4  N   UNL d   1      32.857  20.350 -22.168  0.00  0.00    -0.228 N 
ATOM      5  C   UNL d   1      33.018  20.603 -22.947  0.00  0.00     0.112 A 
ATOM      6  C   UNL d   1      33.082  19.974 -24.267  0.00  0.00     0.104 C 
ATOM      7  N   UNL d   1      33.203  19.990 -25.088  0.00  0.00    -0.191 NA
ENDROOT
BRANCH   1   8
ATOM      8  C   UNL d   1      32.647  18.514 -23.225  0.00  0.00     0.084 A 
ATOM      9  C   UNL d   1      32.889  17.887 -22.711  0.00  0.00     0.302 A 
ATOM     10  O   UNL d   1      32.778  17.117 -22.927  0.00  0.00    -0.273 OA
ATOM     11  O   UNL d   1      33.240  18.058 -21.987  0.00  0.00    -0.259 OA
ATOM     12  C   UNL d   1      32.425  16.924 -23.656  0.00  0.00     0.103 A 
ATOM     13  C   UNL d   1      32.189  17.539 -24.156  0.00  0.00     0.023 A 
ATOM     14  C   UNL d   1      32.318  16.146 -23.863  0.00  0.00     0.025 A 
ATOM     15  C   UNL d   1      32.300  18.328 -23.941  0.00  0.00     0.009 A 
ATOM     16  C   UNL d   1      31.838  17.347 -24.880  0.00  0.00     0.002 A 
ATOM     17  C   UNL d   1      31.733  16.565 -25.083  0.00  0.00     0.000 A 
ATOM     18  C   UNL d   1      31.968  15.956 -24.585  0.00  0.00     0.002 A 
ENDBRANCH   1   8
BRANCH   4  19
ATOM     19  C   UNL d   1      32.849  20.807 -21.479  0.00  0.00     0.083 A 
ATOM     20  C   UNL d   1      33.230  20.546 -20.794  0.00  0.00     0.019 A 
ATOM     21  C   UNL d   1      33.216  21.005 -20.117  0.00  0.00     0.002 A 
ATOM     22  C   UNL d   1      32.824  21.722 -20.119  0.00  0.00     0.000 A 
ATOM     23  C   UNL d   1      32.429  22.006 -20.809  0.00  0.00     0.002 A 
ATOM     24  C   UNL d   1      32.451  21.529 -21.492  0.00  0.00     0.019 A 
ENDBRANCH   4  19
TORSDOF 2
ENDMDL
MODEL 3
REMARK VINA RESULT:       2.8      1.763      2.871
REMARK  2 active torsions:
REMARK  status: ('A' for Active; 'I' for Inactive)
REMARK    1  A    between atoms: C_2  and  C_1 
REMARK    2  A    between atoms: C_14  and  N_5 
ROOT
ATOM      1  C   UNL d   1      32.811  21.688 -20.732  0.00  0.00     0.117 A 
ATOM      2  N   UNL d   1      32.776  20.851 -20.772  0.00  0.00    -0.164 NA
ATOM      3  C   UNL d   1      33.030  21.970 -21.465  0.00  0.00     0.107 A 
ATOM      4  N   UNL d   1      32.974  20.635 -21.528  0.00  0.00    -0.228 N 
ATOM      5  C   UNL d   1      33.133  21.330 -21.963  0.00  0.00     0.112 A 
ATOM      6  C   UNL d   1      33.136  22.767 -21.687  0.00  0.00     0.104 C 
ATOM      7  N   UNL d   1      33.240  23.561 -21.905  0.00  0.00    -0.191 NA
ENDROOT
BRANCH   1   8
ATOM      8  C   UNL d   1      32.641  22.113 -20.033  0.00  0.00     0.084 A 
ATOM      9  C   UNL d   1      32.049  22.717 -20.051  0.00  0.00     0.302 A 
ATOM     10  O   UNL d   1      31.873  23.137 -19.384  0.00  0.00    -0.273 OA
ATOM     11  O   UNL d   1      31.647  22.882 -20.750  0.00  0.00    -0.259 OA
ATOM     12  C   UNL d   1      32.269  22.986 -18.667  0.00  0.00     0.103 A 
ATOM     13  C   UNL d   1      32.847  22.394 -18.652  0.00  0.00     0.023 A 
ATOM     14  C   UNL d   1      32.084  23.413 -18.002  0.00  0.00     0.025 A 
ATOM     15  C   UNL d   1      33.031  21.962 -19.331  0.00  0.00     0.009 A 
ATOM     16  C   UNL d   1      33.240  22.244 -17.940  0.00  0.00     0.002 A 
ATOM     17  C   UNL d   1      33.051  22.677 -17.276  0.00  0.00     0.000 A 
ATOM     18  C   UNL d   1      32.477  23.262 -17.293  0.00  0.00     0.002 A 
ENDBRANCH   1   8
BRANCH   4  19
ATOM     19  C   UNL d   1      33.004  19.853 -21.795  0.00  0.00     0.083 A 
ATOM     20  C   UNL d   1      33.213  19.239 -21.283  0.00  0.00     0.019 A 
ATOM     21  C   UNL d   1      33.241  18.469 -21.556  0.00  0.00     0.002 A 
ATOM     22  C   UNL d   1      33.062  18.307 -22.336  0.00  0.00     0.000 A 
ATOM     23  C   UNL d   1      32.846  18.920 -22.876  0.00  0.00     0.002 A 
ATOM     24  C   UNL d   1      32.822  19.700 -22.585  0.00  0.00     0.019 A 
ENDBRANCH   4  19
TORSDOF 2
ENDMDL
