MODEL 1
REMARK VINA RESULT:      -3.2      0.000      0.000
REMARK  4 active torsions:
REMARK  status: ('A' for Active; 'I' for Inactive)
REMARK    1  A    between atoms: C_5  and  C_3 
REMARK    2  A    between atoms: S_7  and  C_4 
REMARK    3  A    between atoms: C_10  and  S_7 
REMARK    4  A    between atoms: C_11  and  C_10 
ROOT
ATOM      1  N   UNL d   1      32.775  20.827 -20.907  0.00  0.00    -0.146 NA
ATOM      2  N   UNL d   1      32.892  20.127 -21.328  0.00  0.00    -0.141 NA
ATOM      3  C   UNL d   1      32.891  21.559 -21.278  0.00  0.00     0.121 A 
ATOM      4  C   UNL d   1      33.124  20.147 -22.113  0.00  0.00     0.132 A 
ATOM      5  C   UNL d   1      33.125  21.582 -22.071  0.00  0.00     0.025 A 
ATOM      6  C   UNL d   1      33.241  20.883 -22.488  0.00  0.00     0.029 A 
ENDROOT
BRANCH   4   7
ATOM      7  S   UNL d   1      33.241  19.447 -22.534  0.00  0.00    -0.066 SA
BRANCH   7   8
ATOM      8  C   UNL d   1      32.605  19.056 -22.874  0.00  0.00     0.037 C 
BRANCH   8   9
ATOM      9  C   UNL d   1      32.736  18.365 -23.309  0.00  0.00     0.006 A 
ATOM     10  C   UNL d   1      32.977  17.693 -22.931  0.00  0.00     0.001 A 
ATOM     11  C   UNL d   1      33.110  17.001 -23.361  0.00  0.00     0.000 A 
ATOM     12  C   UNL d   1      32.997  16.993 -24.171  0.00  0.00     0.000 A 
ATOM     13  C   UNL d   1      32.748  17.685 -24.560  0.00  0.00     0.000 A 
ATOM     14  C   UNL d   1      32.620  18.365 -24.124  0.00  0.00     0.001 A 
ENDBRANCH   8   9
ENDBRANCH   7   8
ENDBRANCH   4   7
BRANCH   3  15
ATOM     15  C   UNL d   1      32.774  22.259 -20.857  0.00  0.00     0.101 A 
ATOM     16  N   UNL d   1      32.211  22.791 -21.108  0.00  0.00    -0.242 NA
ATOM     17  C   UNL d   1      32.092  23.486 -20.693  0.00  0.00     0.099 A 
ATOM     18  C   UNL d   1      32.547  23.647 -20.015  0.00  0.00     0.021 A 
ATOM     19  C   UNL d   1      33.111  23.109 -19.766  0.00  0.00     0.003 A 
ATOM     20  C   UNL d   1      33.235  22.406 -20.182  0.00  0.00     0.021 A 
ENDBRANCH   3  15
TORSDOF 4
ENDMDL
MODEL 2
REMARK VINA RESULT:      -3.1      0.986      5.055
REMARK  4 active torsions:
REMARK  status: ('A' for Active; 'I' for Inactive)
REMARK    1  A    between atoms: C_5  and  C_3 
REMARK    2  A    between atoms: S_7  and  C_4 
REMARK    3  A    between atoms: C_10  and  S_7 
REMARK    4  A    between atoms: C_11  and  C_10 
ROOT
ATOM      1  N   UNL d   1      32.904  19.168 -22.080  0.00  0.00    -0.146 NA
ATOM      2  N   UNL d   1      32.941  19.849 -21.617  0.00  0.00    -0.141 NA
ATOM      3  C   UNL d   1      33.036  19.213 -22.898  0.00  0.00     0.121 A 
ATOM      4  C   UNL d   1      33.108  20.576 -21.956  0.00  0.00     0.132 A 
ATOM      5  C   UNL d   1      33.204  19.946 -23.243  0.00  0.00     0.025 A 
ATOM      6  C   UNL d   1      33.240  20.623 -22.778  0.00  0.00     0.029 A 
ENDROOT
BRANCH   4   7
ATOM      7  S   UNL d   1      33.145  21.257 -21.493  0.00  0.00    -0.066 SA
BRANCH   7   8
ATOM      8  C   UNL d   1      32.474  21.537 -21.112  0.00  0.00     0.037 C 
BRANCH   8   9
ATOM      9  C   UNL d   1      32.503  22.262 -20.715  0.00  0.00     0.006 A 
ATOM     10  C   UNL d   1      32.919  22.326 -20.026  0.00  0.00     0.001 A 
ATOM     11  C   UNL d   1      32.950  23.048 -19.627  0.00  0.00     0.000 A 
ATOM     12  C   UNL d   1      32.560  23.700 -19.927  0.00  0.00     0.000 A 
ATOM     13  C   UNL d   1      32.131  23.634 -20.638  0.00  0.00     0.000 A 
ATOM     14  C   UNL d   1      32.107  22.914 -21.025  0.00  0.00     0.001 A 
ENDBRANCH   8   9
ENDBRANCH   7   8
ENDBRANCH   4   7
BRANCH   3  15
ATOM     15  C   UNL d   1      32.999  18.532 -23.361  0.00  0.00     0.101 A 
ATOM     16  N   UNL d   1      32.731  18.580 -24.128  0.00  0.00    -0.242 NA
ATOM     17  C   UNL d   1      32.693  17.907 -24.592  0.00  0.00     0.099 A 
ATOM     18  C   UNL d   1      32.928  17.173 -24.276  0.00  0.00     0.021 A 
ATOM     19  C   UNL d   1      33.197  17.130 -23.505  0.00  0.00     0.003 A 
ATOM     20  C   UNL d   1      33.237  17.807 -23.033  0.00  0.00     0.021 A 
ENDBRANCH   3  15
TORSDOF 4
ENDMDL
MODEL 3
REMARK VINA RESULT:      -3.0      1.327      5.255
REMARK  4 active torsions:
REMARK  status: ('A' for Active; 'I' for Inactive)
REMARK    1  A    between atoms: C_5  and  C_3 
REMARK    2  A    between atoms: S_7  and  C_4 
REMARK    3  A    between atoms: C_10  and  S_7 
REMARK    4  A    between atoms: C_11  and  C_10 
ROOT
ATOM      1  N   UNL d   1      32.934  18.154 -22.517  0.00  0.00    -0.146 NA
ATOM      2  N   UNL d   1      33.071  18.851 -22.098  0.00  0.00    -0.141 NA
ATOM      3  C   UNL d   1      32.810  18.180 -23.337  0.00  0.00     0.121 A 
ATOM      4  C   UNL d   1      33.087  19.573 -22.483  0.00  0.00     0.132 A 
ATOM      5  C   UNL d   1      32.826  18.908 -23.729  0.00  0.00     0.025 A 
ATOM      6  C   UNL d   1      32.963  19.601 -23.307  0.00  0.00     0.029 A 
ENDROOT
BRANCH   4   7
ATOM      7  S   UNL d   1      33.225  20.270 -22.064  0.00  0.00    -0.066 SA
BRANCH   7   8
ATOM      8  C   UNL d   1      32.626  20.612 -21.618  0.00  0.00     0.037 C 
BRANCH   8   9
ATOM      9  C   UNL d   1      32.765  21.329 -21.230  0.00  0.00     0.006 A 
ATOM     10  C   UNL d   1      32.576  22.025 -21.594  0.00  0.00     0.001 A 
ATOM     11  C   UNL d   1      32.713  22.743 -21.209  0.00  0.00     0.000 A 
ATOM     12  C   UNL d   1      33.039  22.751 -20.460  0.00  0.00     0.000 A 
ATOM     13  C   UNL d   1      33.233  22.034 -20.085  0.00  0.00     0.000 A 
ATOM     14  C   UNL d   1      33.094  21.329 -20.476  0.00  0.00     0.001 A 
ENDBRANCH   8   9
ENDBRANCH   7   8
ENDBRANCH   4   7
BRANCH   3  15
ATOM     15  C   UNL d   1      32.673  17.483 -23.756  0.00  0.00     0.101 A 
ATOM     16  N   UNL d   1      33.241  16.901 -23.768  0.00  0.00    -0.242 NA
ATOM     17  C   UNL d   1      33.109  16.208 -24.183  0.00  0.00     0.099 A 
ATOM     18  C   UNL d   1      32.392  16.101 -24.592  0.00  0.00     0.021 A 
ATOM     19  C   UNL d   1      31.824  16.689 -24.577  0.00  0.00     0.003 A 
ATOM     20  C   UNL d   1      31.953  17.390 -24.160  0.00  0.00     0.021 A 
ENDBRANCH   3  15
TORSDOF 4
ENDMDL
MODEL 4
REMARK VINA RESULT:      -1.7      3.101      3.803
REMARK  4 active torsions:
REMARK  status: ('A' for Active; 'I' for Inactive)
REMARK    1  A    between atoms: C_5  and  C_3 
REMARK    2  A    between atoms: S_7  and  C_4 
REMARK    3  A    between atoms: C_10  and  S_7 
REMARK    4  A    between atoms: C_11  and  C_10 
ROOT
ATOM      1  N   UNL d   1      33.132  23.702 -19.985  0.00  0.00    -0.146 NA
ATOM      2  N   UNL d   1      33.220  23.700 -20.805  0.00  0.00    -0.141 NA
ATOM      3  C   UNL d   1      32.948  22.999 -19.585  0.00  0.00     0.121 A 
ATOM      4  C   UNL d   1      33.126  23.008 -21.233  0.00  0.00     0.132 A 
ATOM      5  C   UNL d   1      32.853  22.299 -20.015  0.00  0.00     0.025 A 
ATOM      6  C   UNL d   1      32.941  22.301 -20.833  0.00  0.00     0.029 A 
ENDROOT
BRANCH   4   7
ATOM      7  S   UNL d   1      33.214  23.007 -22.053  0.00  0.00    -0.066 SA
BRANCH   7   8
ATOM      8  C   UNL d   1      32.554  22.978 -22.541  0.00  0.00     0.037 C 
BRANCH   8   9
ATOM      9  C   UNL d   1      32.655  22.947 -23.361  0.00  0.00     0.006 A 
ATOM     10  C   UNL d   1      32.960  22.282 -23.703  0.00  0.00     0.001 A 
ATOM     11  C   UNL d   1      33.061  22.248 -24.522  0.00  0.00     0.000 A 
ATOM     12  C   UNL d   1      32.854  22.886 -24.989  0.00  0.00     0.000 A 
ATOM     13  C   UNL d   1      32.539  23.571 -24.636  0.00  0.00     0.000 A 
ATOM     14  C   UNL d   1      32.443  23.594 -23.824  0.00  0.00     0.001 A 
ENDBRANCH   8   9
ENDBRANCH   7   8
ENDBRANCH   4   7
BRANCH   3  15
ATOM     15  C   UNL d   1      32.861  23.001 -18.765  0.00  0.00     0.101 A 
ATOM     16  N   UNL d   1      33.214  22.417 -18.321  0.00  0.00    -0.242 NA
ATOM     17  C   UNL d   1      33.130  22.415 -17.507  0.00  0.00     0.099 A 
ATOM     18  C   UNL d   1      32.683  23.011 -17.135  0.00  0.00     0.021 A 
ATOM     19  C   UNL d   1      32.330  23.595 -17.586  0.00  0.00     0.003 A 
ATOM     20  C   UNL d   1      32.412  23.601 -18.408  0.00  0.00     0.021 A 
ENDBRANCH   3  15
TORSDOF 4
ENDMDL
MODEL 5
REMARK VINA RESULT:      -1.3      0.960      1.589
REMARK  4 active torsions:
REMARK  status: ('A' for Active; 'I' for Inactive)
REMARK    1  A    between atoms: C_5  and  C_3 
REMARK    2  A    between atoms: S_7  and  C_4 
REMARK    3  A    between atoms: C_10  and  S_7 
REMARK    4  A    between atoms: C_11  and  C_10 
ROOT
ATOM      1  N   UNL d   1      32.547  20.521 -22.706  0.00  0.00    -0.146 NA
ATOM      2  N   UNL d   1      32.549  19.827 -23.151  0.00  0.00    -0.141 NA
ATOM      3  C   UNL d   1      32.894  20.533 -21.953  0.00  0.00     0.121 A 
ATOM      4  C   UNL d   1      32.891  19.144 -22.856  0.00  0.00     0.132 A 
ATOM      5  C   UNL d   1      33.241  19.845 -21.653  0.00  0.00     0.025 A 
ATOM      6  C   UNL d   1      33.241  19.154 -22.099  0.00  0.00     0.029 A 
ENDROOT
BRANCH   4   7
ATOM      7  S   UNL d   1      32.893  18.449 -23.301  0.00  0.00    -0.066 SA
BRANCH   7   8
ATOM      8  C   UNL d   1      32.660  17.739 -22.962  0.00  0.00     0.037 C 
BRANCH   8   9
ATOM      9  C   UNL d   1      32.575  17.068 -23.439  0.00  0.00     0.006 A 
ATOM     10  C   UNL d   1      31.840  16.766 -23.579  0.00  0.00     0.001 A 
ATOM     11  C   UNL d   1      31.751  16.096 -24.054  0.00  0.00     0.000 A 
ATOM     12  C   UNL d   1      32.407  15.737 -24.384  0.00  0.00     0.000 A 
ATOM     13  C   UNL d   1      33.165  16.049 -24.239  0.00  0.00     0.000 A 
ATOM     14  C   UNL d   1      33.241  16.712 -23.767  0.00  0.00     0.001 A 
ENDBRANCH   8   9
ENDBRANCH   7   8
ENDBRANCH   4   7
BRANCH   3  15
ATOM     15  C   UNL d   1      32.893  21.228 -21.508  0.00  0.00     0.101 A 
ATOM     16  N   UNL d   1      32.675  21.204 -20.724  0.00  0.00    -0.242 NA
ATOM     17  C   UNL d   1      32.672  21.891 -20.279  0.00  0.00     0.099 A 
ATOM     18  C   UNL d   1      32.892  22.613 -20.630  0.00  0.00     0.021 A 
ATOM     19  C   UNL d   1      33.110  22.632 -21.418  0.00  0.00     0.003 A 
ATOM     20  C   UNL d   1      33.115  21.941 -21.872  0.00  0.00     0.021 A 
ENDBRANCH   3  15
TORSDOF 4
ENDMDL
MODEL 6
REMARK VINA RESULT:      -1.2      3.364      5.916
REMARK  4 active torsions:
REMARK  status: ('A' for Active; 'I' for Inactive)
REMARK    1  A    between atoms: C_5  and  C_3 
REMARK    2  A    between atoms: S_7  and  C_4 
REMARK    3  A    between atoms: C_10  and  S_7 
REMARK    4  A    between atoms: C_11  and  C_10 
ROOT
ATOM      1  N   UNL d   1      30.077  17.476 -24.539  0.00  0.00    -0.146 NA
ATOM      2  N   UNL d   1      30.783  17.902 -24.536  0.00  0.00    -0.141 NA
ATOM      3  C   UNL d   1      30.044  16.724 -24.190  0.00  0.00     0.121 A 
ATOM      4  C   UNL d   1      31.457  17.591 -24.191  0.00  0.00     0.132 A 
ATOM      5  C   UNL d   1      30.723  16.407 -23.840  0.00  0.00     0.025 A 
ATOM      6  C   UNL d   1      31.426  16.835 -23.839  0.00  0.00     0.029 A 
ENDROOT
BRANCH   4   7
ATOM      7  S   UNL d   1      32.163  18.017 -24.188  0.00  0.00    -0.066 SA
BRANCH   7   8
ATOM      8  C   UNL d   1      32.598  18.097 -23.497  0.00  0.00     0.037 C 
BRANCH   8   9
ATOM      9  C   UNL d   1      32.813  18.851 -23.235  0.00  0.00     0.006 A 
ATOM     10  C   UNL d   1      33.006  19.422 -23.773  0.00  0.00     0.001 A 
ATOM     11  C   UNL d   1      33.222  20.177 -23.515  0.00  0.00     0.000 A 
ATOM     12  C   UNL d   1      33.241  20.348 -22.716  0.00  0.00     0.000 A 
ATOM     13  C   UNL d   1      33.042  19.759 -22.163  0.00  0.00     0.000 A 
ATOM     14  C   UNL d   1      32.830  19.015 -22.429  0.00  0.00     0.001 A 
ENDBRANCH   8   9
ENDBRANCH   7   8
ENDBRANCH   4   7
BRANCH   3  15
ATOM     15  C   UNL d   1      29.338  16.298 -24.192  0.00  0.00     0.101 A 
ATOM     16  N   UNL d   1      29.123  15.877 -24.855  0.00  0.00    -0.242 NA
ATOM     17  C   UNL d   1      28.424  15.453 -24.862  0.00  0.00     0.099 A 
ATOM     18  C   UNL d   1      27.933  15.453 -24.190  0.00  0.00     0.021 A 
ATOM     19  C   UNL d   1      28.153  15.877 -23.526  0.00  0.00     0.003 A 
ATOM     20  C   UNL d   1      28.858  16.307 -23.514  0.00  0.00     0.021 A 
ENDBRANCH   3  15
TORSDOF 4
ENDMDL
