MODEL 1
REMARK VINA RESULT:      -2.3      0.000      0.000
REMARK  3 active torsions:
REMARK  status: ('A' for Active; 'I' for Inactive)
REMARK    1  A    between atoms: N_2  and  C_1 
REMARK    2  A    between atoms: C_4  and  C_1 
REMARK       I    between atoms: C_3  and  N_2 
REMARK       I    between atoms: N_5  and  C_3 
REMARK       I    between atoms: C_6  and  N_5 
REMARK    3  A    between atoms: C_11  and  C_6 
ROOT
ATOM      1  N   UNL d   1      31.785  17.224 -24.225  0.00  0.00    -0.159 NA
ATOM      2  C   UNL d   1      31.651  17.941 -24.629  0.00  0.00     0.371 C 
ATOM      3  N   UNL d   1      30.897  18.119 -24.921  0.00  0.00    -0.152 NA
ATOM      4  C   UNL d   1      30.269  17.581 -24.811  0.00  0.00     0.283 C 
ATOM      5  O   UNL d   1      32.265  18.443 -24.724  0.00  0.00    -0.243 OA
ATOM      6  O   UNL d   1      29.529  17.754 -25.097  0.00  0.00    -0.265 OA
ENDROOT
BRANCH   1   7
ATOM      7  C   UNL d   1      32.537  17.044 -23.933  0.00  0.00     0.386 A 
ATOM      8  O   UNL d   1      32.031  17.638 -23.644  0.00  0.00    -0.281 OA
ATOM      9  C   UNL d   1      32.410  18.011 -23.019  0.00  0.00     0.147 A 
ATOM     10  C   UNL d   1      33.136  17.661 -22.918  0.00  0.00     0.147 A 
ATOM     11  O   UNL d   1      33.196  17.058 -23.499  0.00  0.00    -0.281 OA
BRANCH   7  12
ATOM     12  C   UNL d   1      32.839  16.417 -24.384  0.00  0.00     0.470 C 
ATOM     13  F   UNL d   1      32.830  16.901 -25.059  0.00  0.00    -0.164 F 
ATOM     14  F   UNL d   1      32.843  15.943 -23.697  0.00  0.00    -0.164 F 
ATOM     15  F   UNL d   1      33.145  15.777 -24.832  0.00  0.00    -0.164 F 
ENDBRANCH   7  12
ENDBRANCH   1   7
BRANCH   4  16
ATOM     16  C   UNL d   1      30.389  16.874 -24.416  0.00  0.00     0.058 A 
ATOM     17  C   UNL d   1      30.288  16.832 -23.598  0.00  0.00     0.005 A 
ATOM     18  C   UNL d   1      30.406  16.126 -23.192  0.00  0.00     0.000 A 
ATOM     19  C   UNL d   1      30.630  15.453 -23.622  0.00  0.00     0.000 A 
ATOM     20  C   UNL d   1      30.732  15.491 -24.439  0.00  0.00     0.000 A 
ATOM     21  C   UNL d   1      30.613  16.193 -24.829  0.00  0.00     0.005 A 
ENDBRANCH   4  16
TORSDOF 3
ENDMDL
MODEL 2
REMARK VINA RESULT:      -2.0      1.695      2.959
REMARK  3 active torsions:
REMARK  status: ('A' for Active; 'I' for Inactive)
REMARK    1  A    between atoms: N_2  and  C_1 
REMARK    2  A    between atoms: C_4  and  C_1 
REMARK       I    between atoms: C_3  and  N_2 
REMARK       I    between atoms: N_5  and  C_3 
REMARK       I    between atoms: C_6  and  N_5 
REMARK    3  A    between atoms: C_11  and  C_6 
ROOT
ATOM      1  N   UNL d   1      30.878  16.597 -24.262  0.00  0.00    -0.159 NA
ATOM      2  C   UNL d   1      30.970  15.896 -24.706  0.00  0.00     0.371 C 
ATOM      3  N   UNL d   1      31.717  15.676 -24.984  0.00  0.00    -0.152 NA
ATOM      4  C   UNL d   1      32.382  16.154 -24.821  0.00  0.00     0.283 C 
ATOM      5  O   UNL d   1      30.323  15.453 -24.851  0.00  0.00    -0.243 OA
ATOM      6  O   UNL d   1      33.116  15.938 -25.094  0.00  0.00    -0.265 OA
ENDROOT
BRANCH   1   7
ATOM      7  C   UNL d   1      30.133  16.820 -23.983  0.00  0.00     0.386 A 
ATOM      8  O   UNL d   1      30.585  16.178 -23.707  0.00  0.00    -0.281 OA
ATOM      9  C   UNL d   1      30.160  15.807 -23.112  0.00  0.00     0.147 A 
ATOM     10  C   UNL d   1      29.459  16.206 -23.015  0.00  0.00     0.147 A 
ATOM     11  O   UNL d   1      29.461  16.836 -23.569  0.00  0.00    -0.281 OA
BRANCH   7  12
ATOM     12  C   UNL d   1      29.892  17.486 -24.414  0.00  0.00     0.470 C 
ATOM     13  F   UNL d   1      29.825  17.019 -25.097  0.00  0.00    -0.164 F 
ATOM     14  F   UNL d   1      29.963  17.943 -23.719  0.00  0.00    -0.164 F 
ATOM     15  F   UNL d   1      29.648  18.166 -24.841  0.00  0.00    -0.164 F 
ENDBRANCH   7  12
ENDBRANCH   1   7
BRANCH   4  16
ATOM     16  C   UNL d   1      32.304  16.844 -24.387  0.00  0.00     0.058 A 
ATOM     17  C   UNL d   1      32.374  16.828 -23.566  0.00  0.00     0.005 A 
ATOM     18  C   UNL d   1      32.298  17.516 -23.120  0.00  0.00     0.000 A 
ATOM     19  C   UNL d   1      32.147  18.230 -23.515  0.00  0.00     0.000 A 
ATOM     20  C   UNL d   1      32.076  18.249 -24.336  0.00  0.00     0.000 A 
ATOM     21  C   UNL d   1      32.153  17.564 -24.765  0.00  0.00     0.005 A 
ENDBRANCH   4  16
TORSDOF 3
ENDMDL
MODEL 3
REMARK VINA RESULT:      -2.0      2.233      3.525
REMARK  3 active torsions:
REMARK  status: ('A' for Active; 'I' for Inactive)
REMARK    1  A    between atoms: N_2  and  C_1 
REMARK    2  A    between atoms: C_4  and  C_1 
REMARK       I    between atoms: C_3  and  N_2 
REMARK       I    between atoms: N_5  and  C_3 
REMARK       I    between atoms: C_6  and  N_5 
REMARK    3  A    between atoms: C_11  and  C_6 
ROOT
ATOM      1  N   UNL d   1      29.850  16.315 -23.830  0.00  0.00    -0.159 NA
ATOM      2  C   UNL d   1      29.785  15.744 -23.225  0.00  0.00     0.371 C 
ATOM      3  N   UNL d   1      30.464  15.455 -22.852  0.00  0.00    -0.152 NA
ATOM      4  C   UNL d   1      31.217  15.735 -23.079  0.00  0.00     0.283 C 
ATOM      5  O   UNL d   1      29.056  15.489 -23.023  0.00  0.00    -0.243 OA
ATOM      6  O   UNL d   1      31.885  15.453 -22.713  0.00  0.00    -0.265 OA
ENDROOT
BRANCH   1   7
ATOM      7  C   UNL d   1      29.173  16.605 -24.205  0.00  0.00     0.386 A 
ATOM      8  O   UNL d   1      29.510  15.853 -24.321  0.00  0.00    -0.281 OA
ATOM      9  C   UNL d   1      29.053  15.453 -24.872  0.00  0.00     0.147 A 
ATOM     10  C   UNL d   1      28.443  15.940 -25.097  0.00  0.00     0.147 A 
ATOM     11  O   UNL d   1      28.536  16.655 -24.669  0.00  0.00    -0.281 OA
BRANCH   7  12
ATOM     12  C   UNL d   1      29.039  17.373 -23.925  0.00  0.00     0.470 C 
ATOM     13  F   UNL d   1      28.933  17.074 -23.158  0.00  0.00    -0.164 F 
ATOM     14  F   UNL d   1      29.149  17.660 -24.701  0.00  0.00    -0.164 F 
ATOM     15  F   UNL d   1      28.905  18.155 -23.651  0.00  0.00    -0.164 F 
ENDBRANCH   7  12
ENDBRANCH   1   7
BRANCH   4  16
ATOM     16  C   UNL d   1      31.293  16.296 -23.671  0.00  0.00     0.058 A 
ATOM     17  C   UNL d   1      31.274  17.099 -23.487  0.00  0.00     0.005 A 
ATOM     18  C   UNL d   1      31.350  17.671 -24.075  0.00  0.00     0.000 A 
ATOM     19  C   UNL d   1      31.446  17.422 -24.862  0.00  0.00     0.000 A 
ATOM     20  C   UNL d   1      31.465  16.619 -25.048  0.00  0.00     0.000 A 
ATOM     21  C   UNL d   1      31.389  16.065 -24.460  0.00  0.00     0.005 A 
ENDBRANCH   4  16
TORSDOF 3
ENDMDL
MODEL 4
REMARK VINA RESULT:      -1.9      1.523      1.974
REMARK  3 active torsions:
REMARK  status: ('A' for Active; 'I' for Inactive)
REMARK    1  A    between atoms: N_2  and  C_1 
REMARK    2  A    between atoms: C_4  and  C_1 
REMARK       I    between atoms: C_3  and  N_2 
REMARK       I    between atoms: N_5  and  C_3 
REMARK       I    between atoms: C_6  and  N_5 
REMARK    3  A    between atoms: C_11  and  C_6 
ROOT
ATOM      1  N   UNL d   1      30.537  16.876 -24.195  0.00  0.00    -0.159 NA
ATOM      2  C   UNL d   1      30.677  17.666 -24.426  0.00  0.00     0.371 C 
ATOM      3  N   UNL d   1      30.056  18.131 -24.714  0.00  0.00    -0.152 NA
ATOM      4  C   UNL d   1      29.288  17.812 -24.774  0.00  0.00     0.283 C 
ATOM      5  O   UNL d   1      31.419  17.953 -24.361  0.00  0.00    -0.243 OA
ATOM      6  O   UNL d   1      28.678  18.267 -25.056  0.00  0.00    -0.265 OA
ENDROOT
BRANCH   1   7
ATOM      7  C   UNL d   1      31.155  16.410 -23.907  0.00  0.00     0.386 A 
ATOM      8  O   UNL d   1      31.097  16.721 -24.677  0.00  0.00    -0.281 OA
ATOM      9  C   UNL d   1      31.760  16.483 -25.097  0.00  0.00     0.147 A 
ATOM     10  C   UNL d   1      32.224  16.034 -24.604  0.00  0.00     0.147 A 
ATOM     11  O   UNL d   1      31.828  16.000 -23.865  0.00  0.00    -0.281 OA
BRANCH   7  12
ATOM     12  C   UNL d   1      30.985  16.225 -23.117  0.00  0.00     0.470 C 
ATOM     13  F   UNL d   1      30.781  15.453 -23.343  0.00  0.00    -0.164 F 
ATOM     14  F   UNL d   1      31.193  17.005 -22.905  0.00  0.00    -0.164 F 
ATOM     15  F   UNL d   1      30.815  16.049 -22.315  0.00  0.00    -0.164 F 
ENDBRANCH   7  12
ENDBRANCH   1   7
BRANCH   4  16
ATOM     16  C   UNL d   1      29.138  17.038 -24.550  0.00  0.00     0.058 A 
ATOM     17  C   UNL d   1      29.222  16.424 -25.095  0.00  0.00     0.005 A 
ATOM     18  C   UNL d   1      29.075  15.643 -24.880  0.00  0.00     0.000 A 
ATOM     19  C   UNL d   1      28.838  15.484 -24.100  0.00  0.00     0.000 A 
ATOM     20  C   UNL d   1      28.754  16.095 -23.553  0.00  0.00     0.000 A 
ATOM     21  C   UNL d   1      28.902  16.861 -23.777  0.00  0.00     0.005 A 
ENDBRANCH   4  16
TORSDOF 3
ENDMDL
MODEL 5
REMARK VINA RESULT:      -1.2      1.290      2.576
REMARK  3 active torsions:
REMARK  status: ('A' for Active; 'I' for Inactive)
REMARK    1  A    between atoms: N_2  and  C_1 
REMARK    2  A    between atoms: C_4  and  C_1 
REMARK       I    between atoms: C_3  and  N_2 
REMARK       I    between atoms: N_5  and  C_3 
REMARK       I    between atoms: C_6  and  N_5 
REMARK    3  A    between atoms: C_11  and  C_6 
ROOT
ATOM      1  N   UNL d   1      31.421  17.157 -24.019  0.00  0.00    -0.159 NA
ATOM      2  C   UNL d   1      31.249  17.958 -23.858  0.00  0.00     0.371 C 
ATOM      3  N   UNL d   1      31.857  18.519 -23.848  0.00  0.00    -0.152 NA
ATOM      4  C   UNL d   1      32.644  18.286 -24.001  0.00  0.00     0.283 C 
ATOM      5  O   UNL d   1      30.491  18.161 -23.715  0.00  0.00    -0.243 OA
ATOM      6  O   UNL d   1      33.241  18.836 -23.992  0.00  0.00    -0.265 OA
ENDROOT
BRANCH   1   7
ATOM      7  C   UNL d   1      30.816  16.594 -24.029  0.00  0.00     0.386 A 
ATOM      8  O   UNL d   1      30.901  17.227 -24.562  0.00  0.00    -0.281 OA
ATOM      9  C   UNL d   1      30.281  17.193 -25.097  0.00  0.00     0.147 A 
ATOM     10  C   UNL d   1      29.816  16.555 -24.905  0.00  0.00     0.147 A 
ATOM     11  O   UNL d   1      30.168  16.194 -24.235  0.00  0.00    -0.281 OA
BRANCH   7  12
ATOM     12  C   UNL d   1      30.949  16.070 -23.401  0.00  0.00     0.470 C 
ATOM     13  F   UNL d   1      30.854  16.694 -22.861  0.00  0.00    -0.164 F 
ATOM     14  F   UNL d   1      31.043  15.453 -23.955  0.00  0.00    -0.164 F 
ATOM     15  F   UNL d   1      31.085  15.531 -22.772  0.00  0.00    -0.164 F 
ENDBRANCH   7  12
ENDBRANCH   1   7
BRANCH   4  16
ATOM     16  C   UNL d   1      32.824  17.503 -24.160  0.00  0.00     0.058 A 
ATOM     17  C   UNL d   1      33.056  16.998 -23.551  0.00  0.00     0.005 A 
ATOM     18  C   UNL d   1      33.239  16.209 -23.701  0.00  0.00     0.000 A 
ATOM     19  C   UNL d   1      33.186  15.930 -24.481  0.00  0.00     0.000 A 
ATOM     20  C   UNL d   1      32.954  16.432 -25.091  0.00  0.00     0.000 A 
ATOM     21  C   UNL d   1      32.776  17.208 -24.932  0.00  0.00     0.005 A 
ENDBRANCH   4  16
TORSDOF 3
ENDMDL
MODEL 6
REMARK VINA RESULT:      -1.2      1.466      2.439
REMARK  3 active torsions:
REMARK  status: ('A' for Active; 'I' for Inactive)
REMARK    1  A    between atoms: N_2  and  C_1 
REMARK    2  A    between atoms: C_4  and  C_1 
REMARK       I    between atoms: C_3  and  N_2 
REMARK       I    between atoms: N_5  and  C_3 
REMARK       I    between atoms: C_6  and  N_5 
REMARK    3  A    between atoms: C_11  and  C_6 
ROOT
ATOM      1  N   UNL d   1      31.664  17.256 -23.920  0.00  0.00    -0.159 NA
ATOM      2  C   UNL d   1      32.181  17.444 -23.293  0.00  0.00     0.371 C 
ATOM      3  N   UNL d   1      32.575  16.842 -22.883  0.00  0.00    -0.152 NA
ATOM      4  C   UNL d   1      32.454  16.044 -23.097  0.00  0.00     0.283 C 
ATOM      5  O   UNL d   1      32.283  18.213 -23.104  0.00  0.00    -0.243 OA
ATOM      6  O   UNL d   1      32.840  15.453 -22.696  0.00  0.00    -0.265 OA
ENDROOT
BRANCH   1   7
ATOM      7  C   UNL d   1      31.270  17.855 -24.330  0.00  0.00     0.386 A 
ATOM      8  O   UNL d   1      32.091  17.726 -24.327  0.00  0.00    -0.281 OA
ATOM      9  C   UNL d   1      32.440  18.296 -24.802  0.00  0.00     0.147 A 
ATOM     10  C   UNL d   1      31.852  18.773 -25.096  0.00  0.00     0.147 A 
ATOM     11  O   UNL d   1      31.128  18.481 -24.790  0.00  0.00    -0.281 OA
BRANCH   7  12
ATOM     12  C   UNL d   1      30.459  17.776 -24.175  0.00  0.00     0.470 C 
ATOM     13  F   UNL d   1      30.594  17.964 -23.378  0.00  0.00    -0.164 F 
ATOM     14  F   UNL d   1      30.339  17.588 -24.979  0.00  0.00    -0.164 F 
ATOM     15  F   UNL d   1      29.637  17.693 -24.029  0.00  0.00    -0.164 F 
ENDBRANCH   7  12
ENDBRANCH   1   7
BRANCH   4  16
ATOM     16  C   UNL d   1      31.949  15.848 -23.711  0.00  0.00     0.058 A 
ATOM     17  C   UNL d   1      31.152  15.700 -23.561  0.00  0.00     0.005 A 
ATOM     18  C   UNL d   1      30.635  15.501 -24.171  0.00  0.00     0.000 A 
ATOM     19  C   UNL d   1      30.933  15.453 -24.944  0.00  0.00     0.000 A 
ATOM     20  C   UNL d   1      31.730  15.600 -25.097  0.00  0.00     0.000 A 
ATOM     21  C   UNL d   1      32.229  15.795 -24.487  0.00  0.00     0.005 A 
ENDBRANCH   4  16
TORSDOF 3
ENDMDL
