MODEL 1
REMARK VINA RESULT:      -9.9      0.000      0.000
REMARK  2 active torsions:
REMARK  status: ('A' for Active; 'I' for Inactive)
REMARK    1  A    between atoms: C_10  and  C_1 
REMARK    2  A    between atoms: N_6  and  C_10 
ROOT
ATOM      1  C   UNL d   1     -49.033  12.776  23.202  0.00  0.00     0.025 A 
ATOM      2  C   UNL d   1     -48.286  12.445  23.323  0.00  0.00     0.025 A 
ATOM      3  C   UNL d   1     -47.610  12.882  23.201  0.00  0.00     0.013 A 
ATOM      4  C   UNL d   1     -48.234  11.663  23.569  0.00  0.00     0.103 A 
ATOM      5  O   UNL d   1     -48.912  11.207  23.697  0.00  0.00    -0.273 OA
ATOM      6  C   UNL d   1     -46.876  12.549  23.321  0.00  0.00     0.058 A 
ATOM      7  C   UNL d   1     -49.654  11.546  23.574  0.00  0.00     0.300 A 
ATOM      8  C   UNL d   1     -49.719  12.327  23.328  0.00  0.00     0.070 A 
ATOM      9  C   UNL d   1     -46.816  11.764  23.569  0.00  0.00     0.013 A 
ATOM     10  C   UNL d   1     -47.499  11.323  23.692  0.00  0.00     0.026 A 
ATOM     11  O   UNL d   1     -50.333  11.101  23.698  0.00  0.00    -0.259 OA
ATOM     12 CL   UNL d   1     -46.190  12.995  23.197  0.00  0.00    -0.082 Cl
ATOM     13  C   UNL d   1     -47.671  13.667  22.953  0.00  0.00     0.001 C 
ATOM     14  C   UNL d   1     -46.069  11.425  23.691  0.00  0.00     0.001 C 
ENDROOT
BRANCH   1  15
ATOM     15  C   UNL d   1     -49.093  13.561  22.955  0.00  0.00     0.080 C 
BRANCH  15  16
ATOM     16  N   UNL d   1     -49.741  13.802  22.496  0.00  0.00    -0.304 N 
ATOM     17  C   UNL d   1     -50.197  14.448  22.735  0.00  0.00     0.064 A 
ATOM     18  C   UNL d   1     -50.014  14.858  23.427  0.00  0.00     0.019 C 
ATOM     19  C   UNL d   1     -50.836  14.680  22.277  0.00  0.00     0.018 A 
ATOM     20  C   UNL d   1     -51.025  14.276  21.587  0.00  0.00     0.003 A 
ATOM     21  C   UNL d   1     -50.569  13.631  21.349  0.00  0.00     0.019 A 
ATOM     22  C   UNL d   1     -49.925  13.389  21.800  0.00  0.00     0.080 A 
ENDBRANCH  15  16
ENDBRANCH   1  15
TORSDOF 2
ENDMDL
MODEL 2
REMARK VINA RESULT:      -9.4      1.494      2.229
REMARK  2 active torsions:
REMARK  status: ('A' for Active; 'I' for Inactive)
REMARK    1  A    between atoms: C_10  and  C_1 
REMARK    2  A    between atoms: N_6  and  C_10 
ROOT
ATOM      1  C   UNL d   1     -48.458  13.701  22.748  0.00  0.00     0.025 A 
ATOM      2  C   UNL d   1     -47.908  13.133  22.987  0.00  0.00     0.025 A 
ATOM      3  C   UNL d   1     -48.143  12.377  23.175  0.00  0.00     0.013 A 
ATOM      4  C   UNL d   1     -47.115  13.343  23.031  0.00  0.00     0.103 A 
ATOM      5  O   UNL d   1     -46.862  14.107  22.843  0.00  0.00    -0.273 OA
ATOM      6  C   UNL d   1     -47.596  11.822  23.410  0.00  0.00     0.058 A 
ATOM      7  C   UNL d   1     -47.418  14.669  22.605  0.00  0.00     0.300 A 
ATOM      8  C   UNL d   1     -48.214  14.471  22.556  0.00  0.00     0.070 A 
ATOM      9  C   UNL d   1     -46.798  12.025  23.458  0.00  0.00     0.013 A 
ATOM     10  C   UNL d   1     -46.560  12.789  23.267  0.00  0.00     0.026 A 
ATOM     11  O   UNL d   1     -47.176  15.430  22.416  0.00  0.00    -0.259 OA
ATOM     12 CL   UNL d   1     -47.836  11.053  23.602  0.00  0.00    -0.082 Cl
ATOM     13  C   UNL d   1     -48.942  12.175  23.128  0.00  0.00     0.001 C 
ATOM     14  C   UNL d   1     -46.240  11.459  23.697  0.00  0.00     0.001 C 
ENDROOT
BRANCH   1  15
ATOM     15  C   UNL d   1     -49.256  13.498  22.700  0.00  0.00     0.080 C 
BRANCH  15  16
ATOM     16  N   UNL d   1     -49.839  14.071  22.843  0.00  0.00    -0.304 N 
ATOM     17  C   UNL d   1     -50.418  14.220  22.274  0.00  0.00     0.064 A 
ATOM     18  C   UNL d   1     -50.424  13.804  21.563  0.00  0.00     0.019 C 
ATOM     19  C   UNL d   1     -50.990  14.789  22.423  0.00  0.00     0.018 A 
ATOM     20  C   UNL d   1     -50.990  15.208  23.129  0.00  0.00     0.003 A 
ATOM     21  C   UNL d   1     -50.411  15.058  23.698  0.00  0.00     0.019 A 
ATOM     22  C   UNL d   1     -49.832  14.490  23.560  0.00  0.00     0.080 A 
ENDBRANCH  15  16
ENDBRANCH   1  15
TORSDOF 2
ENDMDL
MODEL 3
REMARK VINA RESULT:      -8.8      1.719      3.765
REMARK  2 active torsions:
REMARK  status: ('A' for Active; 'I' for Inactive)
REMARK    1  A    between atoms: C_10  and  C_1 
REMARK    2  A    between atoms: N_6  and  C_10 
ROOT
ATOM      1  C   UNL d   1     -48.343  13.502  22.207  0.00  0.00     0.025 A 
ATOM      2  C   UNL d   1     -49.019  13.970  22.285  0.00  0.00     0.025 A 
ATOM      3  C   UNL d   1     -49.039  14.590  22.812  0.00  0.00     0.013 A 
ATOM      4  C   UNL d   1     -49.675  13.799  21.821  0.00  0.00     0.103 A 
ATOM      5  O   UNL d   1     -49.669  13.172  21.282  0.00  0.00    -0.273 OA
ATOM      6  C   UNL d   1     -49.710  15.048  22.884  0.00  0.00     0.058 A 
ATOM      7  C   UNL d   1     -48.989  12.710  21.211  0.00  0.00     0.300 A 
ATOM      8  C   UNL d   1     -48.327  12.870  21.669  0.00  0.00     0.070 A 
ATOM      9  C   UNL d   1     -50.373  14.882  22.422  0.00  0.00     0.013 A 
ATOM     10  C   UNL d   1     -50.352  14.255  21.890  0.00  0.00     0.026 A 
ATOM     11  O   UNL d   1     -48.973  12.085  20.678  0.00  0.00    -0.259 OA
ATOM     12 CL   UNL d   1     -49.729  15.678  23.420  0.00  0.00    -0.082 Cl
ATOM     13  C   UNL d   1     -48.376  14.754  23.274  0.00  0.00     0.001 C 
ATOM     14  C   UNL d   1     -51.055  15.348  22.496  0.00  0.00     0.001 C 
ENDROOT
BRANCH   1  15
ATOM     15  C   UNL d   1     -47.680  13.667  22.670  0.00  0.00     0.080 C 
BRANCH  15  16
ATOM     16  N   UNL d   1     -47.222  13.045  22.973  0.00  0.00    -0.304 N 
ATOM     17  C   UNL d   1     -46.406  13.037  22.849  0.00  0.00     0.064 A 
ATOM     18  C   UNL d   1     -46.039  13.643  22.425  0.00  0.00     0.019 C 
ATOM     19  C   UNL d   1     -45.959  12.419  23.151  0.00  0.00     0.018 A 
ATOM     20  C   UNL d   1     -46.317  11.813  23.574  0.00  0.00     0.003 A 
ATOM     21  C   UNL d   1     -47.133  11.822  23.698  0.00  0.00     0.019 A 
ATOM     22  C   UNL d   1     -47.591  12.436  23.399  0.00  0.00     0.080 A 
ENDBRANCH  15  16
ENDBRANCH   1  15
TORSDOF 2
ENDMDL
MODEL 4
REMARK VINA RESULT:      -7.7      2.057      4.053
REMARK  2 active torsions:
REMARK  status: ('A' for Active; 'I' for Inactive)
REMARK    1  A    between atoms: C_10  and  C_1 
REMARK    2  A    between atoms: N_6  and  C_10 
ROOT
ATOM      1  C   UNL d   1     -47.929  13.616  22.500  0.00  0.00     0.025 A 
ATOM      2  C   UNL d   1     -48.713  13.613  22.240  0.00  0.00     0.025 A 
ATOM      3  C   UNL d   1     -49.101  12.913  22.094  0.00  0.00     0.013 A 
ATOM      4  C   UNL d   1     -49.097  14.330  22.131  0.00  0.00     0.103 A 
ATOM      5  O   UNL d   1     -48.716  15.049  22.276  0.00  0.00    -0.273 OA
ATOM      6  C   UNL d   1     -49.875  12.916  21.838  0.00  0.00     0.058 A 
ATOM      7  C   UNL d   1     -47.932  15.043  22.535  0.00  0.00     0.300 A 
ATOM      8  C   UNL d   1     -47.536  14.332  22.648  0.00  0.00     0.070 A 
ATOM      9  C   UNL d   1     -50.268  13.633  21.726  0.00  0.00     0.013 A 
ATOM     10  C   UNL d   1     -49.875  14.340  21.874  0.00  0.00     0.026 A 
ATOM     11  O   UNL d   1     -47.544  15.752  22.681  0.00  0.00    -0.259 OA
ATOM     12 CL   UNL d   1     -50.269  12.203  21.690  0.00  0.00    -0.082 Cl
ATOM     13  C   UNL d   1     -48.707  12.196  22.206  0.00  0.00     0.001 C 
ATOM     14  C   UNL d   1     -51.056  13.636  21.466  0.00  0.00     0.001 C 
ENDROOT
BRANCH   1  15
ATOM     15  C   UNL d   1     -47.536  12.899  22.611  0.00  0.00     0.080 C 
BRANCH  15  16
ATOM     16  N   UNL d   1     -46.710  12.863  22.532  0.00  0.00    -0.304 N 
ATOM     17  C   UNL d   1     -46.263  12.432  23.075  0.00  0.00     0.064 A 
ATOM     18  C   UNL d   1     -46.628  12.034  23.698  0.00  0.00     0.019 C 
ATOM     19  C   UNL d   1     -45.448  12.401  22.989  0.00  0.00     0.018 A 
ATOM     20  C   UNL d   1     -45.077  12.794  22.371  0.00  0.00     0.003 A 
ATOM     21  C   UNL d   1     -45.525  13.225  21.829  0.00  0.00     0.019 A 
ATOM     22  C   UNL d   1     -46.343  13.264  21.904  0.00  0.00     0.080 A 
ENDBRANCH  15  16
ENDBRANCH   1  15
TORSDOF 2
ENDMDL
MODEL 5
REMARK VINA RESULT:      -7.6      1.680      3.428
REMARK  2 active torsions:
REMARK  status: ('A' for Active; 'I' for Inactive)
REMARK    1  A    between atoms: C_10  and  C_1 
REMARK    2  A    between atoms: N_6  and  C_10 
ROOT
ATOM      1  C   UNL d   1     -47.885  12.756  22.740  0.00  0.00     0.025 A 
ATOM      2  C   UNL d   1     -48.682  12.718  22.526  0.00  0.00     0.025 A 
ATOM      3  C   UNL d   1     -49.040  13.339  22.141  0.00  0.00     0.013 A 
ATOM      4  C   UNL d   1     -49.110  12.041  22.707  0.00  0.00     0.103 A 
ATOM      5  O   UNL d   1     -48.760  11.402  23.097  0.00  0.00    -0.273 OA
ATOM      6  C   UNL d   1     -49.827  13.297  21.932  0.00  0.00     0.058 A 
ATOM      7  C   UNL d   1     -47.963  11.448  23.308  0.00  0.00     0.300 A 
ATOM      8  C   UNL d   1     -47.524  12.120  23.133  0.00  0.00     0.070 A 
ATOM      9  C   UNL d   1     -50.263  12.620  22.110  0.00  0.00     0.013 A 
ATOM     10  C   UNL d   1     -49.901  11.992  22.499  0.00  0.00     0.026 A 
ATOM     11  O   UNL d   1     -47.605  10.819  23.696  0.00  0.00    -0.259 OA
ATOM     12 CL   UNL d   1     -50.190  13.929  21.540  0.00  0.00    -0.082 Cl
ATOM     13  C   UNL d   1     -48.603  14.016  21.963  0.00  0.00     0.001 C 
ATOM     14  C   UNL d   1     -51.064  12.576  21.897  0.00  0.00     0.001 C 
ENDROOT
BRANCH   1  15
ATOM     15  C   UNL d   1     -47.449  13.433  22.562  0.00  0.00     0.080 C 
BRANCH  15  16
ATOM     16  N   UNL d   1     -46.641  13.368  22.380  0.00  0.00    -0.304 N 
ATOM     17  C   UNL d   1     -46.095  13.859  22.756  0.00  0.00     0.064 A 
ATOM     18  C   UNL d   1     -46.342  14.415  23.312  0.00  0.00     0.019 C 
ATOM     19  C   UNL d   1     -45.299  13.789  22.571  0.00  0.00     0.018 A 
ATOM     20  C   UNL d   1     -45.044  13.238  22.018  0.00  0.00     0.003 A 
ATOM     21  C   UNL d   1     -45.591  12.747  21.643  0.00  0.00     0.019 A 
ATOM     22  C   UNL d   1     -46.392  12.808  21.820  0.00  0.00     0.080 A 
ENDBRANCH  15  16
ENDBRANCH   1  15
TORSDOF 2
ENDMDL
MODEL 6
REMARK VINA RESULT:      -7.2      9.192     10.565
REMARK  2 active torsions:
REMARK  status: ('A' for Active; 'I' for Inactive)
REMARK    1  A    between atoms: C_10  and  C_1 
REMARK    2  A    between atoms: N_6  and  C_10 
ROOT
ATOM      1  C   UNL d   1     -40.180  14.477  18.350  0.00  0.00     0.025 A 
ATOM      2  C   UNL d   1     -39.638  14.202  17.791  0.00  0.00     0.025 A 
ATOM      3  C   UNL d   1     -39.070  13.656  17.993  0.00  0.00     0.013 A 
ATOM      4  C   UNL d   1     -39.682  14.489  17.023  0.00  0.00     0.103 A 
ATOM      5  O   UNL d   1     -40.254  15.044  16.803  0.00  0.00    -0.273 OA
ATOM      6  C   UNL d   1     -38.538  13.389  17.437  0.00  0.00     0.058 A 
ATOM      7  C   UNL d   1     -40.792  15.313  17.368  0.00  0.00     0.300 A 
ATOM      8  C   UNL d   1     -40.759  15.033  18.140  0.00  0.00     0.070 A 
ATOM      9  C   UNL d   1     -38.575  13.673  16.663  0.00  0.00     0.013 A 
ATOM     10  C   UNL d   1     -39.150  14.225  16.459  0.00  0.00     0.026 A 
ATOM     11  O   UNL d   1     -41.364  15.864  17.160  0.00  0.00    -0.259 OA
ATOM     12 CL   UNL d   1     -37.960  12.834  17.644  0.00  0.00    -0.082 Cl
ATOM     13  C   UNL d   1     -39.033  13.373  18.767  0.00  0.00     0.001 C 
ATOM     14  C   UNL d   1     -38.033  13.401  16.096  0.00  0.00     0.001 C 
ENDROOT
BRANCH   1  15
ATOM     15  C   UNL d   1     -40.143  14.193  19.124  0.00  0.00     0.080 C 
BRANCH  15  16
ATOM     16  N   UNL d   1     -40.261  14.711  19.761  0.00  0.00    -0.304 N 
ATOM     17  C   UNL d   1     -40.819  14.530  20.342  0.00  0.00     0.064 A 
ATOM     18  C   UNL d   1     -41.262  13.836  20.296  0.00  0.00     0.019 C 
ATOM     19  C   UNL d   1     -40.930  15.048  20.968  0.00  0.00     0.018 A 
ATOM     20  C   UNL d   1     -40.493  15.740  21.021  0.00  0.00     0.003 A 
ATOM     21  C   UNL d   1     -39.935  15.921  20.440  0.00  0.00     0.019 A 
ATOM     22  C   UNL d   1     -39.815  15.410  19.807  0.00  0.00     0.080 A 
ENDBRANCH  15  16
ENDBRANCH   1  15
TORSDOF 2
ENDMDL
MODEL 7
REMARK VINA RESULT:      -7.0      9.584     11.060
REMARK  2 active torsions:
REMARK  status: ('A' for Active; 'I' for Inactive)
REMARK    1  A    between atoms: C_10  and  C_1 
REMARK    2  A    between atoms: N_6  and  C_10 
ROOT
ATOM      1  C   UNL d   1     -39.759  14.648  18.030  0.00  0.00     0.025 A 
ATOM      2  C   UNL d   1     -39.973  14.964  18.763  0.00  0.00     0.025 A 
ATOM      3  C   UNL d   1     -39.505  14.850  19.419  0.00  0.00     0.013 A 
ATOM      4  C   UNL d   1     -40.667  15.398  18.820  0.00  0.00     0.103 A 
ATOM      5  O   UNL d   1     -41.152  15.523  18.162  0.00  0.00    -0.273 OA
ATOM      6  C   UNL d   1     -39.721  15.164  20.139  0.00  0.00     0.058 A 
ATOM      7  C   UNL d   1     -40.931  15.203  17.433  0.00  0.00     0.300 A 
ATOM      8  C   UNL d   1     -40.239  14.767  17.363  0.00  0.00     0.070 A 
ATOM      9  C   UNL d   1     -40.418  15.601  20.204  0.00  0.00     0.013 A 
ATOM     10  C   UNL d   1     -40.890  15.717  19.541  0.00  0.00     0.026 A 
ATOM     11  O   UNL d   1     -41.406  15.321  16.774  0.00  0.00    -0.259 OA
ATOM     12 CL   UNL d   1     -39.244  15.047  20.806  0.00  0.00    -0.082 Cl
ATOM     13  C   UNL d   1     -38.809  14.412  19.352  0.00  0.00     0.001 C 
ATOM     14  C   UNL d   1     -40.637  15.922  20.938  0.00  0.00     0.001 C 
ENDROOT
BRANCH   1  15
ATOM     15  C   UNL d   1     -39.063  14.211  17.965  0.00  0.00     0.080 C 
BRANCH  15  16
ATOM     16  N   UNL d   1     -38.686  14.141  17.228  0.00  0.00    -0.304 N 
ATOM     17  C   UNL d   1     -38.487  13.395  16.937  0.00  0.00     0.064 A 
ATOM     18  C   UNL d   1     -38.659  12.715  17.371  0.00  0.00     0.019 C 
ATOM     19  C   UNL d   1     -38.114  13.334  16.209  0.00  0.00     0.018 A 
ATOM     20  C   UNL d   1     -37.940  14.007  15.771  0.00  0.00     0.003 A 
ATOM     21  C   UNL d   1     -38.139  14.752  16.063  0.00  0.00     0.019 A 
ATOM     22  C   UNL d   1     -38.512  14.826  16.792  0.00  0.00     0.080 A 
ENDBRANCH  15  16
ENDBRANCH   1  15
TORSDOF 2
ENDMDL
