MODEL 1
REMARK VINA RESULT:      19.4      0.000      0.000
REMARK  5 active torsions:
REMARK  status: ('A' for Active; 'I' for Inactive)
REMARK    1  A    between atoms: N_6  and  C_1 
REMARK    2  A    between atoms: S_10  and  C_4 
REMARK       I    between atoms: C_7  and  N_6 
REMARK       I    between atoms: N_8  and  C_7 
REMARK    3  A    between atoms: C_11  and  N_8 
REMARK    4  A    between atoms: C_12  and  S_10 
REMARK    5  A    between atoms: C_15  and  C_12 
ROOT
ATOM      1  N   UNL d   1     -54.993-102.187 -41.604  0.00  0.00    -0.321 NA
ATOM      2  C   UNL d   1     -54.878-102.138 -42.303  0.00  0.00     0.422 C 
ATOM      3  N   UNL d   1     -54.732-102.101 -43.169  0.00  0.00    -0.180 NA
ATOM      4  O   UNL d   1     -54.939-101.438 -42.281  0.00  0.00    -0.228 OA
ENDROOT
BRANCH   1   5
ATOM      5  C   UNL d   1     -55.117-102.423 -40.769  0.00  0.00     0.271 A 
ATOM      6  S   UNL d   1     -54.711-102.538 -40.199  0.00  0.00    -0.006 SA
ATOM      7  C   UNL d   1     -55.024-102.732 -39.585  0.00  0.00     0.166 A 
ATOM      8  N   UNL d   1     -55.730-102.808 -39.550  0.00  0.00    -0.132 NA
ATOM      9  N   UNL d   1     -55.823-102.499 -40.733  0.00  0.00    -0.107 NA
BRANCH   7  10
ATOM     10  S   UNL d   1     -54.729-102.878 -38.937  0.00  0.00    -0.059 SA
BRANCH  10  11
ATOM     11  C   UNL d   1     -55.195-102.847 -38.255  0.00  0.00     0.037 C 
BRANCH  11  12
ATOM     12  C   UNL d   1     -54.864-102.591 -37.544  0.00  0.00     0.007 C 
ATOM     13  C   UNL d   1     -55.159-102.865 -36.825  0.00  0.00     0.001 C 
ENDBRANCH  11  12
ENDBRANCH  10  11
ENDBRANCH   7  10
ENDBRANCH   1   5
BRANCH   3  14
ATOM     14  C   UNL d   1     -54.727-101.360 -43.553  0.00  0.00     0.087 A 
ATOM     15  C   UNL d   1     -54.734-100.674 -43.111  0.00  0.00     0.019 A 
ATOM     16  C   UNL d   1     -54.729 -99.933 -43.496  0.00  0.00     0.002 A 
ATOM     17  C   UNL d   1     -54.718 -99.893 -44.316  0.00  0.00     0.000 A 
ATOM     18  C   UNL d   1     -54.711-100.594 -44.767  0.00  0.00     0.002 A 
ATOM     19  C   UNL d   1     -54.716-101.327 -44.382  0.00  0.00     0.019 A 
ENDBRANCH   3  14
TORSDOF 5
ENDMDL
