MODEL 1
REMARK VINA RESULT:      91.4      0.000      0.000
REMARK  6 active torsions:
REMARK  status: ('A' for Active; 'I' for Inactive)
REMARK    1  A    between atoms: C_6  and  N_1 
REMARK    2  A    between atoms: C_5  and  C_3 
REMARK    3  A    between atoms: C_9  and  C_4 
REMARK    4  A    between atoms: N_12  and  C_6 
REMARK    5  A    between atoms: O_21  and  C_8 
REMARK    6  A    between atoms: O_22  and  C_16 
ROOT
ATOM      1  N   UNL d   1     -57.746 -99.208 -44.255  0.00  0.00    -0.203 N 
ATOM      2  N   UNL d   1     -58.356 -99.191 -43.716  0.00  0.00    -0.163 NA
ATOM      3  C   UNL d   1     -57.033 -99.048 -43.853  0.00  0.00     0.089 A 
ATOM      4  C   UNL d   1     -58.064 -99.027 -42.987  0.00  0.00     0.103 A 
ATOM      5  C   UNL d   1     -57.238 -98.935 -43.054  0.00  0.00     0.040 A 
ENDROOT
BRANCH   3   6
ATOM      6  C   UNL d   1     -56.268 -99.005 -44.159  0.00  0.00     0.042 A 
ATOM      7  C   UNL d   1     -55.627 -99.002 -43.641  0.00  0.00     0.096 A 
ATOM      8  C   UNL d   1     -54.853 -98.959 -43.933  0.00  0.00     0.026 A 
ATOM      9  C   UNL d   1     -54.739 -98.921 -44.739  0.00  0.00     0.026 A 
ATOM     10  C   UNL d   1     -55.380 -98.924 -45.259  0.00  0.00     0.094 A 
ATOM     11  C   UNL d   1     -56.149 -98.968 -44.949  0.00  0.00     0.028 A 
BRANCH   7  12
ATOM     12  O   UNL d   1     -55.739 -99.041 -42.803  0.00  0.00    -0.328 OA
ATOM     13  C   UNL d   1     -55.326 -99.593 -42.359  0.00  0.00     0.181 C 
ENDBRANCH   7  12
BRANCH  10  14
ATOM     14  O   UNL d   1     -55.258 -98.884 -46.110  0.00  0.00    -0.328 OA
ATOM     15  C   UNL d   1     -55.209 -99.569 -46.553  0.00  0.00     0.181 C 
ENDBRANCH  10  14
ENDBRANCH   3   6
BRANCH   1  16
ATOM     16  C   UNL d   1     -57.824 -99.360 -45.075  0.00  0.00     0.222 C 
ATOM     17  S   UNL d   1     -57.134 -99.418 -45.544  0.00  0.00    -0.037 SA
BRANCH  16  18
ATOM     18  N   UNL d   1     -58.584 -99.453 -45.417  0.00  0.00    -0.214 NA
ATOM     19  C   UNL d   1     -59.196 -98.907 -45.253  0.00  0.00     0.122 C 
ENDBRANCH  16  18
ENDBRANCH   1  16
BRANCH   4  20
ATOM     20  C   UNL d   1     -58.523 -98.968 -42.314  0.00  0.00     0.019 A 
ATOM     21  C   UNL d   1     -58.192 -99.049 -41.582  0.00  0.00     0.002 A 
ATOM     22  C   UNL d   1     -58.650 -98.990 -40.901  0.00  0.00     0.000 A 
ATOM     23  C   UNL d   1     -59.471 -98.843 -40.984  0.00  0.00     0.000 A 
ATOM     24  C   UNL d   1     -59.803 -98.761 -41.735  0.00  0.00     0.000 A 
ATOM     25  C   UNL d   1     -59.949 -98.780 -40.314  0.00  0.00     0.000 C 
ATOM     26  C   UNL d   1     -59.334 -98.822 -42.396  0.00  0.00     0.002 A 
ENDBRANCH   4  20
TORSDOF 6
ENDMDL
