MODEL 1
REMARK VINA RESULT:      34.6      0.000      0.000
REMARK  6 active torsions:
REMARK  status: ('A' for Active; 'I' for Inactive)
REMARK    1  A    between atoms: C_6  and  C_1 
REMARK    2  A    between atoms: N_8  and  C_5 
REMARK    3  A    between atoms: O_13  and  C_6 
REMARK       I    between atoms: C_7  and  N_8 
REMARK    4  A    between atoms: O_12  and  C_7 
REMARK    5  A    between atoms: C_16  and  O_12 
REMARK    6  A    between atoms: C_17  and  O_13 
ROOT
ATOM      1  C   UNL d   1     -51.130  24.910  33.403  0.00  0.00     0.083 A 
ATOM      2  N   UNL d   1     -49.741  25.245  33.343  0.00  0.00    -0.244 NA
ATOM      3  C   UNL d   1     -50.353  24.675  33.375  0.00  0.00     0.087 A 
ATOM      4  C   UNL d   1     -51.325  25.724  33.401  0.00  0.00     0.028 A 
ATOM      5  C   UNL d   1     -50.728  26.291  33.371  0.00  0.00     0.104 A 
ATOM      6  C   UNL d   1     -49.938  26.053  33.342  0.00  0.00     0.099 A 
ATOM      7  C   UNL d   1     -50.156  23.868  33.376  0.00  0.00     0.021 C 
ATOM      8  C   UNL d   1     -49.324  26.629  33.310  0.00  0.00     0.022 C 
ENDROOT
BRANCH   5   9
ATOM      9  N   UNL d   1     -50.923  27.105  33.369  0.00  0.00    -0.184 NA
ATOM     10  C   UNL d   1     -50.601  27.604  33.945  0.00  0.00     0.392 C 
ATOM     11  O   UNL d   1     -50.086  27.310  34.528  0.00  0.00    -0.236 OA
BRANCH  10  12
ATOM     12  O   UNL d   1     -50.792  28.415  33.948  0.00  0.00    -0.256 OA
BRANCH  12  13
ATOM     13  C   UNL d   1     -51.317  28.725  33.396  0.00  0.00     0.128 C 
ATOM     14  C   UNL d   1     -51.437  29.535  33.342  0.00  0.00     0.029 C 
ENDBRANCH  12  13
ENDBRANCH  10  12
ENDBRANCH   5   9
BRANCH   1  15
ATOM     15  C   UNL d   1     -51.733  24.350  33.434  0.00  0.00     0.302 C 
ATOM     16  O   UNL d   1     -51.567  23.552  33.312  0.00  0.00    -0.259 OA
BRANCH  15  17
ATOM     17  O   UNL d   1     -52.503  24.597  33.588  0.00  0.00    -0.271 OA
BRANCH  17  18
ATOM     18  C   UNL d   1     -53.120  24.058  33.512  0.00  0.00     0.126 C 
ATOM     19  C   UNL d   1     -53.896  24.328  33.553  0.00  0.00     0.029 C 
ENDBRANCH  17  18
ENDBRANCH  15  17
ENDBRANCH   1  15
TORSDOF 6
ENDMDL
