MODEL 1
REMARK VINA RESULT:      19.0      0.000      0.000
REMARK  5 active torsions:
REMARK  status: ('A' for Active; 'I' for Inactive)
REMARK    1  A    between atoms: C_2  and  S_1 
REMARK    2  A    between atoms: N_4  and  S_1 
REMARK    3  A    between atoms: C_10  and  C_9 
REMARK       I    between atoms: N_15  and  C_10 
REMARK    4  A    between atoms: C_24  and  N_15 
REMARK    5  A    between atoms: C_16  and  C_24 
ROOT
ATOM      1  N   UNL d   1      45.532 -14.393  44.498  0.00  0.00    -0.229 N 
ATOM      2  C   UNL d   1      45.631 -15.813  44.426  0.00  0.00     0.076 A 
ATOM      3  C   UNL d   1      45.986 -15.085  44.448  0.00  0.00     0.096 A 
ATOM      4  C   UNL d   1      44.719 -14.452  44.525  0.00  0.00     0.092 A 
ATOM      5  C   UNL d   1      44.784 -15.871  44.454  0.00  0.00     0.008 A 
ATOM      6  C   UNL d   1      44.343 -15.175  44.503  0.00  0.00     0.020 A 
ENDROOT
BRANCH   1   7
ATOM      7  S   UNL d   1      45.910 -13.652  44.521  0.00  0.00     0.273 S 
ATOM      8  O   UNL d   1      46.282 -12.917  44.541  0.00  0.00    -0.200 OA
ATOM      9  O   UNL d   1      46.535 -13.976  44.954  0.00  0.00    -0.200 OA
BRANCH   7  10
ATOM     10  C   UNL d   1      45.286 -13.321  44.086  0.00  0.00     0.125 A 
ATOM     11  C   UNL d   1      45.426 -12.917  43.386  0.00  0.00     0.142 A 
ATOM     12  C   UNL d   1      44.798 -12.589  42.958  0.00  0.00     0.131 A 
ATOM     13  N   UNL d   1      46.131 -12.757  42.986  0.00  0.00    -0.101 NA
ATOM     14  N   UNL d   1      45.117 -12.225  42.289  0.00  0.00    -0.102 NA
ATOM     15  C   UNL d   1      44.036 -12.664  43.227  0.00  0.00     0.023 A 
ATOM     16  O   UNL d   1      45.930 -12.327  42.306  0.00  0.00    -0.106 OA
ATOM     17  C   UNL d   1      43.879 -13.068  43.929  0.00  0.00     0.002 A 
ATOM     18  C   UNL d   1      44.509 -13.397  44.360  0.00  0.00     0.015 A 
ENDBRANCH   7  10
ENDBRANCH   1   7
BRANCH   2  19
ATOM     19  C   UNL d   1      46.069 -16.505  44.376  0.00  0.00     0.281 C 
ATOM     20  N   UNL d   1      45.943 -17.043  43.768  0.00  0.00    -0.204 NA
ATOM     21  O   UNL d   1      46.645 -16.654  44.953  0.00  0.00    -0.265 OA
BRANCH  20  22
ATOM     22  C   UNL d   1      46.403 -17.754  43.729  0.00  0.00     0.127 C 
BRANCH  22  23
ATOM     23  C   UNL d   1      46.291 -18.289  43.081  0.00  0.00     0.119 A 
ATOM     24  O   UNL d   1      46.217 -18.076  42.288  0.00  0.00    -0.304 OA
ATOM     25  C   UNL d   1      46.117 -18.767  41.845  0.00  0.00     0.123 A 
ATOM     26  C   UNL d   1      46.129 -19.404  42.366  0.00  0.00     0.029 A 
ATOM     27  C   UNL d   1      46.237 -19.105  43.132  0.00  0.00     0.028 A 
ENDBRANCH  22  23
ENDBRANCH  20  22
ENDBRANCH   2  19
TORSDOF 5
ENDMDL
