MODEL 1
REMARK VINA RESULT:      69.8      0.000      0.000
REMARK  6 active torsions:
REMARK  status: ('A' for Active; 'I' for Inactive)
REMARK    1  A    between atoms: C_3  and  C_1 
REMARK    2  A    between atoms: N_9  and  C_3 
REMARK    3  A    between atoms: C_13  and  C_3 
REMARK    4  A    between atoms: N_4  and  C_10 
REMARK    5  A    between atoms: C_19  and  C_8 
REMARK    6  A    between atoms: C_15  and  N_9 
ROOT
ATOM      1  C   UNL d   1     -57.178-100.042 -44.643  0.00  0.00     0.125 C 
ENDROOT
BRANCH   1   2
ATOM      2  C   UNL d   1     -57.901 -99.632 -44.760  0.00  0.00     0.161 A 
ATOM      3  C   UNL d   1     -58.357 -99.398 -44.125  0.00  0.00     0.258 A 
ATOM      4  C   UNL d   1     -59.072 -98.992 -44.255  0.00  0.00     0.238 A 
ATOM      5  O   UNL d   1     -58.117 -99.561 -43.335  0.00  0.00    -0.281 OA
ATOM      6  O   UNL d   1     -59.528 -98.759 -43.620  0.00  0.00    -0.283 OA
ATOM      7  C   UNL d   1     -59.319 -98.827 -45.025  0.00  0.00     0.073 A 
ATOM      8  C   UNL d   1     -58.863 -99.060 -45.660  0.00  0.00     0.146 A 
ATOM      9  O   UNL d   1     -58.153 -99.463 -45.535  0.00  0.00    -0.299 OA
BRANCH   8  10
ATOM     10  C   UNL d   1     -59.114 -98.891 -46.435  0.00  0.00     0.259 C 
ATOM     11  O   UNL d   1     -59.907 -98.762 -46.605  0.00  0.00    -0.281 OA
ENDBRANCH   8  10
ENDBRANCH   1   2
BRANCH   1  12
ATOM     12  N   UNL d   1     -57.167-100.853 -44.552  0.00  0.00    -0.242 NA
BRANCH  12  13
ATOM     13  C   UNL d   1     -56.464-101.254 -44.495  0.00  0.00     0.083 A 
ATOM     14  C   UNL d   1     -56.151-101.424 -43.744  0.00  0.00     0.043 A 
ATOM     15  C   UNL d   1     -55.433-101.833 -43.676  0.00  0.00     0.128 A 
ATOM     16  C   UNL d   1     -55.033-102.069 -44.346  0.00  0.00     0.024 A 
ATOM     17  C   UNL d   1     -55.344-101.900 -45.095  0.00  0.00     0.003 A 
ATOM     18  C   UNL d   1     -56.063-101.489 -45.166  0.00  0.00     0.019 A 
BRANCH  15  19
ATOM     19  N   UNL d   1     -55.114-102.008 -42.934  0.00  0.00    -0.114 N 
ATOM     20  O   UNL d   1     -55.162-102.758 -42.570  0.00  0.00    -0.532 OA
ATOM     21  O   UNL d   1     -54.712-101.469 -42.465  0.00  0.00    -0.532 OA
ENDBRANCH  15  19
ENDBRANCH  12  13
ENDBRANCH   1  12
BRANCH   1  22
ATOM     22  C   UNL d   1     -56.469 -99.613 -44.620  0.00  0.00     0.101 A 
ATOM     23  N   UNL d   1     -56.028 -99.572 -43.916  0.00  0.00    -0.242 NA
ATOM     24  C   UNL d   1     -55.323 -99.145 -43.894  0.00  0.00     0.099 A 
ATOM     25  C   UNL d   1     -55.056 -98.762 -44.563  0.00  0.00     0.021 A 
ATOM     26  C   UNL d   1     -55.497 -98.809 -45.248  0.00  0.00     0.003 A 
ATOM     27  C   UNL d   1     -56.190 -99.225 -45.281  0.00  0.00     0.021 A 
ENDBRANCH   1  22
TORSDOF 6
ENDMDL
MODEL 2
REMARK VINA RESULT:      71.9      1.762      4.079
REMARK  6 active torsions:
REMARK  status: ('A' for Active; 'I' for Inactive)
REMARK    1  A    between atoms: C_3  and  C_1 
REMARK    2  A    between atoms: N_9  and  C_3 
REMARK    3  A    between atoms: C_13  and  C_3 
REMARK    4  A    between atoms: N_4  and  C_10 
REMARK    5  A    between atoms: C_19  and  C_8 
REMARK    6  A    between atoms: C_15  and  N_9 
ROOT
ATOM      1  C   UNL d   1     -55.333 -99.718 -43.983  0.00  0.00     0.125 C 
ENDROOT
BRANCH   1   2
ATOM      2  C   UNL d   1     -55.172-100.104 -44.711  0.00  0.00     0.161 A 
ATOM      3  C   UNL d   1     -55.022 -99.673 -45.388  0.00  0.00     0.258 A 
ATOM      4  C   UNL d   1     -54.864-100.069 -46.104  0.00  0.00     0.238 A 
ATOM      5  O   UNL d   1     -55.023 -98.832 -45.377  0.00  0.00    -0.281 OA
ATOM      6  O   UNL d   1     -54.714 -99.638 -46.780  0.00  0.00    -0.283 OA
ATOM      7  C   UNL d   1     -54.860-100.894 -46.128  0.00  0.00     0.073 A 
ATOM      8  C   UNL d   1     -55.011-101.324 -45.451  0.00  0.00     0.146 A 
ATOM      9  O   UNL d   1     -55.168-100.935 -44.740  0.00  0.00    -0.299 OA
BRANCH   8  10
ATOM     10  C   UNL d   1     -55.006-102.155 -45.479  0.00  0.00     0.259 C 
ATOM     11  O   UNL d   1     -54.719-102.556 -46.135  0.00  0.00    -0.281 OA
ENDBRANCH   8  10
ENDBRANCH   1   2
BRANCH   1  12
ATOM     12  N   UNL d   1     -55.685 -98.982 -43.969  0.00  0.00    -0.242 NA
BRANCH  12  13
ATOM     13  C   UNL d   1     -56.487 -98.909 -43.870  0.00  0.00     0.083 A 
ATOM     14  C   UNL d   1     -56.984 -98.911 -44.537  0.00  0.00     0.043 A 
ATOM     15  C   UNL d   1     -57.804 -98.836 -44.445  0.00  0.00     0.128 A 
ATOM     16  C   UNL d   1     -58.126 -98.761 -43.699  0.00  0.00     0.024 A 
ATOM     17  C   UNL d   1     -57.632 -98.759 -43.034  0.00  0.00     0.003 A 
ATOM     18  C   UNL d   1     -56.809 -98.833 -43.124  0.00  0.00     0.019 A 
BRANCH  15  19
ATOM     19  N   UNL d   1     -58.305 -98.837 -45.101  0.00  0.00    -0.114 N 
ATOM     20  O   UNL d   1     -58.041 -98.766 -45.891  0.00  0.00    -0.532 OA
ATOM     21  O   UNL d   1     -59.121 -98.908 -45.061  0.00  0.00    -0.532 OA
ENDBRANCH  15  19
ENDBRANCH  12  13
ENDBRANCH   1  12
BRANCH   1  22
ATOM     22  C   UNL d   1     -55.129-100.093 -43.273  0.00  0.00     0.101 A 
ATOM     23  N   UNL d   1     -55.145-100.922 -43.219  0.00  0.00    -0.242 NA
ATOM     24  C   UNL d   1     -54.942-101.294 -42.511  0.00  0.00     0.099 A 
ATOM     25  C   UNL d   1     -54.725-100.849 -41.862  0.00  0.00     0.021 A 
ATOM     26  C   UNL d   1     -54.713-100.036 -41.928  0.00  0.00     0.003 A 
ATOM     27  C   UNL d   1     -54.911 -99.660 -42.616  0.00  0.00     0.021 A 
ENDBRANCH   1  22
TORSDOF 6
ENDMDL
