MODEL 1
REMARK VINA RESULT:      32.2      0.000      0.000
REMARK  3 active torsions:
REMARK  status: ('A' for Active; 'I' for Inactive)
REMARK    1  A    between atoms: C_10  and  C_2 
REMARK    2  A    between atoms: C_13  and  C_6 
REMARK    3  A    between atoms: O_17  and  C_10 
ROOT
ATOM      1  C   UNL d   1      46.031 -17.574  43.655  0.00  0.00     0.081 A 
ATOM      2  C   UNL d   1      46.127 -18.992  43.698  0.00  0.00     0.106 A 
ATOM      3  C   UNL d   1      46.209 -18.960  44.523  0.00  0.00     0.208 A 
ATOM      4  C   UNL d   1      46.112 -17.540  44.469  0.00  0.00     0.108 A 
ATOM      5  C   UNL d   1      45.941 -16.871  43.214  0.00  0.00     0.281 A 
ATOM      6  C   UNL d   1      46.038 -18.296  43.268  0.00  0.00     0.015 A 
ATOM      7  O   UNL d   1      46.201 -18.233  44.902  0.00  0.00    -0.288 OA
ATOM      8  N   UNL d   1      45.933 -16.139  43.600  0.00  0.00    -0.208 NA
ATOM      9  C   UNL d   1      46.104 -16.809  44.854  0.00  0.00     0.044 A 
ATOM     10  C   UNL d   1      46.016 -16.112  44.428  0.00  0.00     0.087 A 
ATOM     11  O   UNL d   1      45.860 -16.909  42.393  0.00  0.00    -0.265 OA
ATOM     12  N   UNL d   1      46.297 -19.660  44.947  0.00  0.00    -0.121 N 
ATOM     13  C   UNL d   1      46.007 -15.385  44.807  0.00  0.00     0.021 C 
ENDROOT
BRANCH   6  14
ATOM     14  C   UNL d   1      45.957 -18.332  42.445  0.00  0.00     0.004 A 
ATOM     15  C   UNL d   1      45.207 -18.476  42.116  0.00  0.00     0.021 A 
ATOM     16  C   UNL d   1      45.123 -18.512  41.297  0.00  0.00     0.099 A 
ATOM     17  N   UNL d   1      45.784 -18.405  40.806  0.00  0.00    -0.242 NA
ATOM     18  C   UNL d   1      46.534 -18.261  41.144  0.00  0.00     0.099 A 
ATOM     19  C   UNL d   1      46.612 -18.226  41.965  0.00  0.00     0.021 A 
ENDBRANCH   6  14
BRANCH   2  20
ATOM     20  C   UNL d   1      46.134 -19.720  43.311  0.00  0.00     0.299 C 
ATOM     21  O   UNL d   1      46.645 -19.851  42.675  0.00  0.00    -0.259 OA
BRANCH  20  22
ATOM     22  O   UNL d   1      45.621 -20.329  43.562  0.00  0.00    -0.296 OA
ATOM     23  C   UNL d   1      44.837 -20.318  43.321  0.00  0.00     0.185 C 
ENDBRANCH  20  22
ENDBRANCH   2  20
TORSDOF 3
ENDMDL
MODEL 2
REMARK VINA RESULT:      33.5      3.336      5.317
REMARK  3 active torsions:
REMARK  status: ('A' for Active; 'I' for Inactive)
REMARK    1  A    between atoms: C_10  and  C_2 
REMARK    2  A    between atoms: C_13  and  C_6 
REMARK    3  A    between atoms: O_17  and  C_10 
ROOT
ATOM      1  C   UNL d   1      45.386 -14.542  44.401  0.00  0.00     0.081 A 
ATOM      2  C   UNL d   1      44.277 -13.653  44.401  0.00  0.00     0.106 A 
ATOM      3  C   UNL d   1      43.814 -14.232  44.773  0.00  0.00     0.208 A 
ATOM      4  C   UNL d   1      44.931 -15.115  44.769  0.00  0.00     0.108 A 
ATOM      5  C   UNL d   1      46.184 -14.700  44.212  0.00  0.00     0.281 A 
ATOM      6  C   UNL d   1      45.063 -13.812  44.216  0.00  0.00     0.015 A 
ATOM      7  O   UNL d   1      44.146 -14.960  44.955  0.00  0.00    -0.288 OA
ATOM      8  N   UNL d   1      46.515 -15.435  44.397  0.00  0.00    -0.208 NA
ATOM      9  C   UNL d   1      45.263 -15.850  44.953  0.00  0.00     0.044 A 
ATOM     10  C   UNL d   1      46.047 -16.012  44.771  0.00  0.00     0.087 A 
ATOM     11  O   UNL d   1      46.639 -14.119  43.841  0.00  0.00    -0.265 OA
ATOM     12  N   UNL d   1      43.029 -14.065  44.955  0.00  0.00    -0.121 N 
ATOM     13  C   UNL d   1      46.379 -16.740  44.952  0.00  0.00     0.021 C 
ENDROOT
BRANCH   6  14
ATOM     14  C   UNL d   1      45.521 -13.233  43.844  0.00  0.00     0.004 A 
ATOM     15  C   UNL d   1      45.558 -13.213  43.014  0.00  0.00     0.021 A 
ATOM     16  C   UNL d   1      46.014 -12.636  42.641  0.00  0.00     0.099 A 
ATOM     17  N   UNL d   1      46.433 -12.080  43.093  0.00  0.00    -0.242 NA
ATOM     18  C   UNL d   1      46.391 -12.106  43.927  0.00  0.00     0.099 A 
ATOM     19  C   UNL d   1      45.932 -12.686  44.296  0.00  0.00     0.021 A 
ENDBRANCH   6  14
BRANCH   2  20
ATOM     20  C   UNL d   1      43.949 -12.919  44.215  0.00  0.00     0.299 C 
ATOM     21  O   UNL d   1      43.853 -12.344  44.800  0.00  0.00    -0.259 OA
BRANCH  20  22
ATOM     22  O   UNL d   1      43.714 -12.756  43.431  0.00  0.00    -0.296 OA
ATOM     23  C   UNL d   1      43.105 -12.223  43.298  0.00  0.00     0.185 C 
ENDBRANCH  20  22
ENDBRANCH   2  20
TORSDOF 3
ENDMDL
