MODEL 1
REMARK VINA RESULT:      -5.0      0.000      0.000
REMARK  2 active torsions:
REMARK  status: ('A' for Active; 'I' for Inactive)
REMARK    1  A    between atoms: C_3  and  N_1 
REMARK    2  A    between atoms: C_12  and  C_9 
ROOT
ATOM      1  C   UNL d   1      58.117  -0.040  30.530  0.00  0.00     0.187 A 
ATOM      2  N   UNL d   1      57.338  -0.281  30.365  0.00  0.00    -0.129 NA
ATOM      3  N   UNL d   1      56.773  -0.278  30.965  0.00  0.00    -0.147 NA
ATOM      4  C   UNL d   1      58.322   0.200  31.289  0.00  0.00     0.039 A 
ATOM      5  C   UNL d   1      56.986  -0.034  31.732  0.00  0.00     0.103 A 
ATOM      6  C   UNL d   1      57.757   0.203  31.889  0.00  0.00     0.022 A 
ATOM      7  C   UNL d   1      59.097   0.439  31.450  0.00  0.00     0.003 A 
ATOM      8  C   UNL d   1      57.966   0.445  32.652  0.00  0.00     0.002 A 
ATOM      9  C   UNL d   1      58.736   0.682  32.809  0.00  0.00     0.000 A 
ATOM     10  C   UNL d   1      59.302   0.679  32.208  0.00  0.00     0.000 A 
ENDROOT
BRANCH   1  11
ATOM     11  N   UNL d   1      58.682  -0.044  29.929  0.00  0.00    -0.191 N 
ATOM     12  N   UNL d   1      59.159   0.546  29.581  0.00  0.00    -0.058 NA
ATOM     13  N   UNL d   1      59.626   0.222  28.999  0.00  0.00    -0.129 NA
ATOM     14  C   UNL d   1      59.457  -0.589  28.962  0.00  0.00     0.122 A 
ATOM     15  C   UNL d   1      58.869  -0.755  29.542  0.00  0.00     0.105 A 
ATOM     16  C   UNL d   1      59.752  -1.194  28.487  0.00  0.00     0.022 A 
ATOM     17  C   UNL d   1      58.594  -1.527  29.627  0.00  0.00     0.021 A 
ATOM     18  C   UNL d   1      58.913  -2.137  29.126  0.00  0.00     0.002 A 
ATOM     19  C   UNL d   1      59.482  -1.937  28.576  0.00  0.00     0.002 A 
ENDBRANCH   1  11
BRANCH   5  20
ATOM     20  C   UNL d   1      56.420  -0.031  32.332  0.00  0.00     0.020 A 
ATOM     21  C   UNL d   1      56.226  -0.741  32.719  0.00  0.00     0.004 A 
ATOM     22  C   UNL d   1      55.660  -0.738  33.319  0.00  0.00     0.030 A 
ATOM     23  C   UNL d   1      55.289  -0.025  33.534  0.00  0.00     0.140 A 
ATOM     24  C   UNL d   1      55.486   0.674  33.148  0.00  0.00     0.030 A 
ATOM     25  F   UNL d   1      54.724  -0.022  34.134  0.00  0.00    -0.204 F 
ATOM     26  C   UNL d   1      56.051   0.671  32.547  0.00  0.00     0.004 A 
ENDBRANCH   5  20
TORSDOF 2
ENDMDL
MODEL 2
REMARK VINA RESULT:      -2.1      2.236      4.515
REMARK  2 active torsions:
REMARK  status: ('A' for Active; 'I' for Inactive)
REMARK    1  A    between atoms: C_3  and  N_1 
REMARK    2  A    between atoms: C_12  and  C_9 
ROOT
ATOM      1  C   UNL d   1      57.479  -0.786  30.944  0.00  0.00     0.187 A 
ATOM      2  N   UNL d   1      57.341  -1.605  30.906  0.00  0.00    -0.129 NA
ATOM      3  N   UNL d   1      57.866  -2.088  30.491  0.00  0.00    -0.147 NA
ATOM      4  C   UNL d   1      58.133  -0.459  30.571  0.00  0.00     0.039 A 
ATOM      5  C   UNL d   1      58.527  -1.753  30.115  0.00  0.00     0.103 A 
ATOM      6  C   UNL d   1      58.658  -0.942  30.156  0.00  0.00     0.022 A 
ATOM      7  C   UNL d   1      58.267   0.355  30.610  0.00  0.00     0.003 A 
ATOM      8  C   UNL d   1      59.316  -0.612  29.781  0.00  0.00     0.002 A 
ATOM      9  C   UNL d   1      59.446   0.198  29.822  0.00  0.00     0.000 A 
ATOM     10  C   UNL d   1      58.922   0.682  30.237  0.00  0.00     0.000 A 
ENDROOT
BRANCH   1  11
ATOM     11  N   UNL d   1      56.954  -0.302  31.359  0.00  0.00    -0.191 N 
ATOM     12  N   UNL d   1      56.710   0.492  31.275  0.00  0.00    -0.058 NA
ATOM     13  N   UNL d   1      56.169   0.681  31.853  0.00  0.00    -0.129 NA
ATOM     14  C   UNL d   1      56.055   0.008  32.324  0.00  0.00     0.122 A 
ATOM     15  C   UNL d   1      56.544  -0.606  32.016  0.00  0.00     0.105 A 
ATOM     16  C   UNL d   1      55.581  -0.133  32.982  0.00  0.00     0.022 A 
ATOM     17  C   UNL d   1      56.541  -1.344  32.380  0.00  0.00     0.021 A 
ATOM     18  C   UNL d   1      56.043  -1.468  33.059  0.00  0.00     0.002 A 
ATOM     19  C   UNL d   1      55.583  -0.849  33.328  0.00  0.00     0.002 A 
ENDBRANCH   1  11
BRANCH   5  20
ATOM     20  C   UNL d   1      59.051  -2.237  29.700  0.00  0.00     0.020 A 
ATOM     21  C   UNL d   1      58.891  -2.435  28.909  0.00  0.00     0.004 A 
ATOM     22  C   UNL d   1      59.415  -2.918  28.494  0.00  0.00     0.030 A 
ATOM     23  C   UNL d   1      60.100  -3.204  28.870  0.00  0.00     0.140 A 
ATOM     24  C   UNL d   1      60.253  -3.004  29.653  0.00  0.00     0.030 A 
ATOM     25  F   UNL d   1      60.624  -3.687  28.455  0.00  0.00    -0.204 F 
ATOM     26  C   UNL d   1      59.729  -2.521  30.068  0.00  0.00     0.004 A 
ENDBRANCH   5  20
TORSDOF 2
ENDMDL
