MODEL 1
REMARK VINA RESULT:       6.3      0.000      0.000
REMARK  9 active torsions:
REMARK  status: ('A' for Active; 'I' for Inactive)
REMARK    1  A    between atoms: C_7  and  C_1 
REMARK    2  A    between atoms: N_6  and  C_2 
REMARK    3  A    between atoms: C_9  and  C_3 
REMARK       I    between atoms: C_8  and  N_6 
REMARK    4  A    between atoms: O_22  and  C_7 
REMARK    5  A    between atoms: C_11  and  C_8 
REMARK    6  A    between atoms: N_10  and  C_15 
REMARK    7  A    between atoms: C_15  and  C_11 
REMARK    8  A    between atoms: C_21  and  C_12 
REMARK    9  A    between atoms: C_29  and  O_22 
ROOT
ATOM      1  C   UNL d   1      32.646  20.013 -22.230  0.00  0.00     0.088 A 
ATOM      2  C   UNL d   1      32.719  19.257 -22.598  0.00  0.00     0.119 A 
ATOM      3  C   UNL d   1      32.796  19.908 -21.441  0.00  0.00     0.014 A 
ATOM      4  S   UNL d   1      32.905  18.712 -22.066  0.00  0.00    -0.067 SA
ATOM      5  C   UNL d   1      32.958  19.111 -21.316  0.00  0.00     0.037 A 
ENDROOT
BRANCH   3   6
ATOM      6  C   UNL d   1      32.768  20.531 -20.939  0.00  0.00     0.001 A 
ATOM      7  C   UNL d   1      32.320  21.181 -21.088  0.00  0.00     0.000 A 
ATOM      8  C   UNL d   1      32.301  21.830 -20.550  0.00  0.00     0.000 A 
ATOM      9  C   UNL d   1      32.719  21.806 -19.901  0.00  0.00     0.000 A 
ATOM     10  C   UNL d   1      33.191  21.160 -19.710  0.00  0.00     0.000 A 
ATOM     11  C   UNL d   1      33.237  20.486 -20.226  0.00  0.00     0.000 A 
BRANCH   9  12
ATOM     12  C   UNL d   1      32.691  22.443 -19.388  0.00  0.00     0.000 A 
ATOM     13  C   UNL d   1      33.239  22.487 -18.775  0.00  0.00     0.000 A 
ATOM     14  C   UNL d   1      33.214  23.127 -18.257  0.00  0.00     0.000 A 
ATOM     15  C   UNL d   1      32.658  23.699 -18.353  0.00  0.00     0.000 A 
ATOM     16  C   UNL d   1      32.102  23.658 -18.970  0.00  0.00     0.000 A 
ATOM     17  C   UNL d   1      32.130  23.013 -19.490  0.00  0.00     0.000 A 
ENDBRANCH   9  12
ENDBRANCH   3   6
BRANCH   1  18
ATOM     18  C   UNL d   1      32.448  20.763 -22.616  0.00  0.00     0.302 C 
ATOM     19  O   UNL d   1      31.664  21.057 -22.566  0.00  0.00    -0.259 OA
BRANCH  18  20
ATOM     20  O   UNL d   1      33.035  21.177 -23.026  0.00  0.00    -0.271 OA
BRANCH  20  21
ATOM     21  C   UNL d   1      32.820  21.858 -23.504  0.00  0.00     0.126 C 
ATOM     22  C   UNL d   1      32.046  21.969 -23.697  0.00  0.00     0.029 C 
ENDBRANCH  20  21
ENDBRANCH  18  20
ENDBRANCH   1  18
BRANCH   2  23
ATOM     23  N   UNL d   1      32.617  19.053 -23.431  0.00  0.00    -0.201 NA
ATOM     24  C   UNL d   1      32.462  18.273 -23.636  0.00  0.00     0.281 C 
ATOM     25  O   UNL d   1      32.400  17.664 -23.032  0.00  0.00    -0.265 OA
BRANCH  24  26
ATOM     26  C   UNL d   1      32.359  18.048 -24.431  0.00  0.00     0.082 C 
BRANCH  26  27
ATOM     27  C   UNL d   1      31.675  18.285 -24.854  0.00  0.00     0.085 C 
BRANCH  27  28
ATOM     28  N   UNL d   1      31.026  17.784 -24.935  0.00  0.00    -0.299 N 
ATOM     29  C   UNL d   1      30.238  18.104 -24.948  0.00  0.00     0.107 A 
ATOM     30  C   UNL d   1      29.593  17.596 -25.030  0.00  0.00     0.142 A 
ATOM     31  O   UNL d   1      29.722  16.790 -25.097  0.00  0.00    -0.300 OA
ATOM     32  C   UNL d   1      30.500  16.423 -25.088  0.00  0.00     0.142 A 
ATOM     33  C   UNL d   1      31.141  16.936 -25.007  0.00  0.00     0.107 A 
ENDBRANCH  27  28
ENDBRANCH  26  27
ENDBRANCH  24  26
ENDBRANCH   2  23
TORSDOF 9
ENDMDL
