MODEL 1
REMARK VINA RESULT:       5.5      0.000      0.000
REMARK  2 active torsions:
REMARK  status: ('A' for Active; 'I' for Inactive)
REMARK    1  A    between atoms: C_9  and  N_2 
REMARK    2  A    between atoms: C_7  and  C_4 
ROOT
ATOM      1  C   UNL d   1     -41.878-123.241 -48.697  0.00  0.00     0.136 A 
ATOM      2  N   UNL d   1     -42.333-122.949 -49.323  0.00  0.00    -0.282 N 
ATOM      3  C   UNL d   1     -42.186-123.227 -47.929  0.00  0.00     0.152 A 
ATOM      4  C   UNL d   1     -43.094-122.644 -49.177  0.00  0.00     0.158 A 
ATOM      5  N   UNL d   1     -43.394-122.633 -48.407  0.00  0.00    -0.189 NA
ATOM      6  C   UNL d   1     -42.940-122.925 -47.784  0.00  0.00     0.292 A 
ATOM      7  C   UNL d   1     -41.732-123.519 -47.306  0.00  0.00     0.108 C 
ATOM      8  N   UNL d   1     -41.278-123.812 -46.677  0.00  0.00    -0.191 NA
ATOM      9  S   UNL d   1     -41.123-123.545 -48.833  0.00  0.00    -0.058 SA
ATOM     10  O   UNL d   1     -43.240-122.916 -47.009  0.00  0.00    -0.264 OA
ENDROOT
BRANCH   2  11
ATOM     11  C   UNL d   1     -42.031-122.960 -50.086  0.00  0.00     0.066 A 
ATOM     12  C   UNL d   1     -41.631-122.300 -50.376  0.00  0.00     0.018 A 
ATOM     13  C   UNL d   1     -41.330-122.314 -51.142  0.00  0.00     0.002 A 
ATOM     14  C   UNL d   1     -41.427-122.984 -51.618  0.00  0.00     0.000 A 
ATOM     15  C   UNL d   1     -41.829-123.646 -51.323  0.00  0.00     0.002 A 
ATOM     16  C   UNL d   1     -41.125-122.998 -52.385  0.00  0.00     0.000 C 
ATOM     17  C   UNL d   1     -42.131-123.632 -50.557  0.00  0.00     0.018 A 
ENDBRANCH   2  11
BRANCH   4  18
ATOM     18  C   UNL d   1     -43.548-122.352 -49.799  0.00  0.00     0.064 A 
ATOM     19  S   UNL d   1     -44.205-122.718 -50.129  0.00  0.00    -0.083 SA
ATOM     20  C   UNL d   1     -44.483-122.235 -50.731  0.00  0.00     0.035 A 
ATOM     21  C   UNL d   1     -43.999-121.571 -50.773  0.00  0.00     0.008 A 
ATOM     22  C   UNL d   1     -43.422-121.634 -50.205  0.00  0.00     0.010 A 
ENDBRANCH   4  18
TORSDOF 2
ENDMDL
MODEL 2
REMARK VINA RESULT:       7.1      3.021      4.546
REMARK  2 active torsions:
REMARK  status: ('A' for Active; 'I' for Inactive)
REMARK    1  A    between atoms: C_9  and  N_2 
REMARK    2  A    between atoms: C_7  and  C_4 
ROOT
ATOM      1  C   UNL d   1     -41.656-123.031 -53.198  0.00  0.00     0.136 A 
ATOM      2  N   UNL d   1     -41.578-122.520 -52.553  0.00  0.00    -0.282 N 
ATOM      3  C   UNL d   1     -41.509-122.747 -53.962  0.00  0.00     0.152 A 
ATOM      4  C   UNL d   1     -41.353-121.728 -52.674  0.00  0.00     0.158 A 
ATOM      5  N   UNL d   1     -41.208-121.452 -53.439  0.00  0.00    -0.189 NA
ATOM      6  C   UNL d   1     -41.286-121.961 -54.082  0.00  0.00     0.292 A 
ATOM      7  C   UNL d   1     -41.587-123.256 -54.605  0.00  0.00     0.108 C 
ATOM      8  N   UNL d   1     -41.665-123.766 -55.254  0.00  0.00    -0.191 NA
ATOM      9  S   UNL d   1     -41.879-123.817 -53.087  0.00  0.00    -0.058 SA
ATOM     10  O   UNL d   1     -41.141-121.686 -54.852  0.00  0.00    -0.264 OA
ENDROOT
BRANCH   2  11
ATOM     11  C   UNL d   1     -41.723-122.798 -51.794  0.00  0.00     0.066 A 
ATOM     12  C   UNL d   1     -42.465-122.681 -51.452  0.00  0.00     0.018 A 
ATOM     13  C   UNL d   1     -42.608-122.960 -50.691  0.00  0.00     0.002 A 
ATOM     14  C   UNL d   1     -42.014-123.354 -50.271  0.00  0.00     0.000 A 
ATOM     15  C   UNL d   1     -41.270-123.470 -50.617  0.00  0.00     0.002 A 
ATOM     16  C   UNL d   1     -42.157-123.633 -49.509  0.00  0.00     0.000 C 
ATOM     17  C   UNL d   1     -41.126-123.191 -51.379  0.00  0.00     0.018 A 
ENDBRANCH   2  11
BRANCH   4  18
ATOM     18  C   UNL d   1     -41.275-121.218 -52.031  0.00  0.00     0.064 A 
ATOM     19  S   UNL d   1     -41.282-120.398 -52.063  0.00  0.00    -0.083 SA
ATOM     20  C   UNL d   1     -41.188-120.118 -51.298  0.00  0.00     0.035 A 
ATOM     21  C   UNL d   1     -41.123-120.764 -50.793  0.00  0.00     0.008 A 
ATOM     22  C   UNL d   1     -41.176-121.444 -51.235  0.00  0.00     0.010 A 
ENDBRANCH   4  18
TORSDOF 2
ENDMDL
MODEL 3
REMARK VINA RESULT:       8.3      3.370      4.955
REMARK  2 active torsions:
REMARK  status: ('A' for Active; 'I' for Inactive)
REMARK    1  A    between atoms: C_9  and  N_2 
REMARK    2  A    between atoms: C_7  and  C_4 
ROOT
ATOM      1  C   UNL d   1     -42.180-121.929 -53.938  0.00  0.00     0.136 A 
ATOM      2  N   UNL d   1     -42.025-122.227 -53.182  0.00  0.00    -0.282 N 
ATOM      3  C   UNL d   1     -42.327-122.455 -54.560  0.00  0.00     0.152 A 
ATOM      4  C   UNL d   1     -42.018-123.049 -53.053  0.00  0.00     0.158 A 
ATOM      5  N   UNL d   1     -42.166-123.568 -53.679  0.00  0.00    -0.189 NA
ATOM      6  C   UNL d   1     -42.320-123.270 -54.432  0.00  0.00     0.292 A 
ATOM      7  C   UNL d   1     -42.481-122.157 -55.313  0.00  0.00     0.108 C 
ATOM      8  N   UNL d   1     -42.636-121.861 -56.072  0.00  0.00    -0.191 NA
ATOM      9  S   UNL d   1     -42.189-121.115 -54.075  0.00  0.00    -0.058 SA
ATOM     10  O   UNL d   1     -42.468-123.789 -55.064  0.00  0.00    -0.264 OA
ENDROOT
BRANCH   2  11
ATOM     11  C   UNL d   1     -41.879-121.709 -52.562  0.00  0.00     0.066 A 
ATOM     12  C   UNL d   1     -41.267-121.160 -52.626  0.00  0.00     0.018 A 
ATOM     13  C   UNL d   1     -41.123-120.642 -52.002  0.00  0.00     0.002 A 
ATOM     14  C   UNL d   1     -41.586-120.671 -51.317  0.00  0.00     0.000 A 
ATOM     15  C   UNL d   1     -42.200-121.225 -51.257  0.00  0.00     0.002 A 
ATOM     16  C   UNL d   1     -41.441-120.153 -50.693  0.00  0.00     0.000 C 
ATOM     17  C   UNL d   1     -42.346-121.743 -51.881  0.00  0.00     0.018 A 
ENDBRANCH   2  11
BRANCH   4  18
ATOM     18  C   UNL d   1     -41.864-123.348 -52.300  0.00  0.00     0.064 A 
ATOM     19  S   UNL d   1     -41.123-123.530 -51.997  0.00  0.00    -0.083 SA
ATOM     20  C   UNL d   1     -41.230-123.809 -51.232  0.00  0.00     0.035 A 
ATOM     21  C   UNL d   1     -42.035-123.799 -51.063  0.00  0.00     0.008 A 
ATOM     22  C   UNL d   1     -42.432-123.517 -51.714  0.00  0.00     0.010 A 
ENDBRANCH   4  18
TORSDOF 2
ENDMDL
