MODEL 1
REMARK VINA RESULT:      32.4      0.000      0.000
REMARK  5 active torsions:
REMARK  status: ('A' for Active; 'I' for Inactive)
REMARK    1  A    between atoms: C_2  and  C_1 
REMARK    2  A    between atoms: O_16  and  C_12 
REMARK    3  A    between atoms: C_21  and  C_14 
REMARK    4  A    between atoms: C_17  and  O_16 
REMARK    5  A    between atoms: C_24  and  C_21 
ROOT
ATOM      1  C   UNL d   1      46.003 -17.502  43.831  0.00  0.00     0.086 A 
ATOM      2  C   UNL d   1      46.189 -16.789  43.471  0.00  0.00     0.201 A 
ATOM      3  C   UNL d   1      45.963 -16.067  43.847  0.00  0.00     0.062 A 
ATOM      4  C   UNL d   1      45.604 -17.521  44.547  0.00  0.00     0.105 A 
ATOM      5  C   UNL d   1      45.552 -16.087  44.583  0.00  0.00     0.105 A 
ATOM      6  O   UNL d   1      45.379 -16.828  44.922  0.00  0.00    -0.307 OA
ATOM      7  C   UNL d   1      46.149 -15.356  43.487  0.00  0.00     0.007 A 
ATOM      8  C   UNL d   1      45.338 -15.395  44.938  0.00  0.00     0.050 A 
ATOM      9  C   UNL d   1      45.524 -14.682  44.579  0.00  0.00     0.105 A 
ATOM     10  C   UNL d   1      45.924 -14.663  43.863  0.00  0.00     0.023 A 
ATOM     11  O   UNL d   1      46.587 -16.794  42.760  0.00  0.00    -0.286 OA
ATOM     12  C   UNL d   1      45.419 -18.256  44.907  0.00  0.00     0.027 C 
ENDROOT
BRANCH   1  13
ATOM     13  C   UNL d   1      46.215 -18.218  43.481  0.00  0.00     0.116 A 
ATOM     14  N   UNL d   1      46.220 -18.480  42.688  0.00  0.00    -0.238 NA
ATOM     15  C   UNL d   1      46.486 -19.251  42.669  0.00  0.00     0.088 A 
ATOM     16  C   UNL d   1      46.582 -19.735  41.995  0.00  0.00     0.021 C 
ATOM     17  C   UNL d   1      46.647 -19.482  43.413  0.00  0.00     0.056 A 
ATOM     18  S   UNL d   1      46.482 -18.844  43.937  0.00  0.00    -0.066 SA
ENDBRANCH   1  13
BRANCH  10  19
ATOM     19  C   UNL d   1      46.093 -13.898  43.529  0.00  0.00     0.002 C 
BRANCH  19  20
ATOM     20  C   UNL d   1      46.557 -13.844  42.834  0.00  0.00     0.000 C 
ATOM     21  C   UNL d   1      46.363 -13.303  42.243  0.00  0.00     0.000 C 
ENDBRANCH  19  20
ENDBRANCH  10  19
BRANCH   9  22
ATOM     22  O   UNL d   1      45.298 -13.966  44.954  0.00  0.00    -0.273 OA
BRANCH  22  23
ATOM     23  C   UNL d   1      44.629 -13.547  44.655  0.00  0.00     0.300 C 
ATOM     24  O   UNL d   1      44.749 -12.801  44.379  0.00  0.00    -0.259 OA
ATOM     25  C   UNL d   1      43.868 -13.929  44.660  0.00  0.00     0.074 C 
ENDBRANCH  22  23
ENDBRANCH   9  22
TORSDOF 5
ENDMDL
