MODEL 1
REMARK VINA RESULT:      -9.0      0.000      0.000
REMARK  2 active torsions:
REMARK  status: ('A' for Active; 'I' for Inactive)
REMARK    1  A    between atoms: N_6  and  C_4 
REMARK    2  A    between atoms: C_9  and  N_6 
ROOT
ATOM      1  S   UNL d   1      53.134  30.251  53.452  0.00  0.00     0.216 S 
ATOM      2  C   UNL d   1      53.600  30.919  53.591  0.00  0.00     0.121 A 
ATOM      3  C   UNL d   1      52.491  30.492  53.021  0.00  0.00     0.142 A 
ATOM      4  C   UNL d   1      53.243  31.576  53.243  0.00  0.00     0.132 A 
ATOM      5  C   UNL d   1      52.554  31.304  52.891  0.00  0.00     0.225 A 
ATOM      6  O   UNL d   1      53.800  30.016  53.897  0.00  0.00    -0.217 OA
ATOM      7  O   UNL d   1      52.829  29.491  53.428  0.00  0.00    -0.217 OA
ATOM      8  O   UNL d   1      51.992  31.760  52.462  0.00  0.00    -0.284 OA
ENDROOT
BRANCH   4   9
ATOM      9  N   UNL d   1      53.433  32.359  53.195  0.00  0.00    -0.242 NA
BRANCH   9  10
ATOM     10  C   UNL d   1      53.894  32.725  53.763  0.00  0.00     0.082 A 
ATOM     11  C   UNL d   1      54.678  32.845  53.620  0.00  0.00     0.020 A 
ATOM     12  C   UNL d   1      55.149  33.223  54.210  0.00  0.00     0.013 A 
ATOM     13  C   UNL d   1      54.808  33.461  54.911  0.00  0.00     0.058 A 
ATOM     14  C   UNL d   1      54.014  33.344  55.066  0.00  0.00     0.013 A 
ATOM     15 CL   UNL d   1      55.288  33.838  55.492  0.00  0.00    -0.082 Cl
ATOM     16  C   UNL d   1      53.554  32.971  54.482  0.00  0.00     0.020 A 
ENDBRANCH   9  10
ENDBRANCH   4   9
TORSDOF 2
ENDMDL
MODEL 2
REMARK VINA RESULT:      -8.6      2.883      3.565
REMARK  2 active torsions:
REMARK  status: ('A' for Active; 'I' for Inactive)
REMARK    1  A    between atoms: N_6  and  C_4 
REMARK    2  A    between atoms: C_9  and  N_6 
ROOT
ATOM      1  S   UNL d   1      54.172  33.739  54.843  0.00  0.00     0.216 S 
ATOM      2  C   UNL d   1      53.570  33.865  54.290  0.00  0.00     0.121 A 
ATOM      3  C   UNL d   1      54.468  32.997  54.710  0.00  0.00     0.142 A 
ATOM      4  C   UNL d   1      53.495  33.195  53.814  0.00  0.00     0.132 A 
ATOM      5  C   UNL d   1      54.056  32.660  54.080  0.00  0.00     0.225 A 
ATOM      6  O   UNL d   1      53.857  34.502  54.968  0.00  0.00    -0.217 OA
ATOM      7  O   UNL d   1      54.713  33.816  55.452  0.00  0.00    -0.217 OA
ATOM      8  O   UNL d   1      54.203  31.889  53.775  0.00  0.00    -0.284 OA
ENDROOT
BRANCH   4   9
ATOM      9  N   UNL d   1      53.015  32.997  53.196  0.00  0.00    -0.242 NA
BRANCH   9  10
ATOM     10  C   UNL d   1      52.292  33.361  53.079  0.00  0.00     0.082 A 
ATOM     11  C   UNL d   1      52.247  34.009  52.602  0.00  0.00     0.020 A 
ATOM     12  C   UNL d   1      51.499  34.381  52.485  0.00  0.00     0.013 A 
ATOM     13  C   UNL d   1      50.835  34.082  52.853  0.00  0.00     0.058 A 
ATOM     14  C   UNL d   1      50.869  33.426  53.338  0.00  0.00     0.013 A 
ATOM     15 CL   UNL d   1      50.093  34.462  52.728  0.00  0.00    -0.082 Cl
ATOM     16  C   UNL d   1      51.609  33.063  53.450  0.00  0.00     0.020 A 
ENDBRANCH   9  10
ENDBRANCH   4   9
TORSDOF 2
ENDMDL
MODEL 3
REMARK VINA RESULT:      -8.3      2.480      2.933
REMARK  2 active torsions:
REMARK  status: ('A' for Active; 'I' for Inactive)
REMARK    1  A    between atoms: N_6  and  C_4 
REMARK    2  A    between atoms: C_9  and  N_6 
ROOT
ATOM      1  S   UNL d   1      53.206  31.183  53.170  0.00  0.00     0.216 S 
ATOM      2  C   UNL d   1      52.801  31.872  52.957  0.00  0.00     0.121 A 
ATOM      3  C   UNL d   1      53.704  31.376  53.779  0.00  0.00     0.142 A 
ATOM      4  C   UNL d   1      53.052  32.494  53.439  0.00  0.00     0.132 A 
ATOM      5  C   UNL d   1      53.613  32.179  53.947  0.00  0.00     0.225 A 
ATOM      6  O   UNL d   1      52.688  30.999  52.541  0.00  0.00    -0.217 OA
ATOM      7  O   UNL d   1      53.486  30.416  53.220  0.00  0.00    -0.217 OA
ATOM      8  O   UNL d   1      54.037  32.588  54.548  0.00  0.00    -0.284 OA
ENDROOT
BRANCH   4   9
ATOM      9  N   UNL d   1      52.861  33.276  53.491  0.00  0.00    -0.242 NA
BRANCH   9  10
ATOM     10  C   UNL d   1      52.157  33.567  53.193  0.00  0.00     0.082 A 
ATOM     11  C   UNL d   1      52.155  33.951  52.484  0.00  0.00     0.020 A 
ATOM     12  C   UNL d   1      51.427  34.250  52.181  0.00  0.00     0.013 A 
ATOM     13  C   UNL d   1      50.738  34.147  52.606  0.00  0.00     0.058 A 
ATOM     14  C   UNL d   1      50.728  33.759  53.325  0.00  0.00     0.013 A 
ATOM     15 CL   UNL d   1      50.016  34.449  52.293  0.00  0.00    -0.082 Cl
ATOM     16  C   UNL d   1      51.449  33.467  53.619  0.00  0.00     0.020 A 
ENDBRANCH   9  10
ENDBRANCH   4   9
TORSDOF 2
ENDMDL
MODEL 4
REMARK VINA RESULT:      -8.3      2.607      3.435
REMARK  2 active torsions:
REMARK  status: ('A' for Active; 'I' for Inactive)
REMARK    1  A    between atoms: N_6  and  C_4 
REMARK    2  A    between atoms: C_9  and  N_6 
ROOT
ATOM      1  S   UNL d   1      53.296  34.618  54.729  0.00  0.00     0.216 S 
ATOM      2  C   UNL d   1      53.547  33.912  54.381  0.00  0.00     0.121 A 
ATOM      3  C   UNL d   1      52.870  35.023  54.171  0.00  0.00     0.142 A 
ATOM      4  C   UNL d   1      53.275  33.881  53.602  0.00  0.00     0.132 A 
ATOM      5  C   UNL d   1      52.855  34.575  53.478  0.00  0.00     0.225 A 
ATOM      6  O   UNL d   1      53.736  34.189  55.295  0.00  0.00    -0.217 OA
ATOM      7  O   UNL d   1      53.154  35.236  55.246  0.00  0.00    -0.217 OA
ATOM      8  O   UNL d   1      52.466  34.810  52.771  0.00  0.00    -0.284 OA
ENDROOT
BRANCH   4   9
ATOM      9  N   UNL d   1      53.343  33.344  53.005  0.00  0.00    -0.242 NA
BRANCH   9  10
ATOM     10  C   UNL d   1      53.325  32.538  53.146  0.00  0.00     0.082 A 
ATOM     11  C   UNL d   1      53.994  32.165  53.396  0.00  0.00     0.020 A 
ATOM     12  C   UNL d   1      53.971  31.334  53.541  0.00  0.00     0.013 A 
ATOM     13  C   UNL d   1      53.276  30.922  53.427  0.00  0.00     0.058 A 
ATOM     14  C   UNL d   1      52.592  31.290  53.174  0.00  0.00     0.013 A 
ATOM     15 CL   UNL d   1      53.264  30.092  53.575  0.00  0.00    -0.082 Cl
ATOM     16  C   UNL d   1      52.621  32.110  53.033  0.00  0.00     0.020 A 
ENDBRANCH   9  10
ENDBRANCH   4   9
TORSDOF 2
ENDMDL
MODEL 5
REMARK VINA RESULT:      -8.3      1.590      2.279
REMARK  2 active torsions:
REMARK  status: ('A' for Active; 'I' for Inactive)
REMARK    1  A    between atoms: N_6  and  C_4 
REMARK    2  A    between atoms: C_9  and  N_6 
ROOT
ATOM      1  S   UNL d   1      51.767  33.717  52.947  0.00  0.00     0.216 S 
ATOM      2  C   UNL d   1      52.366  33.599  53.504  0.00  0.00     0.121 A 
ATOM      3  C   UNL d   1      51.715  33.040  52.504  0.00  0.00     0.142 A 
ATOM      4  C   UNL d   1      52.687  32.846  53.403  0.00  0.00     0.132 A 
ATOM      5  C   UNL d   1      52.277  32.503  52.781  0.00  0.00     0.225 A 
ATOM      6  O   UNL d   1      51.831  34.408  53.411  0.00  0.00    -0.217 OA
ATOM      7  O   UNL d   1      51.159  34.027  52.493  0.00  0.00    -0.217 OA
ATOM      8  O   UNL d   1      52.395  31.734  52.461  0.00  0.00    -0.284 OA
ENDROOT
BRANCH   4   9
ATOM      9  N   UNL d   1      53.271  32.431  53.773  0.00  0.00    -0.242 NA
BRANCH   9  10
ATOM     10  C   UNL d   1      53.870  32.805  54.185  0.00  0.00     0.082 A 
ATOM     11  C   UNL d   1      54.520  33.068  53.787  0.00  0.00     0.020 A 
ATOM     12  C   UNL d   1      55.136  33.454  54.216  0.00  0.00     0.013 A 
ATOM     13  C   UNL d   1      55.066  33.556  55.022  0.00  0.00     0.058 A 
ATOM     14  C   UNL d   1      54.412  33.293  55.435  0.00  0.00     0.013 A 
ATOM     15 CL   UNL d   1      55.687  33.943  55.441  0.00  0.00    -0.082 Cl
ATOM     16  C   UNL d   1      53.808  32.914  55.008  0.00  0.00     0.020 A 
ENDBRANCH   9  10
ENDBRANCH   4   9
TORSDOF 2
ENDMDL
