MODEL 1
REMARK VINA RESULT:       7.6      0.000      0.000
REMARK  2 active torsions:
REMARK  status: ('A' for Active; 'I' for Inactive)
REMARK    1  A    between atoms: C_6  and  C_1 
REMARK    2  A    between atoms: C_7  and  C_5 
ROOT
ATOM      1  C   UNL d   1      14.567  12.498  -1.198  0.00  0.00     0.169 A 
ATOM      2  C   UNL d   1      14.611  13.049  -1.711  0.00  0.00     0.048 A 
ATOM      3  N   UNL d   1      13.852  11.779  -2.032  0.00  0.00    -0.148 NA
ATOM      4  N   UNL d   1      14.188  11.860  -1.354  0.00  0.00    -0.142 NA
ATOM      5  C   UNL d   1      13.897  12.330  -2.545  0.00  0.00     0.105 A 
ENDROOT
BRANCH   5   6
ATOM      6  C   UNL d   1      13.616  12.440  -3.310  0.00  0.00     0.020 A 
ATOM      7  C   UNL d   1      13.532  13.203  -3.620  0.00  0.00     0.004 A 
ATOM      8  C   UNL d   1      13.249  13.312  -4.390  0.00  0.00     0.030 A 
ATOM      9  C   UNL d   1      13.048  12.656  -4.854  0.00  0.00     0.140 A 
ATOM     10  C   UNL d   1      13.133  11.887  -4.538  0.00  0.00     0.030 A 
ATOM     11  F   UNL d   1      12.769  12.759  -5.614  0.00  0.00    -0.204 F 
ATOM     12  C   UNL d   1      13.416  11.786  -3.770  0.00  0.00     0.004 A 
ENDBRANCH   5   6
BRANCH   1  13
ATOM     13  C   UNL d   1      14.903  12.579  -0.519  0.00  0.00     0.231 C 
ATOM     14  O   UNL d   1      15.074  11.972  -0.106  0.00  0.00    -0.643 OA
ATOM     15  O   UNL d   1      15.063  13.274  -0.263  0.00  0.00    -0.643 OA
ENDBRANCH   1  13
TORSDOF 2
ENDMDL
MODEL 2
REMARK VINA RESULT:       9.0      2.888      3.884
REMARK  2 active torsions:
REMARK  status: ('A' for Active; 'I' for Inactive)
REMARK    1  A    between atoms: C_6  and  C_1 
REMARK    2  A    between atoms: C_7  and  C_5 
ROOT
ATOM      1  C   UNL d   1      13.496  11.859  -4.760  0.00  0.00     0.169 A 
ATOM      2  C   UNL d   1      14.157  11.900  -4.399  0.00  0.00     0.048 A 
ATOM      3  N   UNL d   1      12.871  11.784  -3.608  0.00  0.00    -0.148 NA
ATOM      4  N   UNL d   1      12.848  11.801  -4.369  0.00  0.00    -0.142 NA
ATOM      5  C   UNL d   1      13.531  11.824  -3.247  0.00  0.00     0.105 A 
ENDROOT
BRANCH   5   6
ATOM      6  C   UNL d   1      13.767  11.822  -2.459  0.00  0.00     0.020 A 
ATOM      7  C   UNL d   1      14.571  11.860  -2.263  0.00  0.00     0.004 A 
ATOM      8  C   UNL d   1      14.807  11.858  -1.469  0.00  0.00     0.030 A 
ATOM      9  C   UNL d   1      14.239  11.818  -0.868  0.00  0.00     0.140 A 
ATOM     10  C   UNL d   1      13.428  11.780  -1.070  0.00  0.00     0.030 A 
ATOM     11  F   UNL d   1      14.467  11.815  -0.085  0.00  0.00    -0.204 F 
ATOM     12  C   UNL d   1      13.200  11.782  -1.862  0.00  0.00     0.004 A 
ENDBRANCH   5   6
BRANCH   1  13
ATOM     13  C   UNL d   1      13.474  11.877  -5.521  0.00  0.00     0.231 C 
ATOM     14  O   UNL d   1      14.107  11.983  -5.916  0.00  0.00    -0.643 OA
ATOM     15  O   UNL d   1      12.811  11.786  -5.876  0.00  0.00    -0.643 OA
ENDBRANCH   1  13
TORSDOF 2
ENDMDL
