MODEL 1
REMARK VINA RESULT:      -7.5      0.000      0.000
REMARK  5 active torsions:
REMARK  status: ('A' for Active; 'I' for Inactive)
REMARK    1  A    between atoms: C_2  and  C_1 
REMARK    2  A    between atoms: O_4  and  C_2 
REMARK    3  A    between atoms: C_9  and  O_4 
REMARK    4  A    between atoms: C_5  and  C_9 
REMARK    5  A    between atoms: C_12  and  C_5 
ROOT
ATOM      1  C   UNL d   1      53.376  32.658  53.325  0.00  0.00     0.168 C 
ENDROOT
BRANCH   1   2
ATOM      2  C   UNL d   1      53.850  33.240  53.682  0.00  0.00     0.220 C 
ATOM      3  O   UNL d   1      54.657  33.109  53.776  0.00  0.00    -0.284 OA
BRANCH   2   4
ATOM      4  C   UNL d   1      53.505  33.944  53.938  0.00  0.00     0.041 A 
ATOM      5  C   UNL d   1      53.584  34.167  54.732  0.00  0.00     0.003 A 
ATOM      6  C   UNL d   1      53.242  34.867  54.990  0.00  0.00     0.000 A 
ATOM      7  C   UNL d   1      52.824  35.343  54.464  0.00  0.00     0.000 A 
ATOM      8  C   UNL d   1      52.749  35.112  53.671  0.00  0.00     0.000 A 
ATOM      9  C   UNL d   1      53.092  34.411  53.413  0.00  0.00     0.003 A 
ENDBRANCH   2   4
ENDBRANCH   1   2
BRANCH   1  10
ATOM     10  O   UNL d   1      53.548  31.865  53.439  0.00  0.00    -0.267 OA
BRANCH  10  11
ATOM     11  C   UNL d   1      53.120  31.290  53.038  0.00  0.00     0.306 C 
ATOM     12  O   UNL d   1      52.730  31.475  52.338  0.00  0.00    -0.258 OA
BRANCH  11  13
ATOM     13  C   UNL d   1      53.082  30.519  53.339  0.00  0.00     0.093 A 
ATOM     14  S   UNL d   1      52.457  29.992  53.244  0.00  0.00    -0.081 SA
ATOM     15  C   UNL d   1      52.648  29.292  53.632  0.00  0.00     0.036 A 
ATOM     16  C   UNL d   1      53.396  29.383  53.971  0.00  0.00     0.008 A 
ATOM     17  C   UNL d   1      53.664  30.139  53.791  0.00  0.00     0.012 A 
ENDBRANCH  11  13
ENDBRANCH  10  11
ENDBRANCH   1  10
TORSDOF 5
ENDMDL
MODEL 2
REMARK VINA RESULT:      -7.3      1.440      4.168
REMARK  5 active torsions:
REMARK  status: ('A' for Active; 'I' for Inactive)
REMARK    1  A    between atoms: C_2  and  C_1 
REMARK    2  A    between atoms: O_4  and  C_2 
REMARK    3  A    between atoms: C_9  and  O_4 
REMARK    4  A    between atoms: C_5  and  C_9 
REMARK    5  A    between atoms: C_12  and  C_5 
ROOT
ATOM      1  C   UNL d   1      52.971  32.216  53.484  0.00  0.00     0.168 C 
ENDROOT
BRANCH   1   2
ATOM      2  C   UNL d   1      53.555  31.630  53.415  0.00  0.00     0.220 C 
ATOM      3  O   UNL d   1      54.342  31.845  53.314  0.00  0.00    -0.284 OA
BRANCH   2   4
ATOM      4  C   UNL d   1      53.338  30.834  53.448  0.00  0.00     0.041 A 
ATOM      5  C   UNL d   1      53.541  30.389  54.115  0.00  0.00     0.003 A 
ATOM      6  C   UNL d   1      53.325  29.597  54.152  0.00  0.00     0.000 A 
ATOM      7  C   UNL d   1      52.912  29.251  53.530  0.00  0.00     0.000 A 
ATOM      8  C   UNL d   1      52.713  29.704  52.865  0.00  0.00     0.000 A 
ATOM      9  C   UNL d   1      52.928  30.497  52.830  0.00  0.00     0.003 A 
ENDBRANCH   2   4
ENDBRANCH   1   2
BRANCH   1  10
ATOM     10  O   UNL d   1      53.182  32.979  53.698  0.00  0.00    -0.267 OA
BRANCH  10  11
ATOM     11  C   UNL d   1      52.603  33.553  53.799  0.00  0.00     0.306 C 
ATOM     12  O   UNL d   1      51.814  33.378  53.650  0.00  0.00    -0.258 OA
BRANCH  11  13
ATOM     13  C   UNL d   1      52.816  34.312  54.052  0.00  0.00     0.093 A 
ATOM     14  S   UNL d   1      53.076  34.516  54.807  0.00  0.00    -0.081 SA
ATOM     15  C   UNL d   1      53.227  35.325  54.819  0.00  0.00     0.036 A 
ATOM     16  C   UNL d   1      53.059  35.627  54.067  0.00  0.00     0.008 A 
ATOM     17  C   UNL d   1      52.806  35.004  53.595  0.00  0.00     0.012 A 
ENDBRANCH  11  13
ENDBRANCH  10  11
ENDBRANCH   1  10
TORSDOF 5
ENDMDL
MODEL 3
REMARK VINA RESULT:      -7.3      2.191      3.021
REMARK  5 active torsions:
REMARK  status: ('A' for Active; 'I' for Inactive)
REMARK    1  A    between atoms: C_2  and  C_1 
REMARK    2  A    between atoms: O_4  and  C_2 
REMARK    3  A    between atoms: C_9  and  O_4 
REMARK    4  A    between atoms: C_5  and  C_9 
REMARK    5  A    between atoms: C_12  and  C_5 
ROOT
ATOM      1  C   UNL d   1      53.374  32.608  53.498  0.00  0.00     0.168 C 
ENDROOT
BRANCH   1   2
ATOM      2  C   UNL d   1      53.786  32.360  54.175  0.00  0.00     0.220 C 
ATOM      3  O   UNL d   1      53.653  31.610  54.486  0.00  0.00    -0.284 OA
BRANCH   2   4
ATOM      4  C   UNL d   1      54.329  32.871  54.530  0.00  0.00     0.041 A 
ATOM      5  C   UNL d   1      54.234  33.070  55.328  0.00  0.00     0.003 A 
ATOM      6  C   UNL d   1      54.772  33.578  55.683  0.00  0.00     0.000 A 
ATOM      7  C   UNL d   1      55.399  33.888  55.249  0.00  0.00     0.000 A 
ATOM      8  C   UNL d   1      55.487  33.684  54.450  0.00  0.00     0.000 A 
ATOM      9  C   UNL d   1      54.948  33.175  54.095  0.00  0.00     0.003 A 
ENDBRANCH   2   4
ENDBRANCH   1   2
BRANCH   1  10
ATOM     10  O   UNL d   1      52.558  32.694  53.526  0.00  0.00    -0.267 OA
BRANCH  10  11
ATOM     11  C   UNL d   1      52.137  32.846  52.838  0.00  0.00     0.306 C 
ATOM     12  O   UNL d   1      52.333  32.463  52.138  0.00  0.00    -0.258 OA
BRANCH  11  13
ATOM     13  C   UNL d   1      51.512  33.389  52.850  0.00  0.00     0.093 A 
ATOM     14  S   UNL d   1      51.477  34.097  52.430  0.00  0.00    -0.081 SA
ATOM     15  C   UNL d   1      50.760  34.464  52.601  0.00  0.00     0.036 A 
ATOM     16  C   UNL d   1      50.347  33.983  53.131  0.00  0.00     0.008 A 
ATOM     17  C   UNL d   1      50.810  33.321  53.284  0.00  0.00     0.012 A 
ENDBRANCH  11  13
ENDBRANCH  10  11
ENDBRANCH   1  10
TORSDOF 5
ENDMDL
MODEL 4
REMARK VINA RESULT:      -7.2      2.247      3.198
REMARK  5 active torsions:
REMARK  status: ('A' for Active; 'I' for Inactive)
REMARK    1  A    between atoms: C_2  and  C_1 
REMARK    2  A    between atoms: O_4  and  C_2 
REMARK    3  A    between atoms: C_9  and  O_4 
REMARK    4  A    between atoms: C_5  and  C_9 
REMARK    5  A    between atoms: C_12  and  C_5 
ROOT
ATOM      1  C   UNL d   1      52.702  32.673  53.669  0.00  0.00     0.168 C 
ENDROOT
BRANCH   1   2
ATOM      2  C   UNL d   1      52.328  32.734  52.931  0.00  0.00     0.220 C 
ATOM      3  O   UNL d   1      52.572  32.259  52.306  0.00  0.00    -0.284 OA
BRANCH   2   4
ATOM      4  C   UNL d   1      51.711  33.274  52.832  0.00  0.00     0.041 A 
ATOM      5  C   UNL d   1      51.790  33.877  52.270  0.00  0.00     0.003 A 
ATOM      6  C   UNL d   1      51.178  34.416  52.170  0.00  0.00     0.000 A 
ATOM      7  C   UNL d   1      50.494  34.356  52.623  0.00  0.00     0.000 A 
ATOM      8  C   UNL d   1      50.423  33.749  53.183  0.00  0.00     0.000 A 
ATOM      9  C   UNL d   1      51.036  33.210  53.283  0.00  0.00     0.003 A 
ENDBRANCH   2   4
ENDBRANCH   1   2
BRANCH   1  10
ATOM     10  O   UNL d   1      53.521  32.695  53.715  0.00  0.00    -0.267 OA
BRANCH  10  11
ATOM     11  C   UNL d   1      53.896  32.569  54.434  0.00  0.00     0.306 C 
ATOM     12  O   UNL d   1      53.682  31.933  54.909  0.00  0.00    -0.258 OA
BRANCH  11  13
ATOM     13  C   UNL d   1      54.494  33.087  54.683  0.00  0.00     0.093 A 
ATOM     14  S   UNL d   1      54.541  33.455  55.418  0.00  0.00    -0.081 SA
ATOM     15  C   UNL d   1      55.220  33.920  55.432  0.00  0.00     0.036 A 
ATOM     16  C   UNL d   1      55.598  33.841  54.700  0.00  0.00     0.008 A 
ATOM     17  C   UNL d   1      55.151  33.328  54.239  0.00  0.00     0.012 A 
ENDBRANCH  11  13
ENDBRANCH  10  11
ENDBRANCH   1  10
TORSDOF 5
ENDMDL
