MODEL 1
REMARK VINA RESULT:      -2.0      0.000      0.000
REMARK  5 active torsions:
REMARK  status: ('A' for Active; 'I' for Inactive)
REMARK    1  A    between atoms: C_5  and  C_1 
REMARK    2  A    between atoms: N_7  and  C_5 
REMARK    3  A    between atoms: C_10  and  C_5 
REMARK    4  A    between atoms: C_16  and  C_19 
REMARK    5  A    between atoms: C_20  and  C_16 
ROOT
ATOM      1  C   UNL d   1      59.235  -0.822  29.713  0.00  0.00     0.085 C 
ENDROOT
BRANCH   1   2
ATOM      2  C   UNL d   1      59.218  -1.630  29.459  0.00  0.00     0.059 A 
ATOM      3  C   UNL d   1      59.881  -2.128  29.582  0.00  0.00     0.214 A 
ATOM      4  C   UNL d   1      59.847  -2.917  29.327  0.00  0.00     0.121 A 
ATOM      5  O   UNL d   1      60.555  -1.846  29.947  0.00  0.00    -0.285 OA
ATOM      6  N   UNL d   1      60.492  -3.410  29.443  0.00  0.00    -0.241 NA
ATOM      7  C   UNL d   1      59.160  -3.205  28.954  0.00  0.00     0.032 A 
ATOM      8  C   UNL d   1      60.444  -4.204  29.181  0.00  0.00     0.099 A 
ATOM      9  C   UNL d   1      59.783  -4.480  28.823  0.00  0.00     0.021 A 
ATOM     10  C   UNL d   1      59.124  -3.981  28.702  0.00  0.00     0.004 A 
ATOM     11  C   UNL d   1      58.513  -2.699  28.840  0.00  0.00     0.059 A 
ATOM     12  C   UNL d   1      58.557  -1.906  29.100  0.00  0.00     0.016 A 
ATOM     13 CL   UNL d   1      57.836  -2.982  28.473  0.00  0.00    -0.082 Cl
ENDBRANCH   1   2
BRANCH   1  14
ATOM     14  N   UNL d   1      58.658  -0.538  30.229  0.00  0.00    -0.302 N 
ATOM     15  C   UNL d   1      57.906  -0.322  29.950  0.00  0.00     0.080 A 
ATOM     16  C   UNL d   1      57.328  -0.038  30.466  0.00  0.00     0.019 A 
ATOM     17  C   UNL d   1      57.497   0.032  31.267  0.00  0.00     0.003 A 
ATOM     18  C   UNL d   1      58.243  -0.181  31.551  0.00  0.00     0.019 A 
ATOM     19  C   UNL d   1      58.815  -0.462  31.040  0.00  0.00     0.080 A 
BRANCH  17  20
ATOM     20  C   UNL d   1      56.925   0.313  31.779  0.00  0.00     0.000 C 
BRANCH  20  21
ATOM     21  C   UNL d   1      56.456  -0.204  32.191  0.00  0.00     0.000 A 
ATOM     22  C   UNL d   1      56.439  -0.999  31.986  0.00  0.00     0.000 A 
ATOM     23  C   UNL d   1      55.967  -1.523  32.400  0.00  0.00     0.000 A 
ATOM     24  C   UNL d   1      55.505  -1.250  33.026  0.00  0.00     0.000 A 
ATOM     25  C   UNL d   1      55.518  -0.458  33.234  0.00  0.00     0.000 A 
ATOM     26  C   UNL d   1      56.000   0.075  32.812  0.00  0.00     0.000 A 
ENDBRANCH  20  21
ENDBRANCH  17  20
ENDBRANCH   1  14
BRANCH   1  27
ATOM     27  C   UNL d   1      59.846  -0.308  29.434  0.00  0.00     0.098 A 
ATOM     28  N   UNL d   1      60.540  -0.220  29.887  0.00  0.00    -0.243 NA
ATOM     29  C   UNL d   1      61.133   0.278  29.619  0.00  0.00     0.099 A 
ATOM     30  C   UNL d   1      61.036   0.682  28.911  0.00  0.00     0.021 A 
ATOM     31  C   UNL d   1      60.349   0.599  28.457  0.00  0.00     0.003 A 
ATOM     32  C   UNL d   1      59.756   0.102  28.724  0.00  0.00     0.021 A 
ENDBRANCH   1  27
TORSDOF 5
ENDMDL
