MODEL 1
REMARK VINA RESULT:      -1.1      0.000      0.000
REMARK  7 active torsions:
REMARK  status: ('A' for Active; 'I' for Inactive)
REMARK    1  A    between atoms: C_4  and  N_1 
REMARK       I    between atoms: C_2  and  N_6 
REMARK    2  A    between atoms: C_3  and  C_2 
REMARK    3  A    between atoms: C_5  and  C_3 
REMARK    4  A    between atoms: C_12  and  C_5 
REMARK    5  A    between atoms: N_6  and  C_11 
REMARK    6  A    between atoms: O_22  and  C_13 
REMARK    7  A    between atoms: C_25  and  O_22 
ROOT
ATOM      1  C   UNL d   1     -41.266-122.100 -52.060  0.00  0.00     0.328 C 
ATOM      2  N   UNL d   1     -41.451-122.343 -51.299  0.00  0.00    -0.365 NA
ATOM      3  O   UNL d   1     -41.123-121.303 -52.217  0.00  0.00    -0.251 OA
ENDROOT
BRANCH   1   4
ATOM      4  C   UNL d   1     -41.222-122.651 -52.671  0.00  0.00     0.076 C 
BRANCH   4   5
ATOM      5  C   UNL d   1     -41.909-122.875 -53.074  0.00  0.00     0.006 C 
BRANCH   5   6
ATOM      6  C   UNL d   1     -41.991-122.686 -53.876  0.00  0.00     0.000 A 
ATOM      7  C   UNL d   1     -41.660-123.185 -54.452  0.00  0.00     0.002 A 
ATOM      8  C   UNL d   1     -41.738-123.002 -55.251  0.00  0.00     0.025 A 
ATOM      9  C   UNL d   1     -42.147-122.319 -55.483  0.00  0.00     0.100 A 
ATOM     10  C   UNL d   1     -42.477-121.822 -54.915  0.00  0.00     0.025 A 
ATOM     11  C   UNL d   1     -42.400-122.003 -54.108  0.00  0.00     0.002 A 
BRANCH   9  12
ATOM     12  O   UNL d   1     -42.226-122.136 -56.282  0.00  0.00    -0.305 OA
BRANCH  12  13
ATOM     13  C   UNL d   1     -42.297-121.351 -56.517  0.00  0.00     0.123 C 
ATOM     14  C   UNL d   1     -41.844-121.064 -57.144  0.00  0.00     0.029 C 
ENDBRANCH  12  13
ENDBRANCH   9  12
ENDBRANCH   5   6
ENDBRANCH   4   5
ENDBRANCH   1   4
BRANCH   2  15
ATOM     15  C   UNL d   1     -41.637-122.582 -50.529  0.00  0.00     0.135 A 
ATOM     16  C   UNL d   1     -42.333-122.318 -50.163  0.00  0.00     0.034 A 
ATOM     17  C   UNL d   1     -42.506-122.564 -49.395  0.00  0.00     0.020 A 
ATOM     18  C   UNL d   1     -41.992-123.069 -48.993  0.00  0.00     0.064 A 
ATOM     19  C   UNL d   1     -41.302-123.330 -49.358  0.00  0.00     0.020 A 
ATOM     20  C   UNL d   1     -41.125-123.087 -50.124  0.00  0.00     0.034 A 
BRANCH  18  21
ATOM     21  N   UNL d   1     -42.168-123.312 -48.226  0.00  0.00    -0.300 N 
ATOM     22  C   UNL d   1     -42.933-123.556 -48.037  0.00  0.00     0.107 A 
ATOM     23  C   UNL d   1     -43.112-123.799 -47.275  0.00  0.00     0.142 A 
ATOM     24  O   UNL d   1     -42.523-123.798 -46.694  0.00  0.00    -0.300 OA
ATOM     25  C   UNL d   1     -41.758-123.554 -46.883  0.00  0.00     0.142 A 
ATOM     26  C   UNL d   1     -41.577-123.309 -47.651  0.00  0.00     0.107 A 
ENDBRANCH  18  21
ENDBRANCH   2  15
TORSDOF 7
ENDMDL
MODEL 2
REMARK VINA RESULT:      -1.0      1.064      6.588
REMARK  7 active torsions:
REMARK  status: ('A' for Active; 'I' for Inactive)
REMARK    1  A    between atoms: C_4  and  N_1 
REMARK       I    between atoms: C_2  and  N_6 
REMARK    2  A    between atoms: C_3  and  C_2 
REMARK    3  A    between atoms: C_5  and  C_3 
REMARK    4  A    between atoms: C_12  and  C_5 
REMARK    5  A    between atoms: N_6  and  C_11 
REMARK    6  A    between atoms: O_22  and  C_13 
REMARK    7  A    between atoms: C_25  and  O_22 
ROOT
ATOM      1  C   UNL d   1     -41.592-122.028 -51.078  0.00  0.00     0.328 C 
ATOM      2  N   UNL d   1     -41.729-122.020 -51.887  0.00  0.00    -0.365 NA
ATOM      3  O   UNL d   1     -41.311-121.351 -50.699  0.00  0.00    -0.251 OA
ENDROOT
BRANCH   1   4
ATOM      4  C   UNL d   1     -41.735-122.711 -50.641  0.00  0.00     0.076 C 
BRANCH   4   5
ATOM      5  C   UNL d   1     -41.214-122.932 -50.038  0.00  0.00     0.006 C 
BRANCH   5   6
ATOM      6  C   UNL d   1     -41.516-123.148 -49.298  0.00  0.00     0.000 A 
ATOM      7  C   UNL d   1     -41.124-122.902 -48.607  0.00  0.00     0.002 A 
ATOM      8  C   UNL d   1     -41.419-123.114 -47.868  0.00  0.00     0.025 A 
ATOM      9  C   UNL d   1     -42.108-123.572 -47.811  0.00  0.00     0.100 A 
ATOM     10  C   UNL d   1     -42.498-123.817 -48.493  0.00  0.00     0.025 A 
ATOM     11  C   UNL d   1     -42.204-123.606 -49.241  0.00  0.00     0.002 A 
BRANCH   9  12
ATOM     12  O   UNL d   1     -42.403-123.784 -47.072  0.00  0.00    -0.305 OA
BRANCH  12  13
ATOM     13  C   UNL d   1     -43.062-123.396 -46.768  0.00  0.00     0.123 C 
ATOM     14  C   UNL d   1     -43.793-123.778 -46.747  0.00  0.00     0.029 C 
ENDBRANCH  12  13
ENDBRANCH   9  12
ENDBRANCH   5   6
ENDBRANCH   4   5
ENDBRANCH   1   4
BRANCH   2  15
ATOM     15  C   UNL d   1     -41.866-122.006 -52.703  0.00  0.00     0.135 A 
ATOM     16  C   UNL d   1     -41.579-122.614 -53.188  0.00  0.00     0.034 A 
ATOM     17  C   UNL d   1     -41.722-122.588 -54.000  0.00  0.00     0.020 A 
ATOM     18  C   UNL d   1     -42.147-121.961 -54.328  0.00  0.00     0.064 A 
ATOM     19  C   UNL d   1     -42.431-121.359 -53.845  0.00  0.00     0.020 A 
ATOM     20  C   UNL d   1     -42.291-121.381 -53.034  0.00  0.00     0.034 A 
BRANCH  18  21
ATOM     21  N   UNL d   1     -42.288-121.939 -55.139  0.00  0.00    -0.300 N 
ATOM     22  C   UNL d   1     -42.946-122.323 -55.454  0.00  0.00     0.107 A 
ATOM     23  C   UNL d   1     -43.089-122.302 -56.261  0.00  0.00     0.142 A 
ATOM     24  O   UNL d   1     -42.571-121.894 -56.760  0.00  0.00    -0.300 OA
ATOM     25  C   UNL d   1     -41.912-121.510 -56.445  0.00  0.00     0.142 A 
ATOM     26  C   UNL d   1     -41.768-121.530 -55.632  0.00  0.00     0.107 A 
ENDBRANCH  18  21
ENDBRANCH   2  15
TORSDOF 7
ENDMDL
