MODEL 1
REMARK VINA RESULT:      63.1      0.000      0.000
REMARK  6 active torsions:
REMARK  status: ('A' for Active; 'I' for Inactive)
REMARK    1  A    between atoms: S_10  and  C_5 
REMARK    2  A    between atoms: C_11  and  N_8 
REMARK    3  A    between atoms: C_15  and  S_10 
REMARK    4  A    between atoms: C_16  and  C_11 
REMARK    5  A    between atoms: C_17  and  C_15 
REMARK    6  A    between atoms: C_23  and  C_16 
ROOT
ATOM      1  C   UNL d   1     -58.215 -98.929 -44.971  0.00  0.00     0.174 A 
ATOM      2  C   UNL d   1     -58.618 -98.955 -44.247  0.00  0.00     0.159 A 
ATOM      3  N   UNL d   1     -57.413 -98.959 -44.813  0.00  0.00    -0.203 NA
ATOM      4  N   UNL d   1     -58.649 -98.880 -45.671  0.00  0.00    -0.239 N 
ATOM      5  C   UNL d   1     -57.329 -99.004 -43.992  0.00  0.00     0.181 A 
ATOM      6  C   UNL d   1     -59.488 -98.857 -45.677  0.00  0.00     0.358 A 
ATOM      7  N   UNL d   1     -59.891 -98.883 -44.953  0.00  0.00    -0.152 NA
ATOM      8  N   UNL d   1     -58.043 -99.006 -43.561  0.00  0.00    -0.279 N 
ATOM      9  C   UNL d   1     -59.454 -98.933 -44.223  0.00  0.00     0.302 A 
ATOM     10  O   UNL d   1     -59.933 -98.808 -46.383  0.00  0.00    -0.244 OA
ATOM     11  O   UNL d   1     -59.857 -98.959 -43.499  0.00  0.00    -0.263 OA
ATOM     12  C   UNL d   1     -58.246 -98.854 -46.395  0.00  0.00     0.105 C 
ENDROOT
BRANCH   5  13
ATOM     13  S   UNL d   1     -56.531 -99.036 -43.793  0.00  0.00    -0.049 SA
BRANCH  13  14
ATOM     14  C   UNL d   1     -56.044 -99.586 -43.411  0.00  0.00     0.038 C 
BRANCH  14  15
ATOM     15  C   UNL d   1     -55.716-100.214 -43.835  0.00  0.00     0.007 A 
ATOM     16  C   UNL d   1     -55.854-100.986 -43.588  0.00  0.00     0.001 A 
ATOM     17  C   UNL d   1     -55.527-101.614 -44.013  0.00  0.00     0.000 A 
ATOM     18  C   UNL d   1     -55.063-101.465 -44.682  0.00  0.00     0.000 A 
ATOM     19  C   UNL d   1     -54.929-100.685 -44.925  0.00  0.00     0.000 A 
ATOM     20  C   UNL d   1     -54.735-102.095 -45.109  0.00  0.00     0.000 C 
ATOM     21  C   UNL d   1     -55.258-100.061 -44.498  0.00  0.00     0.001 A 
ENDBRANCH  14  15
ENDBRANCH  13  14
ENDBRANCH   5  13
BRANCH   8  22
ATOM     22  C   UNL d   1     -58.037 -99.049 -42.738  0.00  0.00     0.082 C 
BRANCH  22  23
ATOM     23  C   UNL d   1     -58.673 -98.757 -42.300  0.00  0.00     0.019 C 
BRANCH  23  24
ATOM     24  C   UNL d   1     -59.031 -99.223 -41.724  0.00  0.00     0.002 C 
ATOM     25  C   UNL d   1     -59.824 -99.108 -41.525  0.00  0.00     0.000 C 
ATOM     26  C   UNL d   1     -58.599 -99.814 -41.337  0.00  0.00     0.000 C 
ENDBRANCH  23  24
ENDBRANCH  22  23
ENDBRANCH   8  22
TORSDOF 6
ENDMDL
