MODEL 1
REMARK VINA RESULT:      -0.2      0.000      0.000
REMARK  2 active torsions:
REMARK  status: ('A' for Active; 'I' for Inactive)
REMARK    1  A    between atoms: C_13  and  C_6 
REMARK    2  A    between atoms: N_7  and  C_12 
ROOT
ATOM      1  C   UNL d   1      31.794  16.986 -23.777  0.00  0.00     0.095 A 
ATOM      2  C   UNL d   1      31.156  18.057 -24.443  0.00  0.00     0.095 A 
ATOM      3  C   UNL d   1      32.516  17.398 -23.806  0.00  0.00     0.143 A 
ATOM      4  C   UNL d   1      31.879  18.469 -24.472  0.00  0.00     0.143 A 
ATOM      5  S   UNL d   1      32.547  18.136 -24.155  0.00  0.00    -0.044 SA
ATOM      6  C   UNL d   1      31.129  17.327 -24.098  0.00  0.00     0.023 A 
ATOM      7  C   UNL d   1      30.468  18.400 -24.770  0.00  0.00     0.103 C 
ATOM      8  C   UNL d   1      31.767  16.218 -23.414  0.00  0.00     0.103 C 
ATOM      9  N   UNL d   1      31.718  15.453 -23.057  0.00  0.00    -0.191 NA
ATOM     10  N   UNL d   1      29.764  18.736 -25.097  0.00  0.00    -0.191 NA
ATOM     11  N   UNL d   1      31.915  19.226 -24.828  0.00  0.00    -0.140 N 
ATOM     12  N   UNL d   1      33.214  17.044 -23.472  0.00  0.00    -0.140 N 
ENDROOT
BRANCH   6  13
ATOM     13  C   UNL d   1      30.404  16.914 -24.069  0.00  0.00     0.002 A 
ATOM     14  C   UNL d   1      30.180  16.418 -24.680  0.00  0.00     0.002 A 
ATOM     15  C   UNL d   1      29.470  16.014 -24.652  0.00  0.00     0.024 A 
ATOM     16  C   UNL d   1      28.968  16.094 -24.011  0.00  0.00     0.127 A 
ATOM     17  C   UNL d   1      29.191  16.593 -23.393  0.00  0.00     0.024 A 
ATOM     18  C   UNL d   1      29.900  16.997 -23.422  0.00  0.00     0.002 A 
BRANCH  16  19
ATOM     19  N   UNL d   1      28.259  15.690 -23.982  0.00  0.00    -0.114 N 
ATOM     20  O   UNL d   1      27.954  15.459 -23.260  0.00  0.00    -0.532 OA
ATOM     21  O   UNL d   1      27.862  15.520 -24.669  0.00  0.00    -0.532 OA
ENDBRANCH  16  19
ENDBRANCH   6  13
TORSDOF 2
ENDMDL
MODEL 2
REMARK VINA RESULT:       0.5      2.331      3.947
REMARK  2 active torsions:
REMARK  status: ('A' for Active; 'I' for Inactive)
REMARK    1  A    between atoms: C_13  and  C_6 
REMARK    2  A    between atoms: N_7  and  C_12 
ROOT
ATOM      1  C   UNL d   1      29.036  17.430 -24.028  0.00  0.00     0.095 A 
ATOM      2  C   UNL d   1      29.761  16.444 -23.322  0.00  0.00     0.095 A 
ATOM      3  C   UNL d   1      28.323  17.107 -23.746  0.00  0.00     0.143 A 
ATOM      4  C   UNL d   1      29.048  16.122 -23.040  0.00  0.00     0.143 A 
ATOM      5  S   UNL d   1      28.341  16.455 -23.254  0.00  0.00    -0.044 SA
ATOM      6  C   UNL d   1      29.741  17.088 -23.808  0.00  0.00     0.023 A 
ATOM      7  C   UNL d   1      30.490  16.100 -23.100  0.00  0.00     0.103 C 
ATOM      8  C   UNL d   1      29.012  18.108 -24.540  0.00  0.00     0.103 C 
ATOM      9  N   UNL d   1      29.011  18.782 -25.050  0.00  0.00    -0.191 NA
ATOM     10  N   UNL d   1      31.235  15.762 -22.885  0.00  0.00    -0.191 NA
ATOM     11  N   UNL d   1      29.061  15.453 -22.535  0.00  0.00    -0.140 N 
ATOM     12  N   UNL d   1      27.583  17.461 -23.975  0.00  0.00    -0.140 N 
ENDROOT
BRANCH   6  13
ATOM     13  C   UNL d   1      30.456  17.412 -24.091  0.00  0.00     0.002 A 
ATOM     14  C   UNL d   1      30.867  17.969 -23.653  0.00  0.00     0.002 A 
ATOM     15  C   UNL d   1      31.567  18.286 -23.931  0.00  0.00     0.024 A 
ATOM     16  C   UNL d   1      31.875  18.054 -24.653  0.00  0.00     0.127 A 
ATOM     17  C   UNL d   1      31.464  17.494 -25.096  0.00  0.00     0.024 A 
ATOM     18  C   UNL d   1      30.764  17.177 -24.819  0.00  0.00     0.002 A 
BRANCH  16  19
ATOM     19  N   UNL d   1      32.574  18.370 -24.929  0.00  0.00    -0.114 N 
ATOM     20  O   UNL d   1      33.222  17.885 -25.040  0.00  0.00    -0.532 OA
ATOM     21  O   UNL d   1      32.623  19.164 -25.093  0.00  0.00    -0.532 OA
ENDBRANCH  16  19
ENDBRANCH   6  13
TORSDOF 2
ENDMDL
MODEL 3
REMARK VINA RESULT:       1.9      4.572      5.677
REMARK  2 active torsions:
REMARK  status: ('A' for Active; 'I' for Inactive)
REMARK    1  A    between atoms: C_13  and  C_6 
REMARK    2  A    between atoms: N_7  and  C_12 
ROOT
ATOM      1  C   UNL d   1      32.996  19.855 -22.422  0.00  0.00     0.095 A 
ATOM      2  C   UNL d   1      32.918  20.842 -23.430  0.00  0.00     0.095 A 
ATOM      3  C   UNL d   1      33.131  19.273 -23.002  0.00  0.00     0.143 A 
ATOM      4  C   UNL d   1      33.053  20.261 -24.010  0.00  0.00     0.143 A 
ATOM      5  S   UNL d   1      33.157  19.487 -23.790  0.00  0.00    -0.044 SA
ATOM      6  C   UNL d   1      32.893  20.628 -22.652  0.00  0.00     0.023 A 
ATOM      7  C   UNL d   1      32.811  21.639 -23.657  0.00  0.00     0.103 C 
ATOM      8  C   UNL d   1      32.970  19.628 -21.604  0.00  0.00     0.103 C 
ATOM      9  N   UNL d   1      32.939  19.424 -20.783  0.00  0.00    -0.191 NA
ATOM     10  N   UNL d   1      32.700  22.450 -23.873  0.00  0.00    -0.191 NA
ATOM     11  N   UNL d   1      33.081  20.474 -24.819  0.00  0.00    -0.140 N 
ATOM     12  N   UNL d   1      33.240  18.463 -22.765  0.00  0.00    -0.140 N 
ENDROOT
BRANCH   6  13
ATOM     13  C   UNL d   1      32.757  21.211 -22.070  0.00  0.00     0.002 A 
ATOM     14  C   UNL d   1      33.231  21.877 -22.026  0.00  0.00     0.002 A 
ATOM     15  C   UNL d   1      33.099  22.448 -21.456  0.00  0.00     0.024 A 
ATOM     16  C   UNL d   1      32.489  22.368 -20.917  0.00  0.00     0.127 A 
ATOM     17  C   UNL d   1      32.009  21.698 -20.959  0.00  0.00     0.024 A 
ATOM     18  C   UNL d   1      32.142  21.128 -21.528  0.00  0.00     0.002 A 
BRANCH  16  19
ATOM     19  N   UNL d   1      32.357  22.938 -20.348  0.00  0.00    -0.114 N 
ATOM     20  O   UNL d   1      31.993  23.640 -20.555  0.00  0.00    -0.532 OA
ATOM     21  O   UNL d   1      32.586  22.806 -19.581  0.00  0.00    -0.532 OA
ENDBRANCH  16  19
ENDBRANCH   6  13
TORSDOF 2
ENDMDL
