MODEL 1
REMARK VINA RESULT:      -4.9      0.000      0.000
REMARK  0 active torsions:
REMARK  status: ('A' for Active; 'I' for Inactive)
REMARK       I    between atoms: C_2  and  N_1 
REMARK       I    between atoms: N_7  and  C_2 
ROOT
ATOM      1  N   UNL d   1     -41.623-122.639 -52.803  0.00  0.00    -0.241 N 
ATOM      2  C   UNL d   1     -41.908-122.011 -53.294  0.00  0.00     0.341 C 
ATOM      3  C   UNL d   1     -41.559-122.655 -51.996  0.00  0.00     0.087 A 
ATOM      4  C   UNL d   1     -41.359-123.354 -53.095  0.00  0.00     0.186 A 
ATOM      5  N   UNL d   1     -41.129-123.817 -52.456  0.00  0.00    -0.224 NA
ATOM      6  C   UNL d   1     -41.255-123.379 -51.773  0.00  0.00     0.099 A 
ATOM      7  N   UNL d   1     -41.935-122.089 -54.114  0.00  0.00    -0.257 N 
ATOM      8  C   UNL d   1     -41.745-122.088 -51.428  0.00  0.00     0.019 A 
ATOM      9  C   UNL d   1     -41.126-123.559 -50.973  0.00  0.00     0.021 A 
ATOM     10  C   UNL d   1     -41.619-122.261 -50.636  0.00  0.00     0.002 A 
ATOM     11  C   UNL d   1     -41.315-122.983 -50.401  0.00  0.00     0.002 A 
ATOM     12  O   UNL d   1     -42.161-121.311 -52.921  0.00  0.00    -0.245 OA
ATOM     13  C   UNL d   1     -42.211-121.481 -54.574  0.00  0.00     0.085 A 
ATOM     14  C   UNL d   1     -41.678-122.798 -54.470  0.00  0.00     0.085 A 
ATOM     15  C   UNL d   1     -41.811-121.679 -50.071  0.00  0.00     0.000 C 
ATOM     16  C   UNL d   1     -41.192-123.146 -49.586  0.00  0.00     0.000 C 
ATOM     17  C   UNL d   1     -42.238-121.559 -55.395  0.00  0.00     0.019 A 
ATOM     18  C   UNL d   1     -41.705-122.878 -55.299  0.00  0.00     0.019 A 
ATOM     19  C   UNL d   1     -41.990-122.246 -55.752  0.00  0.00     0.003 A 
ENDROOT
TORSDOF 0
ENDMDL
