MODEL 1
REMARK VINA RESULT:      44.2      0.000      0.000
REMARK  8 active torsions:
REMARK  status: ('A' for Active; 'I' for Inactive)
REMARK    1  A    between atoms: C_6  and  N_1 
REMARK    2  A    between atoms: C_7  and  C_2 
REMARK    3  A    between atoms: C_3  and  C_9 
REMARK    4  A    between atoms: O_5  and  C_3 
REMARK    5  A    between atoms: C_4  and  O_5 
REMARK    6  A    between atoms: C_8  and  C_7 
REMARK    7  A    between atoms: C_12  and  C_8 
REMARK    8  A    between atoms: C_10  and  C_12 
ROOT
ATOM      1  C   UNL d   1      46.280 -18.120  43.490  0.00  0.00     0.064 A 
ATOM      2  C   UNL d   1      46.333 -18.545  42.783  0.00  0.00     0.106 A 
ATOM      3  C   UNL d   1      46.268 -18.527  44.217  0.00  0.00     0.035 A 
ATOM      4  C   UNL d   1      46.372 -19.377  42.802  0.00  0.00     0.027 A 
ATOM      5  C   UNL d   1      46.307 -19.351  44.231  0.00  0.00     0.140 A 
ATOM      6  C   UNL d   1      46.359 -19.776  43.524  0.00  0.00     0.032 A 
ATOM      7  F   UNL d   1      46.294 -19.750  44.953  0.00  0.00    -0.204 F 
ENDROOT
BRANCH   2   8
ATOM      8  O   UNL d   1      46.346 -18.148  42.057  0.00  0.00    -0.273 OA
BRANCH   8   9
ATOM      9  C   UNL d   1      46.349 -18.582  41.353  0.00  0.00     0.300 C 
ATOM     10  O   UNL d   1      46.602 -19.365  41.347  0.00  0.00    -0.259 OA
BRANCH   9  11
ATOM     11  C   UNL d   1      46.097 -18.222  40.654  0.00  0.00     0.065 A 
ATOM     12  C   UNL d   1      45.299 -18.051  40.548  0.00  0.00     0.029 A 
ATOM     13  C   UNL d   1      45.042 -17.694  39.856  0.00  0.00     0.127 A 
ATOM     14  C   UNL d   1      45.617 -17.508  39.261  0.00  0.00     0.024 A 
ATOM     15  C   UNL d   1      46.386 -17.675  39.367  0.00  0.00     0.002 A 
ATOM     16  C   UNL d   1      46.645 -18.036  40.067  0.00  0.00     0.005 A 
BRANCH  13  17
ATOM     17  N   UNL d   1      44.236 -17.515  39.733  0.00  0.00    -0.114 N 
ATOM     18  O   UNL d   1      43.668 -17.797  40.251  0.00  0.00    -0.532 OA
ATOM     19  O   UNL d   1      44.020 -17.050  39.086  0.00  0.00    -0.532 OA
ENDBRANCH  13  17
ENDBRANCH   9  11
ENDBRANCH   8   9
ENDBRANCH   2   8
BRANCH   1  20
ATOM     20  C   UNL d   1      46.241 -17.293  43.474  0.00  0.00     0.198 C 
ATOM     21  O   UNL d   1      46.524 -16.879  42.817  0.00  0.00    -0.286 OA
BRANCH  20  22
ATOM     22  C   UNL d   1      45.919 -16.883  44.114  0.00  0.00     0.043 C 
BRANCH  22  23
ATOM     23  C   UNL d   1      46.272 -16.184  44.373  0.00  0.00     0.010 C 
BRANCH  23  24
ATOM     24  C   UNL d   1      45.806 -15.520  44.522  0.00  0.00     0.030 A 
ATOM     25  S   UNL d   1      45.966 -14.742  44.292  0.00  0.00    -0.086 SA
ATOM     26  C   UNL d   1      45.354 -14.256  44.557  0.00  0.00     0.035 A 
ATOM     27  C   UNL d   1      44.808 -14.729  44.955  0.00  0.00     0.007 A 
ATOM     28  C   UNL d   1      45.085 -15.510  44.935  0.00  0.00     0.007 A 
ENDBRANCH  23  24
ENDBRANCH  22  23
ENDBRANCH  20  22
ENDBRANCH   1  20
TORSDOF 8
ENDMDL
MODEL 2
REMARK VINA RESULT:      47.1      0.747      1.047
REMARK  8 active torsions:
REMARK  status: ('A' for Active; 'I' for Inactive)
REMARK    1  A    between atoms: C_6  and  N_1 
REMARK    2  A    between atoms: C_7  and  C_2 
REMARK    3  A    between atoms: C_3  and  C_9 
REMARK    4  A    between atoms: O_5  and  C_3 
REMARK    5  A    between atoms: C_4  and  O_5 
REMARK    6  A    between atoms: C_8  and  C_7 
REMARK    7  A    between atoms: C_12  and  C_8 
REMARK    8  A    between atoms: C_10  and  C_12 
ROOT
ATOM      1  C   UNL d   1      46.476 -18.254  43.372  0.00  0.00     0.064 A 
ATOM      2  C   UNL d   1      46.516 -18.672  42.661  0.00  0.00     0.106 A 
ATOM      3  C   UNL d   1      46.517 -18.665  44.096  0.00  0.00     0.035 A 
ATOM      4  C   UNL d   1      46.596 -19.501  42.671  0.00  0.00     0.027 A 
ATOM      5  C   UNL d   1      46.596 -19.486  44.102  0.00  0.00     0.140 A 
ATOM      6  C   UNL d   1      46.636 -19.904  43.391  0.00  0.00     0.032 A 
ATOM      7  F   UNL d   1      46.635 -19.889  44.821  0.00  0.00    -0.204 F 
ENDROOT
BRANCH   2   8
ATOM      8  O   UNL d   1      46.477 -18.271  41.938  0.00  0.00    -0.273 OA
BRANCH   8   9
ATOM      9  C   UNL d   1      46.234 -18.674  41.258  0.00  0.00     0.300 C 
ATOM     10  O   UNL d   1      46.646 -19.336  40.997  0.00  0.00    -0.259 OA
BRANCH   9  11
ATOM     11  C   UNL d   1      45.573 -18.407  40.843  0.00  0.00     0.065 A 
ATOM     12  C   UNL d   1      45.666 -18.078  40.094  0.00  0.00     0.029 A 
ATOM     13  C   UNL d   1      45.014 -17.811  39.676  0.00  0.00     0.127 A 
ATOM     14  C   UNL d   1      44.249 -17.882  40.035  0.00  0.00     0.024 A 
ATOM     15  C   UNL d   1      44.163 -18.199  40.757  0.00  0.00     0.002 A 
ATOM     16  C   UNL d   1      44.823 -18.469  41.180  0.00  0.00     0.005 A 
BRANCH  13  17
ATOM     17  N   UNL d   1      45.093 -17.475  38.915  0.00  0.00    -0.114 N 
ATOM     18  O   UNL d   1      45.211 -17.957  38.264  0.00  0.00    -0.532 OA
ATOM     19  O   UNL d   1      45.049 -16.655  38.829  0.00  0.00    -0.532 OA
ENDBRANCH  13  17
ENDBRANCH   9  11
ENDBRANCH   8   9
ENDBRANCH   2   8
BRANCH   1  20
ATOM     20  C   UNL d   1      46.397 -17.429  43.365  0.00  0.00     0.198 C 
ATOM     21  O   UNL d   1      46.646 -16.997  42.706  0.00  0.00    -0.286 OA
BRANCH  20  22
ATOM     22  C   UNL d   1      46.069 -17.041  44.015  0.00  0.00     0.043 C 
BRANCH  22  23
ATOM     23  C   UNL d   1      46.321 -16.279  44.207  0.00  0.00     0.010 C 
BRANCH  23  24
ATOM     24  C   UNL d   1      45.774 -15.722  44.476  0.00  0.00     0.030 A 
ATOM     25  S   UNL d   1      45.002 -15.872  44.734  0.00  0.00    -0.086 SA
ATOM     26  C   UNL d   1      44.654 -15.157  44.953  0.00  0.00     0.035 A 
ATOM     27  C   UNL d   1      45.207 -14.556  44.833  0.00  0.00     0.007 A 
ATOM     28  C   UNL d   1      45.899 -14.903  44.539  0.00  0.00     0.007 A 
ENDBRANCH  23  24
ENDBRANCH  22  23
ENDBRANCH  20  22
ENDBRANCH   1  20
TORSDOF 8
ENDMDL
