MODEL 1
REMARK VINA RESULT:      13.5      0.000      0.000
REMARK  0 active torsions:
REMARK  status: ('A' for Active; 'I' for Inactive)
ROOT
ATOM      1  N   UNL d   1     -52.321  25.575  33.314  0.00  0.00    -0.242 NA
ATOM      2  N   UNL d   1     -51.163  24.420  33.312  0.00  0.00    -0.242 NA
ATOM      3  C   UNL d   1     -50.947  25.222  33.311  0.00  0.00     0.101 A 
ATOM      4  C   UNL d   1     -51.520  25.794  33.312  0.00  0.00     0.101 A 
ATOM      5  C   UNL d   1     -50.159  25.426  33.310  0.00  0.00     0.043 A 
ATOM      6  C   UNL d   1     -51.323  26.588  33.311  0.00  0.00     0.043 A 
ATOM      7  C   UNL d   1     -50.529  26.814  33.309  0.00  0.00     0.124 A 
ATOM      8  C   UNL d   1     -49.943  26.229  33.309  0.00  0.00     0.124 A 
ATOM      9  C   UNL d   1     -51.961  24.206  33.314  0.00  0.00     0.099 A 
ATOM     10  C   UNL d   1     -52.534  24.778  33.314  0.00  0.00     0.099 A 
ATOM     11  N   UNL d   1     -50.319  27.595  33.309  0.00  0.00    -0.146 N 
ATOM     12  N   UNL d   1     -49.174  26.433  33.307  0.00  0.00    -0.146 N 
ATOM     13  C   UNL d   1     -53.330  24.563  33.316  0.00  0.00     0.021 A 
ATOM     14  C   UNL d   1     -52.172  23.408  33.314  0.00  0.00     0.021 A 
ATOM     15  C   UNL d   1     -52.974  23.190  33.316  0.00  0.00     0.002 A 
ATOM     16  C   UNL d   1     -53.548  23.762  33.317  0.00  0.00     0.002 A 
ENDROOT
TORSDOF 0
ENDMDL
