MODEL 1
REMARK VINA RESULT:     111.0      0.000      0.000
REMARK  4 active torsions:
REMARK  status: ('A' for Active; 'I' for Inactive)
REMARK    1  A    between atoms: C_7  and  C_1 
REMARK    2  A    between atoms: C_8  and  C_4 
REMARK    3  A    between atoms: O_9  and  C_7 
REMARK    4  A    between atoms: C_16  and  O_9 
ROOT
ATOM      1  C   UNL d   1      59.442  47.818  51.078  0.00  0.00     0.098 A 
ATOM      2  C   UNL d   1      58.980  47.156  51.249  0.00  0.00     0.075 A 
ATOM      3  C   UNL d   1      60.151  46.336  51.234  0.00  0.00     0.354 A 
ATOM      4  C   UNL d   1      60.245  47.721  50.990  0.00  0.00     0.093 A 
ATOM      5  N   UNL d   1      59.322  46.397  51.332  0.00  0.00    -0.256 N 
ATOM      6  N   UNL d   1      60.613  46.998  51.063  0.00  0.00    -0.192 NA
ATOM      7  O   UNL d   1      60.498  45.574  51.317  0.00  0.00    -0.244 OA
ATOM      8  C   UNL d   1      58.151  47.217  51.347  0.00  0.00     0.019 C 
ATOM      9  C   UNL d   1      58.861  45.735  51.503  0.00  0.00     0.104 C 
ENDROOT
BRANCH   1  10
ATOM     10  C   UNL d   1      59.074  48.541  51.005  0.00  0.00     0.303 C 
ATOM     11  O   UNL d   1      58.989  49.011  51.678  0.00  0.00    -0.259 OA
BRANCH  10  12
ATOM     12  O   UNL d   1      58.788  48.821  50.295  0.00  0.00    -0.273 OA
BRANCH  12  13
ATOM     13  C   UNL d   1      58.022  49.080  50.200  0.00  0.00     0.103 A 
ATOM     14  C   UNL d   1      57.598  49.314  50.869  0.00  0.00     0.025 A 
ATOM     15  C   UNL d   1      56.807  49.601  50.923  0.00  0.00     0.002 A 
ATOM     16  C   UNL d   1      56.287  49.707  50.307  0.00  0.00     0.000 A 
ATOM     17  C   UNL d   1      56.366  49.579  49.513  0.00  0.00     0.000 A 
ATOM     18  C   UNL d   1      57.049  49.286  49.104  0.00  0.00     0.002 A 
ATOM     19  C   UNL d   1      57.758  49.075  49.423  0.00  0.00     0.025 A 
ENDBRANCH  12  13
ENDBRANCH  10  12
ENDBRANCH   1  10
BRANCH   4  20
ATOM     20  C   UNL d   1      60.707  48.383  50.818  0.00  0.00     0.023 A 
ATOM     21  C   UNL d   1      61.052  48.842  51.427  0.00  0.00     0.032 A 
ATOM     22  I   UNL d   1      60.909  48.604  52.217  0.00  0.00    -0.043 I 
ATOM     23  C   UNL d   1      61.513  49.504  51.256  0.00  0.00     0.006 A 
ATOM     24  C   UNL d   1      61.631  49.708  50.481  0.00  0.00     0.000 A 
ATOM     25  C   UNL d   1      61.304  49.274  49.865  0.00  0.00     0.000 A 
ATOM     26  C   UNL d   1      60.843  48.612  50.037  0.00  0.00     0.002 A 
ENDBRANCH   4  20
TORSDOF 4
ENDMDL
