MODEL 1
REMARK VINA RESULT:      22.6      0.000      0.000
REMARK  3 active torsions:
REMARK  status: ('A' for Active; 'I' for Inactive)
REMARK    1  A    between atoms: C_7  and  C_1 
REMARK    2  A    between atoms: O_14  and  C_7 
REMARK    3  A    between atoms: C_17  and  O_14 
ROOT
ATOM      1  C   UNL d   1     -50.490  26.080  33.311  0.00  0.00     0.127 A 
ATOM      2  C   UNL d   1     -49.779  25.673  33.310  0.00  0.00     0.305 A 
ATOM      3  C   UNL d   1     -51.200  25.662  33.310  0.00  0.00     0.013 A 
ATOM      4  C   UNL d   1     -51.201  24.837  33.309  0.00  0.00     0.023 A 
ATOM      5  O   UNL d   1     -49.780  24.849  33.308  0.00  0.00    -0.273 OA
ATOM      6  C   UNL d   1     -50.490  24.430  33.308  0.00  0.00     0.103 A 
ATOM      7  C   UNL d   1     -51.904  24.433  33.308  0.00  0.00     0.002 A 
ATOM      8  O   UNL d   1     -49.060  26.108  33.311  0.00  0.00    -0.259 OA
ATOM      9  C   UNL d   1     -50.483  23.620  33.306  0.00  0.00     0.025 A 
ATOM     10  C   UNL d   1     -51.904  23.608  33.307  0.00  0.00     0.000 A 
ATOM     11  C   UNL d   1     -51.193  23.201  33.306  0.00  0.00     0.002 A 
ATOM     12  C   UNL d   1     -52.622  24.844  33.309  0.00  0.00     0.000 A 
ATOM     13  C   UNL d   1     -52.615  23.190  33.306  0.00  0.00     0.000 A 
ATOM     14  C   UNL d   1     -53.338  24.443  33.309  0.00  0.00     0.000 A 
ATOM     15  C   UNL d   1     -53.337  23.603  33.307  0.00  0.00     0.000 A 
ENDROOT
BRANCH   1  16
ATOM     16  C   UNL d   1     -50.500  26.931  33.313  0.00  0.00     0.305 C 
ATOM     17  O   UNL d   1     -51.210  27.337  33.320  0.00  0.00    -0.259 OA
BRANCH  16  18
ATOM     18  O   UNL d   1     -49.797  27.334  33.307  0.00  0.00    -0.271 OA
BRANCH  18  19
ATOM     19  C   UNL d   1     -49.763  28.104  33.602  0.00  0.00     0.126 C 
ATOM     20  C   UNL d   1     -49.058  28.418  34.029  0.00  0.00     0.029 C 
ENDBRANCH  18  19
ENDBRANCH  16  18
ENDBRANCH   1  16
TORSDOF 3
ENDMDL
