MODEL 1
REMARK VINA RESULT:      32.1      0.000      0.000
REMARK  3 active torsions:
REMARK  status: ('A' for Active; 'I' for Inactive)
REMARK       I    between atoms: N_2  and  C_1 
REMARK       I    between atoms: N_5  and  C_1 
REMARK       I    between atoms: C_4  and  N_3 
REMARK    1  A    between atoms: O_14  and  C_4 
REMARK    2  A    between atoms: C_12  and  N_5 
REMARK    3  A    between atoms: C_20  and  O_14 
ROOT
ATOM      1  C   UNL d   1     -50.646  23.958  33.531  0.00  0.00     0.354 C 
ATOM      2  N   UNL d   1     -50.775  24.779  33.547  0.00  0.00    -0.253 N 
ATOM      3  N   UNL d   1     -50.999  26.390  33.579  0.00  0.00    -0.249 N 
ATOM      4  C   UNL d   1     -51.108  27.231  33.596  0.00  0.00     0.378 C 
ATOM      5  N   UNL d   1     -51.307  23.434  33.488  0.00  0.00    -0.192 NA
ATOM      6  O   UNL d   1     -49.883  23.626  33.557  0.00  0.00    -0.244 OA
ATOM      7  C   UNL d   1     -51.542  25.101  33.521  0.00  0.00     0.104 A 
ATOM      8  C   UNL d   1     -50.130  25.272  33.589  0.00  0.00     0.104 A 
ATOM      9  C   UNL d   1     -50.248  26.096  33.605  0.00  0.00     0.104 A 
ATOM     10  C   UNL d   1     -51.636  25.912  33.538  0.00  0.00     0.104 A 
ATOM     11  O   UNL d   1     -51.848  27.568  33.572  0.00  0.00    -0.237 OA
ENDROOT
BRANCH   5  12
ATOM     12  C   UNL d   1     -52.047  23.732  33.463  0.00  0.00     0.087 A 
ATOM     13  C   UNL d   1     -52.192  24.539  33.406  0.00  0.00     0.031 A 
ATOM     14  C   UNL d   1     -52.941  24.823  33.382  0.00  0.00     0.059 A 
ATOM     15 CL   UNL d   1     -53.051  25.653  33.324  0.00  0.00    -0.082 Cl
ATOM     16  C   UNL d   1     -53.587  24.311  33.413  0.00  0.00     0.011 A 
ATOM     17  C   UNL d   1     -53.448  23.496  33.470  0.00  0.00     0.002 A 
ATOM     18  C   UNL d   1     -52.699  23.212  33.494  0.00  0.00     0.019 A 
ENDBRANCH   5  12
BRANCH   4  19
ATOM     19  O   UNL d   1     -50.444  27.722  33.639  0.00  0.00    -0.257 OA
BRANCH  19  20
ATOM     20  C   UNL d   1     -50.513  28.516  33.461  0.00  0.00     0.128 C 
ATOM     21  C   UNL d   1     -49.884  29.032  33.596  0.00  0.00     0.029 C 
ENDBRANCH  19  20
ENDBRANCH   4  19
TORSDOF 3
ENDMDL
