MODEL 1
REMARK VINA RESULT:      34.7      0.000      0.000
REMARK  5 active torsions:
REMARK  status: ('A' for Active; 'I' for Inactive)
REMARK    1  A    between atoms: N_2  and  C_1 
REMARK    2  A    between atoms: C_8  and  C_5 
REMARK    3  A    between atoms: C_6  and  C_9 
REMARK       I    between atoms: N_12  and  C_6 
REMARK    4  A    between atoms: C_9  and  C_8 
REMARK    5  A    between atoms: C_13  and  N_12 
ROOT
ATOM      1  C   UNL d   1     -54.850-101.472 -41.404  0.00  0.00     0.279 C 
ATOM      2  N   UNL d   1     -54.726-101.132 -40.668  0.00  0.00    -0.208 NA
ATOM      3  O   UNL d   1     -55.031-102.292 -41.471  0.00  0.00    -0.265 OA
ENDROOT
BRANCH   1   4
ATOM      4  C   UNL d   1     -54.797-101.013 -42.088  0.00  0.00     0.063 C 
BRANCH   4   5
ATOM      5  C   UNL d   1     -54.762-101.400 -42.828  0.00  0.00     0.011 C 
BRANCH   5   6
ATOM      6  C   UNL d   1     -54.953-100.966 -43.517  0.00  0.00     0.031 A 
ATOM      7  S   UNL d   1     -55.028-100.160 -43.659  0.00  0.00    -0.064 SA
ATOM      8  C   UNL d   1     -55.224-100.079 -44.436  0.00  0.00     0.156 A 
ATOM      9  C   UNL d   1     -55.274-100.824 -44.787  0.00  0.00     0.031 A 
ATOM     10  C   UNL d   1     -55.109-101.380 -44.230  0.00  0.00     0.009 A 
BRANCH   8  11
ATOM     11  N   UNL d   1     -55.358 -99.352 -44.832  0.00  0.00    -0.107 N 
ATOM     12  O   UNL d   1     -56.117 -99.072 -44.923  0.00  0.00    -0.531 OA
ATOM     13  O   UNL d   1     -54.712 -98.921 -45.130  0.00  0.00    -0.531 OA
ENDBRANCH   8  11
ENDBRANCH   5   6
ENDBRANCH   4   5
ENDBRANCH   1   4
BRANCH   2  14
ATOM     14  C   UNL d   1     -54.779-101.586 -39.991  0.00  0.00     0.085 A 
ATOM     15  C   UNL d   1     -54.894-101.232 -39.256  0.00  0.00     0.019 A 
ATOM     16  C   UNL d   1     -54.946-101.685 -38.582  0.00  0.00     0.002 A 
ATOM     17  C   UNL d   1     -55.064-101.308 -37.836  0.00  0.00     0.000 C 
ATOM     18  C   UNL d   1     -54.885-102.504 -38.624  0.00  0.00     0.000 A 
ATOM     19  C   UNL d   1     -54.769-102.862 -39.358  0.00  0.00     0.002 A 
ATOM     20  C   UNL d   1     -54.717-102.409 -40.032  0.00  0.00     0.019 A 
ENDBRANCH   2  14
TORSDOF 5
ENDMDL
