MODEL 1
REMARK VINA RESULT:      16.7      0.000      0.000
REMARK  4 active torsions:
REMARK  status: ('A' for Active; 'I' for Inactive)
REMARK    1  A    between atoms: C_3  and  C_1 
REMARK    2  A    between atoms: N_2  and  C_9 
REMARK    3  A    between atoms: N_6  and  C_3 
REMARK    4  A    between atoms: C_10  and  C_5 
ROOT
ATOM      1  C   UNL d   1      45.937 -16.857  44.483  0.00  0.00     0.126 A 
ATOM      2  O   UNL d   1      46.271 -16.128  44.263  0.00  0.00    -0.305 OA
ATOM      3  C   UNL d   1      45.764 -15.541  44.536  0.00  0.00     0.100 A 
ATOM      4  C   UNL d   1      45.257 -16.695  44.870  0.00  0.00     0.029 A 
ATOM      5  C   UNL d   1      45.141 -15.903  44.909  0.00  0.00     0.027 A 
ENDROOT
BRANCH   3   6
ATOM      6  C   UNL d   1      45.794 -14.713  44.489  0.00  0.00     0.024 A 
ATOM      7  C   UNL d   1      45.289 -14.311  43.952  0.00  0.00     0.025 A 
ATOM      8  C   UNL d   1      45.320 -13.483  43.905  0.00  0.00     0.127 A 
ATOM      9  C   UNL d   1      45.846 -13.058  44.385  0.00  0.00     0.024 A 
ATOM     10  C   UNL d   1      46.335 -13.460  44.905  0.00  0.00     0.002 A 
ATOM     11  C   UNL d   1      46.305 -14.283  44.953  0.00  0.00     0.002 A 
BRANCH   8  12
ATOM     12  N   UNL d   1      44.830 -13.092  43.384  0.00  0.00    -0.114 N 
ATOM     13  O   UNL d   1      45.106 -12.587  42.782  0.00  0.00    -0.532 OA
ATOM     14  O   UNL d   1      44.017 -13.143  43.384  0.00  0.00    -0.532 OA
ENDBRANCH   8  12
ENDBRANCH   3   6
BRANCH   1  15
ATOM     15  C   UNL d   1      46.223 -17.630  44.345  0.00  0.00     0.143 C 
ATOM     16  S   UNL d   1      46.506 -18.094  44.954  0.00  0.00    -0.057 SA
BRANCH  15  17
ATOM     17  N   UNL d   1      46.228 -17.951  43.580  0.00  0.00    -0.290 N 
ATOM     18  C   UNL d   1      46.636 -18.639  43.461  0.00  0.00     0.108 A 
ATOM     19  C   UNL d   1      46.637 -18.954  42.694  0.00  0.00     0.142 A 
ATOM     20  O   UNL d   1      46.252 -18.592  42.101  0.00  0.00    -0.300 OA
ATOM     21  C   UNL d   1      45.848 -17.918  42.201  0.00  0.00     0.142 A 
ATOM     22  C   UNL d   1      45.834 -17.576  42.982  0.00  0.00     0.108 A 
ENDBRANCH  15  17
ENDBRANCH   1  15
TORSDOF 4
ENDMDL
