MODEL 1
REMARK VINA RESULT:      37.3      0.000      0.000
REMARK  4 active torsions:
REMARK  status: ('A' for Active; 'I' for Inactive)
REMARK    1  A    between atoms: C_7  and  C_1 
REMARK    2  A    between atoms: N_8  and  C_7 
REMARK    3  A    between atoms: C_11  and  N_8 
REMARK    4  A    between atoms: O_13  and  C_12 
ROOT
ATOM      1  C   UNL d   1     -56.525 -98.943 -44.188  0.00  0.00     0.145 A 
ATOM      2  C   UNL d   1     -56.996 -98.997 -44.858  0.00  0.00     0.305 A 
ATOM      3  C   UNL d   1     -56.875 -98.850 -43.441  0.00  0.00     0.305 A 
ATOM      4  O   UNL d   1     -57.692 -98.811 -43.374  0.00  0.00    -0.269 OA
ATOM      5  O   UNL d   1     -57.808 -98.957 -44.788  0.00  0.00    -0.269 OA
ATOM      6  C   UNL d   1     -58.158 -98.864 -44.041  0.00  0.00     0.242 A 
ATOM      7  O   UNL d   1     -56.391 -98.795 -42.747  0.00  0.00    -0.259 OA
ATOM      8  O   UNL d   1     -56.644 -99.090 -45.609  0.00  0.00    -0.259 OA
ATOM      9  C   UNL d   1     -58.677 -98.777 -43.416  0.00  0.00     0.035 A 
ATOM     10  C   UNL d   1     -58.474 -98.933 -44.799  0.00  0.00     0.035 A 
ATOM     11  C   UNL d   1     -59.276 -98.913 -44.912  0.00  0.00     0.001 A 
ATOM     12  C   UNL d   1     -59.497 -98.759 -43.543  0.00  0.00     0.001 A 
ATOM     13  C   UNL d   1     -59.784 -98.829 -44.308  0.00  0.00    -0.000 A 
ENDROOT
BRANCH   1  14
ATOM     14  C   UNL d   1     -55.699 -98.986 -44.289  0.00  0.00     0.110 C 
BRANCH  14  15
ATOM     15  N   UNL d   1     -55.277 -99.581 -43.887  0.00  0.00    -0.242 NA
BRANCH  15  16
ATOM     16  C   UNL d   1     -55.092-100.285 -44.285  0.00  0.00     0.104 A 
ATOM     17  C   UNL d   1     -54.980-100.983 -43.856  0.00  0.00     0.112 A 
ATOM     18  C   UNL d   1     -54.795-101.687 -44.249  0.00  0.00     0.026 A 
ATOM     19  C   UNL d   1     -54.718-101.710 -45.080  0.00  0.00     0.002 A 
ATOM     20  C   UNL d   1     -54.837-100.989 -45.488  0.00  0.00     0.002 A 
ATOM     21  C   UNL d   1     -55.020-100.290 -45.101  0.00  0.00     0.021 A 
BRANCH  17  22
ATOM     22  O   UNL d   1     -55.053-100.976 -43.024  0.00  0.00    -0.327 OA
ATOM     23  C   UNL d   1     -54.714-101.563 -42.586  0.00  0.00     0.181 C 
ENDBRANCH  17  22
ENDBRANCH  15  16
ENDBRANCH  14  15
ENDBRANCH   1  14
TORSDOF 4
ENDMDL
