MODEL 1
REMARK VINA RESULT:      -7.2      0.000      0.000
REMARK  4 active torsions:
REMARK  status: ('A' for Active; 'I' for Inactive)
REMARK    1  A    between atoms: C_2  and  C_1 
REMARK    2  A    between atoms: C_13  and  N_5 
REMARK    3  A    between atoms: C_16  and  C_13 
REMARK    4  A    between atoms: C_17  and  C_16 
ROOT
ATOM      1  C   UNL d   1     -47.619  12.993  23.022  0.00  0.00     0.112 A 
ATOM      2  C   UNL d   1     -47.550  12.210  23.265  0.00  0.00     0.176 A 
ATOM      3  N   UNL d   1     -46.747  12.053  23.406  0.00  0.00    -0.285 N 
ATOM      4  C   UNL d   1     -46.858  13.319  23.013  0.00  0.00     0.219 A 
ATOM      5  C   UNL d   1     -46.328  12.740  23.249  0.00  0.00     0.124 A 
ATOM      6  O   UNL d   1     -46.663  14.101  22.801  0.00  0.00    -0.285 OA
ATOM      7  N   UNL d   1     -48.181  11.674  23.352  0.00  0.00    -0.128 N 
ENDROOT
BRANCH   1   8
ATOM      8  C   UNL d   1     -48.334  13.360  22.828  0.00  0.00     0.169 A 
ATOM      9  N   UNL d   1     -48.782  13.302  22.137  0.00  0.00    -0.225 NA
ATOM     10  C   UNL d   1     -49.446  13.777  22.222  0.00  0.00     0.101 A 
ATOM     11  C   UNL d   1     -50.079  13.933  21.718  0.00  0.00     0.021 A 
ATOM     12  C   UNL d   1     -49.412  14.132  22.967  0.00  0.00     0.101 A 
ATOM     13  C   UNL d   1     -50.685  14.449  21.957  0.00  0.00     0.002 A 
ATOM     14  C   UNL d   1     -50.651  14.804  22.702  0.00  0.00     0.002 A 
ATOM     15  C   UNL d   1     -50.011  14.644  23.208  0.00  0.00     0.021 A 
ATOM     16  N   UNL d   1     -48.728  13.874  23.336  0.00  0.00    -0.225 NA
ENDBRANCH   1   8
BRANCH   3  17
ATOM     17  C   UNL d   1     -46.431  11.329  23.660  0.00  0.00     0.082 C 
BRANCH  17  18
ATOM     18  C   UNL d   1     -45.640  11.177  23.549  0.00  0.00     0.019 C 
BRANCH  18  19
ATOM     19  C   UNL d   1     -45.341  10.422  23.697  0.00  0.00     0.002 C 
ATOM     20  C   UNL d   1     -44.532  10.297  23.687  0.00  0.00     0.000 C 
ENDBRANCH  18  19
ENDBRANCH  17  18
ENDBRANCH   3  17
TORSDOF 4
ENDMDL
MODEL 2
REMARK VINA RESULT:      -6.5      1.477      1.942
REMARK  4 active torsions:
REMARK  status: ('A' for Active; 'I' for Inactive)
REMARK    1  A    between atoms: C_2  and  C_1 
REMARK    2  A    between atoms: C_13  and  N_5 
REMARK    3  A    between atoms: C_16  and  C_13 
REMARK    4  A    between atoms: C_17  and  C_16 
ROOT
ATOM      1  C   UNL d   1     -47.826  13.628  22.890  0.00  0.00     0.112 A 
ATOM      2  C   UNL d   1     -47.126  13.996  22.664  0.00  0.00     0.176 A 
ATOM      3  N   UNL d   1     -46.517  13.433  22.688  0.00  0.00    -0.285 N 
ATOM      4  C   UNL d   1     -47.648  12.835  23.054  0.00  0.00     0.219 A 
ATOM      5  C   UNL d   1     -46.847  12.721  22.929  0.00  0.00     0.124 A 
ATOM      6  O   UNL d   1     -48.191  12.254  23.303  0.00  0.00    -0.285 OA
ATOM      7  N   UNL d   1     -47.049  14.797  22.450  0.00  0.00    -0.128 N 
ENDROOT
BRANCH   1   8
ATOM      8  C   UNL d   1     -48.559  14.007  22.936  0.00  0.00     0.169 A 
ATOM      9  N   UNL d   1     -48.873  14.469  23.545  0.00  0.00    -0.225 NA
ATOM     10  C   UNL d   1     -49.621  14.716  23.319  0.00  0.00     0.101 A 
ATOM     11  C   UNL d   1     -50.185  15.182  23.698  0.00  0.00     0.021 A 
ATOM     12  C   UNL d   1     -49.776  14.409  22.567  0.00  0.00     0.101 A 
ATOM     13  C   UNL d   1     -50.910  15.345  23.326  0.00  0.00     0.002 A 
ATOM     14  C   UNL d   1     -51.064  15.037  22.575  0.00  0.00     0.002 A 
ATOM     15  C   UNL d   1     -50.494  14.568  22.196  0.00  0.00     0.021 A 
ATOM     16  N   UNL d   1     -49.121  13.974  22.336  0.00  0.00    -0.225 NA
ENDBRANCH   1   8
BRANCH   3  17
ATOM     17  C   UNL d   1     -45.720  13.570  22.501  0.00  0.00     0.082 C 
BRANCH  17  18
ATOM     18  C   UNL d   1     -45.273  12.965  22.191  0.00  0.00     0.019 C 
BRANCH  18  19
ATOM     19  C   UNL d   1     -44.552  13.132  21.826  0.00  0.00     0.002 C 
ATOM     20  C   UNL d   1     -43.959  12.568  21.821  0.00  0.00     0.000 C 
ENDBRANCH  18  19
ENDBRANCH  17  18
ENDBRANCH   3  17
TORSDOF 4
ENDMDL
MODEL 3
REMARK VINA RESULT:      -5.7      0.758      4.619
REMARK  4 active torsions:
REMARK  status: ('A' for Active; 'I' for Inactive)
REMARK    1  A    between atoms: C_2  and  C_1 
REMARK    2  A    between atoms: C_13  and  N_5 
REMARK    3  A    between atoms: C_16  and  C_13 
REMARK    4  A    between atoms: C_17  and  C_16 
ROOT
ATOM      1  C   UNL d   1     -46.687  12.759  23.156  0.00  0.00     0.112 A 
ATOM      2  C   UNL d   1     -47.484  12.620  23.003  0.00  0.00     0.176 A 
ATOM      3  N   UNL d   1     -47.874  13.353  22.979  0.00  0.00    -0.285 N 
ATOM      4  C   UNL d   1     -46.586  13.578  23.225  0.00  0.00     0.219 A 
ATOM      5  C   UNL d   1     -47.314  13.937  23.116  0.00  0.00     0.124 A 
ATOM      6  O   UNL d   1     -45.867  13.970  23.379  0.00  0.00    -0.285 OA
ATOM      7  N   UNL d   1     -47.832  11.872  22.894  0.00  0.00    -0.128 N 
ENDROOT
BRANCH   1   8
ATOM      8  C   UNL d   1     -46.115  12.166  23.222  0.00  0.00     0.169 A 
ATOM      9  N   UNL d   1     -46.181  11.408  23.544  0.00  0.00    -0.225 NA
ATOM     10  C   UNL d   1     -45.452  11.038  23.475  0.00  0.00     0.101 A 
ATOM     11  C   UNL d   1     -45.193  10.288  23.697  0.00  0.00     0.021 A 
ATOM     12  C   UNL d   1     -44.931  11.564  23.110  0.00  0.00     0.101 A 
ATOM     13  C   UNL d   1     -44.407  10.059  23.555  0.00  0.00     0.002 A 
ATOM     14  C   UNL d   1     -43.886  10.585  23.189  0.00  0.00     0.002 A 
ATOM     15  C   UNL d   1     -44.151  11.341  22.966  0.00  0.00     0.021 A 
ATOM     16  N   UNL d   1     -45.341  12.256  22.956  0.00  0.00    -0.225 NA
ENDBRANCH   1   8
BRANCH   3  17
ATOM     17  C   UNL d   1     -48.684  13.468  22.840  0.00  0.00     0.082 C 
BRANCH  17  18
ATOM     18  C   UNL d   1     -48.970  14.224  22.745  0.00  0.00     0.019 C 
BRANCH  18  19
ATOM     19  C   UNL d   1     -49.777  14.372  22.832  0.00  0.00     0.002 C 
ATOM     20  C   UNL d   1     -50.059  15.137  22.762  0.00  0.00     0.000 C 
ENDBRANCH  18  19
ENDBRANCH  17  18
ENDBRANCH   3  17
TORSDOF 4
ENDMDL
MODEL 4
REMARK VINA RESULT:      -5.2      8.185      8.965
REMARK  4 active torsions:
REMARK  status: ('A' for Active; 'I' for Inactive)
REMARK    1  A    between atoms: C_2  and  C_1 
REMARK    2  A    between atoms: C_13  and  N_5 
REMARK    3  A    between atoms: C_16  and  C_13 
REMARK    4  A    between atoms: C_17  and  C_16 
ROOT
ATOM      1  C   UNL d   1     -40.066  14.476  20.300  0.00  0.00     0.112 A 
ATOM      2  C   UNL d   1     -39.326  14.507  20.658  0.00  0.00     0.176 A 
ATOM      3  N   UNL d   1     -39.415  14.294  21.455  0.00  0.00    -0.285 N 
ATOM      4  C   UNL d   1     -40.613  14.244  20.877  0.00  0.00     0.219 A 
ATOM      5  C   UNL d   1     -40.210  14.134  21.582  0.00  0.00     0.124 A 
ATOM      6  O   UNL d   1     -41.432  14.140  20.762  0.00  0.00    -0.285 OA
ATOM      7  N   UNL d   1     -38.615  14.716  20.279  0.00  0.00    -0.128 N 
ENDROOT
BRANCH   1   8
ATOM      8  C   UNL d   1     -40.207  14.650  19.504  0.00  0.00     0.169 A 
ATOM      9  N   UNL d   1     -40.109  14.173  18.837  0.00  0.00    -0.225 NA
ATOM     10  C   UNL d   1     -40.327  14.608  18.177  0.00  0.00     0.101 A 
ATOM     11  C   UNL d   1     -40.343  14.420  17.375  0.00  0.00     0.021 A 
ATOM     12  C   UNL d   1     -40.562  15.358  18.431  0.00  0.00     0.101 A 
ATOM     13  C   UNL d   1     -40.595  14.984  16.819  0.00  0.00     0.002 A 
ATOM     14  C   UNL d   1     -40.830  15.734  17.073  0.00  0.00     0.002 A 
ATOM     15  C   UNL d   1     -40.813  15.920  17.883  0.00  0.00     0.021 A 
ATOM     16  N   UNL d   1     -40.487  15.380  19.246  0.00  0.00    -0.225 NA
ENDBRANCH   1   8
BRANCH   3  17
ATOM     17  C   UNL d   1     -38.807  14.253  22.018  0.00  0.00     0.082 C 
BRANCH  17  18
ATOM     18  C   UNL d   1     -38.847  13.696  22.610  0.00  0.00     0.019 C 
BRANCH  18  19
ATOM     19  C   UNL d   1     -38.305  13.717  23.232  0.00  0.00     0.002 C 
ATOM     20  C   UNL d   1     -38.196  13.053  23.697  0.00  0.00     0.000 C 
ENDBRANCH  18  19
ENDBRANCH  17  18
ENDBRANCH   3  17
TORSDOF 4
ENDMDL
MODEL 5
REMARK VINA RESULT:      -5.1      9.102     10.580
REMARK  4 active torsions:
REMARK  status: ('A' for Active; 'I' for Inactive)
REMARK    1  A    between atoms: C_2  and  C_1 
REMARK    2  A    between atoms: C_13  and  N_5 
REMARK    3  A    between atoms: C_16  and  C_13 
REMARK    4  A    between atoms: C_17  and  C_16 
ROOT
ATOM      1  C   UNL d   1     -39.503  14.410  18.370  0.00  0.00     0.112 A 
ATOM      2  C   UNL d   1     -39.110  14.614  19.064  0.00  0.00     0.176 A 
ATOM      3  N   UNL d   1     -39.647  14.554  19.693  0.00  0.00    -0.285 N 
ATOM      4  C   UNL d   1     -40.284  14.224  18.572  0.00  0.00     0.219 A 
ATOM      5  C   UNL d   1     -40.368  14.313  19.383  0.00  0.00     0.124 A 
ATOM      6  O   UNL d   1     -40.883  13.986  18.043  0.00  0.00    -0.285 OA
ATOM      7  N   UNL d   1     -38.311  14.841  19.117  0.00  0.00    -0.128 N 
ENDROOT
BRANCH   1   8
ATOM      8  C   UNL d   1     -39.154  14.403  17.621  0.00  0.00     0.169 A 
ATOM      9  N   UNL d   1     -39.028  15.027  17.095  0.00  0.00    -0.225 NA
ATOM     10  C   UNL d   1     -38.660  14.727  16.425  0.00  0.00     0.101 A 
ATOM     11  C   UNL d   1     -38.406  15.087  15.729  0.00  0.00     0.021 A 
ATOM     12  C   UNL d   1     -38.556  13.915  16.533  0.00  0.00     0.101 A 
ATOM     13  C   UNL d   1     -38.044  14.635  15.134  0.00  0.00     0.002 A 
ATOM     14  C   UNL d   1     -37.940  13.822  15.242  0.00  0.00     0.002 A 
ATOM     15  C   UNL d   1     -38.198  13.463  15.945  0.00  0.00     0.021 A 
ATOM     16  N   UNL d   1     -38.860  13.719  17.268  0.00  0.00    -0.225 NA
ENDBRANCH   1   8
BRANCH   3  17
ATOM     17  C   UNL d   1     -39.481  14.710  20.491  0.00  0.00     0.082 C 
BRANCH  17  18
ATOM     18  C   UNL d   1     -39.649  14.146  21.052  0.00  0.00     0.019 C 
BRANCH  18  19
ATOM     19  C   UNL d   1     -39.540  14.316  21.852  0.00  0.00     0.002 C 
ATOM     20  C   UNL d   1     -39.300  13.724  22.364  0.00  0.00     0.000 C 
ENDBRANCH  18  19
ENDBRANCH  17  18
ENDBRANCH   3  17
TORSDOF 4
ENDMDL
MODEL 6
REMARK VINA RESULT:      -5.1      1.388      4.545
REMARK  4 active torsions:
REMARK  status: ('A' for Active; 'I' for Inactive)
REMARK    1  A    between atoms: C_2  and  C_1 
REMARK    2  A    between atoms: C_13  and  N_5 
REMARK    3  A    between atoms: C_16  and  C_13 
REMARK    4  A    between atoms: C_17  and  C_16 
ROOT
ATOM      1  C   UNL d   1     -47.609  13.448  22.675  0.00  0.00     0.112 A 
ATOM      2  C   UNL d   1     -47.825  14.220  22.861  0.00  0.00     0.176 A 
ATOM      3  N   UNL d   1     -48.650  14.245  22.946  0.00  0.00    -0.285 N 
ATOM      4  C   UNL d   1     -48.302  12.996  22.645  0.00  0.00     0.219 A 
ATOM      5  C   UNL d   1     -48.937  13.488  22.812  0.00  0.00     0.124 A 
ATOM      6  O   UNL d   1     -48.348  12.181  22.475  0.00  0.00    -0.285 OA
ATOM      7  N   UNL d   1     -47.300  14.860  22.948  0.00  0.00    -0.128 N 
ENDROOT
BRANCH   1   8
ATOM      8  C   UNL d   1     -46.832  13.199  22.546  0.00  0.00     0.169 A 
ATOM      9  N   UNL d   1     -46.299  13.427  21.957  0.00  0.00    -0.225 NA
ATOM     10  C   UNL d   1     -45.598  13.017  22.074  0.00  0.00     0.101 A 
ATOM     11  C   UNL d   1     -44.883  13.020  21.664  0.00  0.00     0.021 A 
ATOM     12  C   UNL d   1     -45.692  12.532  22.737  0.00  0.00     0.101 A 
ATOM     13  C   UNL d   1     -44.256  12.537  21.915  0.00  0.00     0.002 A 
ATOM     14  C   UNL d   1     -44.350  12.052  22.577  0.00  0.00     0.002 A 
ATOM     15  C   UNL d   1     -45.072  12.051  22.989  0.00  0.00     0.021 A 
ATOM     16  N   UNL d   1     -46.451  12.647  23.024  0.00  0.00    -0.225 NA
ENDBRANCH   1   8
BRANCH   3  17
ATOM     17  C   UNL d   1     -49.099  14.917  23.134  0.00  0.00     0.082 C 
BRANCH  17  18
ATOM     18  C   UNL d   1     -49.911  14.880  23.088  0.00  0.00     0.019 C 
BRANCH  18  19
ATOM     19  C   UNL d   1     -50.362  15.555  23.238  0.00  0.00     0.002 C 
ATOM     20  C   UNL d   1     -51.064  15.490  23.653  0.00  0.00     0.000 C 
ENDBRANCH  18  19
ENDBRANCH  17  18
ENDBRANCH   3  17
TORSDOF 4
ENDMDL
