MODEL 1
REMARK VINA RESULT:      -3.2      0.000      0.000
REMARK  4 active torsions:
REMARK  status: ('A' for Active; 'I' for Inactive)
REMARK    1  A    between atoms: S_2  and  N_1 
REMARK    2  A    between atoms: C_7  and  S_2 
REMARK    3  A    between atoms: S_8  and  C_5 
REMARK    4  A    between atoms: C_16  and  S_8 
ROOT
ATOM      1  N   UNL d   1      30.959  16.080 -23.799  0.00  0.00    -0.151 N 
ATOM      2  C   UNL d   1      31.371  16.731 -24.086  0.00  0.00     0.102 A 
ATOM      3  N   UNL d   1      31.512  15.567 -23.469  0.00  0.00    -0.155 NA
ATOM      4  C   UNL d   1      32.171  16.626 -23.937  0.00  0.00     0.067 A 
ATOM      5  C   UNL d   1      32.256  15.899 -23.552  0.00  0.00     0.110 A 
ATOM      6  C   UNL d   1      31.040  17.400 -24.471  0.00  0.00     0.022 C 
ATOM      7  C   UNL d   1      32.967  15.568 -23.296  0.00  0.00     0.023 C 
ENDROOT
BRANCH   1   8
ATOM      8  S   UNL d   1      30.150  15.955 -23.831  0.00  0.00     0.292 S 
ATOM      9  O   UNL d   1      30.099  16.106 -23.020  0.00  0.00    -0.198 OA
ATOM     10  O   UNL d   1      30.198  15.806 -24.631  0.00  0.00    -0.198 OA
BRANCH   8  11
ATOM     11  C   UNL d   1      29.332  15.830 -23.854  0.00  0.00     0.135 A 
ATOM     12  S   UNL d   1      28.917  15.454 -24.449  0.00  0.00    -0.073 SA
ATOM     13  C   UNL d   1      28.118  15.454 -24.244  0.00  0.00     0.036 A 
ATOM     14  C   UNL d   1      28.039  15.833 -23.516  0.00  0.00     0.008 A 
ATOM     15  C   UNL d   1      28.795  16.068 -23.271  0.00  0.00     0.020 A 
ENDBRANCH   8  11
ENDBRANCH   1   8
BRANCH   4  16
ATOM     16  S   UNL d   1      32.839  17.090 -24.097  0.00  0.00    -0.084 SA
BRANCH  16  17
ATOM     17  C   UNL d   1      32.955  17.795 -23.683  0.00  0.00     0.029 A 
ATOM     18  C   UNL d   1      33.128  17.782 -22.875  0.00  0.00     0.006 A 
ATOM     19  C   UNL d   1      33.241  18.491 -22.478  0.00  0.00     0.001 A 
ATOM     20  C   UNL d   1      33.184  19.212 -22.870  0.00  0.00     0.000 A 
ATOM     21  C   UNL d   1      33.012  19.222 -23.674  0.00  0.00     0.001 A 
ATOM     22  C   UNL d   1      32.898  18.517 -24.080  0.00  0.00     0.006 A 
ENDBRANCH  16  17
ENDBRANCH   4  16
TORSDOF 4
ENDMDL
MODEL 2
REMARK VINA RESULT:      -2.3      2.082      4.284
REMARK  4 active torsions:
REMARK  status: ('A' for Active; 'I' for Inactive)
REMARK    1  A    between atoms: S_2  and  N_1 
REMARK    2  A    between atoms: C_7  and  S_2 
REMARK    3  A    between atoms: S_8  and  C_5 
REMARK    4  A    between atoms: C_16  and  S_8 
ROOT
ATOM      1  N   UNL d   1      32.819  18.430 -23.096  0.00  0.00    -0.151 N 
ATOM      2  C   UNL d   1      32.342  18.175 -23.715  0.00  0.00     0.102 A 
ATOM      3  N   UNL d   1      33.202  17.767 -22.793  0.00  0.00    -0.155 NA
ATOM      4  C   UNL d   1      32.426  17.363 -23.798  0.00  0.00     0.067 A 
ATOM      5  C   UNL d   1      32.963  17.111 -23.221  0.00  0.00     0.110 A 
ATOM      6  C   UNL d   1      31.846  18.657 -24.192  0.00  0.00     0.022 C 
ATOM      7  C   UNL d   1      33.213  16.334 -23.101  0.00  0.00     0.023 C 
ENDROOT
BRANCH   1   8
ATOM      8  S   UNL d   1      32.905  19.197 -22.822  0.00  0.00     0.292 S 
ATOM      9  O   UNL d   1      33.239  19.414 -23.546  0.00  0.00    -0.198 OA
ATOM     10  O   UNL d   1      32.576  18.985 -22.106  0.00  0.00    -0.198 OA
BRANCH   8  11
ATOM     11  C   UNL d   1      32.996  19.975 -22.553  0.00  0.00     0.135 A 
ATOM     12  S   UNL d   1      32.882  20.239 -21.788  0.00  0.00    -0.073 SA
ATOM     13  C   UNL d   1      33.033  21.049 -21.771  0.00  0.00     0.036 A 
ATOM     14  C   UNL d   1      33.241  21.288 -22.533  0.00  0.00     0.008 A 
ATOM     15  C   UNL d   1      33.218  20.620 -23.022  0.00  0.00     0.020 A 
ENDBRANCH   8  11
ENDBRANCH   1   8
BRANCH   4  16
ATOM     16  S   UNL d   1      32.089  16.813 -24.318  0.00  0.00    -0.084 SA
BRANCH  16  17
ATOM     17  C   UNL d   1      31.307  16.571 -24.207  0.00  0.00     0.029 A 
ATOM     18  C   UNL d   1      31.117  16.034 -23.609  0.00  0.00     0.006 A 
ATOM     19  C   UNL d   1      30.335  15.803 -23.511  0.00  0.00     0.001 A 
ATOM     20  C   UNL d   1      29.741  16.098 -23.996  0.00  0.00     0.000 A 
ATOM     21  C   UNL d   1      29.933  16.634 -24.591  0.00  0.00     0.001 A 
ATOM     22  C   UNL d   1      30.712  16.869 -24.696  0.00  0.00     0.006 A 
ENDBRANCH  16  17
ENDBRANCH   4  16
TORSDOF 4
ENDMDL
MODEL 3
REMARK VINA RESULT:      -1.3      2.761      4.805
REMARK  4 active torsions:
REMARK  status: ('A' for Active; 'I' for Inactive)
REMARK    1  A    between atoms: S_2  and  N_1 
REMARK    2  A    between atoms: C_7  and  S_2 
REMARK    3  A    between atoms: S_8  and  C_5 
REMARK    4  A    between atoms: C_16  and  S_8 
ROOT
ATOM      1  N   UNL d   1      32.927  19.791 -22.987  0.00  0.00    -0.151 N 
ATOM      2  C   UNL d   1      32.781  18.987 -23.073  0.00  0.00     0.102 A 
ATOM      3  N   UNL d   1      33.117  20.086 -23.732  0.00  0.00    -0.155 NA
ATOM      4  C   UNL d   1      32.878  18.781 -23.861  0.00  0.00     0.067 A 
ATOM      5  C   UNL d   1      33.088  19.469 -24.270  0.00  0.00     0.110 A 
ATOM      6  C   UNL d   1      32.567  18.452 -22.462  0.00  0.00     0.022 C 
ATOM      7  C   UNL d   1      33.240  19.523 -25.079  0.00  0.00     0.023 C 
ENDROOT
BRANCH   1   8
ATOM      8  S   UNL d   1      32.893  20.228 -22.295  0.00  0.00     0.292 S 
ATOM      9  O   UNL d   1      32.541  20.850 -22.709  0.00  0.00    -0.198 OA
ATOM     10  O   UNL d   1      33.241  19.615 -21.883  0.00  0.00    -0.198 OA
BRANCH   8  11
ATOM     11  C   UNL d   1      32.855  20.676 -21.599  0.00  0.00     0.135 A 
ATOM     12  S   UNL d   1      32.632  21.459 -21.539  0.00  0.00    -0.073 SA
ATOM     13  C   UNL d   1      32.675  21.679 -20.746  0.00  0.00     0.036 A 
ATOM     14  C   UNL d   1      32.927  21.025 -20.311  0.00  0.00     0.008 A 
ATOM     15  C   UNL d   1      33.040  20.398 -20.842  0.00  0.00     0.020 A 
ENDBRANCH   8  11
ENDBRANCH   1   8
BRANCH   4  16
ATOM     16  S   UNL d   1      32.806  18.064 -24.269  0.00  0.00    -0.084 SA
BRANCH  16  17
ATOM     17  C   UNL d   1      32.058  17.734 -24.386  0.00  0.00     0.029 A 
ATOM     18  C   UNL d   1      31.551  18.040 -24.962  0.00  0.00     0.006 A 
ATOM     19  C   UNL d   1      30.811  17.701 -25.066  0.00  0.00     0.001 A 
ATOM     20  C   UNL d   1      30.566  17.065 -24.607  0.00  0.00     0.000 A 
ATOM     21  C   UNL d   1      31.073  16.762 -24.033  0.00  0.00     0.001 A 
ATOM     22  C   UNL d   1      31.815  17.095 -23.923  0.00  0.00     0.006 A 
ENDBRANCH  16  17
ENDBRANCH   4  16
TORSDOF 4
ENDMDL
