MODEL 1
REMARK VINA RESULT:     102.3      0.000      0.000
REMARK  6 active torsions:
REMARK  status: ('A' for Active; 'I' for Inactive)
REMARK    1  A    between atoms: C_6  and  C_1 
REMARK    2  A    between atoms: C_9  and  C_2 
REMARK    3  A    between atoms: N_8  and  C_3 
REMARK       I    between atoms: N_7  and  C_6 
REMARK    4  A    between atoms: C_13  and  N_7 
REMARK    5  A    between atoms: C_12  and  N_8 
REMARK    6  A    between atoms: O_19  and  C_14 
ROOT
ATOM      1  C   UNL d   1      60.791  48.457  50.401  0.00  0.00     0.108 A 
ATOM      2  C   UNL d   1      60.858  49.119  50.894  0.00  0.00     0.094 A 
ATOM      3  C   UNL d   1      59.826  49.295  50.083  0.00  0.00     0.194 A 
ATOM      4  N   UNL d   1      60.253  49.642  50.692  0.00  0.00    -0.221 NA
ATOM      5  S   UNL d   1      60.145  48.586  49.908  0.00  0.00    -0.042 SA
ENDROOT
BRANCH   1   6
ATOM      6  C   UNL d   1      61.271  47.790  50.398  0.00  0.00     0.287 C 
ATOM      7  N   UNL d   1      61.511  47.450  49.685  0.00  0.00    -0.206 NA
ATOM      8  O   UNL d   1      61.526  47.445  51.113  0.00  0.00    -0.265 OA
BRANCH   7   9
ATOM      9  C   UNL d   1      61.990  46.786  49.677  0.00  0.00     0.104 A 
ATOM     10  C   UNL d   1      62.540  46.713  49.089  0.00  0.00     0.118 A 
ATOM     11  N   UNL d   1      63.019  46.045  49.085  0.00  0.00    -0.241 NA
ATOM     12  C   UNL d   1      62.938  45.491  49.645  0.00  0.00     0.099 A 
ATOM     13  C   UNL d   1      62.388  45.563  50.233  0.00  0.00     0.022 A 
ATOM     14  C   UNL d   1      61.895  46.226  50.259  0.00  0.00     0.022 A 
ENDBRANCH   7   9
ENDBRANCH   1   6
BRANCH   2  15
ATOM     15  C   UNL d   1      61.447  49.158  51.446  0.00  0.00     0.018 A 
ATOM     16  C   UNL d   1      62.086  49.675  51.341  0.00  0.00     0.002 A 
ATOM     17  C   UNL d   1      62.683  49.706  51.913  0.00  0.00     0.000 A 
ATOM     18  C   UNL d   1      62.636  49.220  52.588  0.00  0.00     0.000 A 
ATOM     19  C   UNL d   1      62.030  48.729  52.688  0.00  0.00     0.000 A 
ATOM     20  C   UNL d   1      61.416  48.681  52.123  0.00  0.00     0.002 A 
ENDBRANCH   2  15
BRANCH   3  21
ATOM     21  N   UNL d   1      59.181  49.628  49.723  0.00  0.00    -0.221 NA
BRANCH  21  22
ATOM     22  C   UNL d   1      58.421  49.386  49.944  0.00  0.00     0.084 A 
ATOM     23  C   UNL d   1      57.762  49.707  49.557  0.00  0.00     0.021 A 
ATOM     24  C   UNL d   1      57.016  49.478  49.765  0.00  0.00     0.026 A 
ATOM     25  C   UNL d   1      56.924  48.914  50.374  0.00  0.00     0.094 A 
ATOM     26  C   UNL d   1      57.549  48.609  50.742  0.00  0.00     0.026 A 
ATOM     27  C   UNL d   1      58.322  48.841  50.533  0.00  0.00     0.021 A 
BRANCH  25  28
ATOM     28  O   UNL d   1      56.150  48.659  50.609  0.00  0.00    -0.328 OA
ATOM     29  C   UNL d   1      56.041  48.022  51.128  0.00  0.00     0.181 C 
ENDBRANCH  25  28
ENDBRANCH  21  22
ENDBRANCH   3  21
TORSDOF 6
ENDMDL
