MODEL 1
REMARK VINA RESULT:      -6.5      0.000      0.000
REMARK  5 active torsions:
REMARK  status: ('A' for Active; 'I' for Inactive)
REMARK    1  A    between atoms: C_3  and  N_1 
REMARK       I    between atoms: C_2  and  N_4 
REMARK    2  A    between atoms: C_10  and  C_2 
REMARK    3  A    between atoms: N_4  and  C_9 
REMARK    4  A    between atoms: C_13  and  C_10 
REMARK    5  A    between atoms: C_16  and  C_13 
ROOT
ATOM      1  C   UNL d   1     -48.680  14.271  22.564  0.00  0.00     0.064 A 
ATOM      2  C   UNL d   1     -48.043  14.760  22.776  0.00  0.00     0.020 A 
ATOM      3  C   UNL d   1     -48.538  13.495  22.324  0.00  0.00     0.020 A 
ATOM      4  C   UNL d   1     -47.132  13.702  22.509  0.00  0.00     0.135 A 
ATOM      5  C   UNL d   1     -47.759  13.207  22.296  0.00  0.00     0.034 A 
ATOM      6  C   UNL d   1     -47.272  14.471  22.747  0.00  0.00     0.034 A 
ENDROOT
BRANCH   4   7
ATOM      7  N   UNL d   1     -46.359  13.418  22.482  0.00  0.00    -0.365 NA
ATOM      8  C   UNL d   1     -45.578  13.134  22.454  0.00  0.00     0.328 C 
ATOM      9  O   UNL d   1     -44.974  13.622  22.177  0.00  0.00    -0.251 OA
BRANCH   8  10
ATOM     10  C   UNL d   1     -45.409  12.366  22.701  0.00  0.00     0.076 C 
BRANCH  10  11
ATOM     11  C   UNL d   1     -44.654  12.062  22.619  0.00  0.00     0.006 C 
BRANCH  11  12
ATOM     12  C   UNL d   1     -44.454  11.345  22.975  0.00  0.00     0.000 A 
ATOM     13  C   UNL d   1     -45.041  10.886  23.333  0.00  0.00     0.000 A 
ATOM     14  C   UNL d   1     -44.847  10.164  23.693  0.00  0.00     0.000 A 
ATOM     15  C   UNL d   1     -44.064   9.904  23.694  0.00  0.00     0.000 A 
ATOM     16  C   UNL d   1     -43.475  10.366  23.334  0.00  0.00     0.000 A 
ATOM     17  C   UNL d   1     -43.671  11.085  22.976  0.00  0.00     0.000 A 
ENDBRANCH  11  12
ENDBRANCH  10  11
ENDBRANCH   8  10
ENDBRANCH   4   7
BRANCH   1  18
ATOM     18  N   UNL d   1     -49.450  14.560  22.593  0.00  0.00    -0.300 N 
ATOM     19  C   UNL d   1     -50.052  14.149  22.207  0.00  0.00     0.107 A 
ATOM     20  C   UNL d   1     -50.823  14.437  22.236  0.00  0.00     0.142 A 
ATOM     21  O   UNL d   1     -50.992  15.127  22.645  0.00  0.00    -0.300 OA
ATOM     22  C   UNL d   1     -50.389  15.538  23.031  0.00  0.00     0.142 A 
ATOM     23  C   UNL d   1     -49.613  15.253  23.005  0.00  0.00     0.107 A 
ENDBRANCH   1  18
TORSDOF 5
ENDMDL
MODEL 2
REMARK VINA RESULT:      -6.5      1.366      5.755
REMARK  5 active torsions:
REMARK  status: ('A' for Active; 'I' for Inactive)
REMARK    1  A    between atoms: C_3  and  N_1 
REMARK       I    between atoms: C_2  and  N_4 
REMARK    2  A    between atoms: C_10  and  C_2 
REMARK    3  A    between atoms: N_4  and  C_9 
REMARK    4  A    between atoms: C_13  and  C_10 
REMARK    5  A    between atoms: C_16  and  C_13 
ROOT
ATOM      1  C   UNL d   1     -45.381  11.671  23.199  0.00  0.00     0.064 A 
ATOM      2  C   UNL d   1     -46.090  11.734  23.628  0.00  0.00     0.020 A 
ATOM      3  C   UNL d   1     -45.169  12.266  22.669  0.00  0.00     0.020 A 
ATOM      4  C   UNL d   1     -46.367  12.979  23.002  0.00  0.00     0.135 A 
ATOM      5  C   UNL d   1     -45.664  12.926  22.569  0.00  0.00     0.034 A 
ATOM      6  C   UNL d   1     -46.578  12.389  23.526  0.00  0.00     0.034 A 
ENDROOT
BRANCH   4   7
ATOM      7  N   UNL d   1     -46.860  13.633  22.904  0.00  0.00    -0.365 NA
ATOM      8  C   UNL d   1     -47.355  14.293  22.805  0.00  0.00     0.328 C 
ATOM      9  O   UNL d   1     -47.025  15.046  22.735  0.00  0.00    -0.251 OA
BRANCH   8  10
ATOM     10  C   UNL d   1     -48.172  14.196  22.777  0.00  0.00     0.076 C 
BRANCH  10  11
ATOM     11  C   UNL d   1     -48.635  14.713  22.342  0.00  0.00     0.006 C 
BRANCH  11  12
ATOM     12  C   UNL d   1     -49.441  14.565  22.244  0.00  0.00     0.000 A 
ATOM     13  C   UNL d   1     -49.689  13.932  21.774  0.00  0.00     0.000 A 
ATOM     14  C   UNL d   1     -50.498  13.778  21.670  0.00  0.00     0.000 A 
ATOM     15  C   UNL d   1     -51.057  14.260  22.039  0.00  0.00     0.000 A 
ATOM     16  C   UNL d   1     -50.807  14.896  22.511  0.00  0.00     0.000 A 
ATOM     17  C   UNL d   1     -50.001  15.047  22.612  0.00  0.00     0.000 A 
ENDBRANCH  11  12
ENDBRANCH  10  11
ENDBRANCH   8  10
ENDBRANCH   4   7
BRANCH   1  18
ATOM     18  N   UNL d   1     -44.894  11.016  23.300  0.00  0.00    -0.300 N 
ATOM     19  C   UNL d   1     -44.094  11.071  23.105  0.00  0.00     0.107 A 
ATOM     20  C   UNL d   1     -43.605  10.417  23.206  0.00  0.00     0.142 A 
ATOM     21  O   UNL d   1     -43.910   9.714  23.499  0.00  0.00    -0.300 OA
ATOM     22  C   UNL d   1     -44.709   9.659  23.695  0.00  0.00     0.142 A 
ATOM     23  C   UNL d   1     -45.205  10.314  23.595  0.00  0.00     0.107 A 
ENDBRANCH   1  18
TORSDOF 5
ENDMDL
MODEL 3
REMARK VINA RESULT:      -5.9      2.473      3.195
REMARK  5 active torsions:
REMARK  status: ('A' for Active; 'I' for Inactive)
REMARK    1  A    between atoms: C_3  and  N_1 
REMARK       I    between atoms: C_2  and  N_4 
REMARK    2  A    between atoms: C_10  and  C_2 
REMARK    3  A    between atoms: N_4  and  C_9 
REMARK    4  A    between atoms: C_13  and  C_10 
REMARK    5  A    between atoms: C_16  and  C_13 
ROOT
ATOM      1  C   UNL d   1     -46.939  13.761  22.481  0.00  0.00     0.064 A 
ATOM      2  C   UNL d   1     -46.288  14.076  22.889  0.00  0.00     0.020 A 
ATOM      3  C   UNL d   1     -46.822  13.177  21.910  0.00  0.00     0.020 A 
ATOM      4  C   UNL d   1     -45.411  13.228  22.161  0.00  0.00     0.135 A 
ATOM      5  C   UNL d   1     -46.053  12.907  21.748  0.00  0.00     0.034 A 
ATOM      6  C   UNL d   1     -45.527  13.806  22.726  0.00  0.00     0.034 A 
ENDROOT
BRANCH   4   7
ATOM      7  N   UNL d   1     -44.648  12.961  22.001  0.00  0.00    -0.365 NA
ATOM      8  C   UNL d   1     -43.878  12.691  21.841  0.00  0.00     0.328 C 
ATOM      9  O   UNL d   1     -43.643  11.945  22.103  0.00  0.00    -0.251 OA
BRANCH   8  10
ATOM     10  C   UNL d   1     -43.352  13.166  21.421  0.00  0.00     0.076 C 
BRANCH  10  11
ATOM     11  C   UNL d   1     -42.567  12.948  21.347  0.00  0.00     0.006 C 
BRANCH  11  12
ATOM     12  C   UNL d   1     -42.015  13.483  21.046  0.00  0.00     0.000 A 
ATOM     13  C   UNL d   1     -41.439  13.804  21.544  0.00  0.00     0.000 A 
ATOM     14  C   UNL d   1     -40.881  14.343  21.248  0.00  0.00     0.000 A 
ATOM     15  C   UNL d   1     -40.902  14.557  20.451  0.00  0.00     0.000 A 
ATOM     16  C   UNL d   1     -41.481  14.233  19.951  0.00  0.00     0.000 A 
ATOM     17  C   UNL d   1     -42.035  13.697  20.249  0.00  0.00     0.000 A 
ENDBRANCH  11  12
ENDBRANCH  10  11
ENDBRANCH   8  10
ENDBRANCH   4   7
BRANCH   1  18
ATOM     18  N   UNL d   1     -47.699  14.031  22.644  0.00  0.00    -0.300 N 
ATOM     19  C   UNL d   1     -48.250  13.516  22.980  0.00  0.00     0.107 A 
ATOM     20  C   UNL d   1     -49.010  13.785  23.144  0.00  0.00     0.142 A 
ATOM     21  O   UNL d   1     -49.220  14.559  22.975  0.00  0.00    -0.300 OA
ATOM     22  C   UNL d   1     -48.670  15.074  22.639  0.00  0.00     0.142 A 
ATOM     23  C   UNL d   1     -47.904  14.809  22.472  0.00  0.00     0.107 A 
ENDBRANCH   1  18
TORSDOF 5
ENDMDL
MODEL 4
REMARK VINA RESULT:      -5.6      7.870      9.758
REMARK  5 active torsions:
REMARK  status: ('A' for Active; 'I' for Inactive)
REMARK    1  A    between atoms: C_3  and  N_1 
REMARK       I    between atoms: C_2  and  N_4 
REMARK    2  A    between atoms: C_10  and  C_2 
REMARK    3  A    between atoms: N_4  and  C_9 
REMARK    4  A    between atoms: C_13  and  C_10 
REMARK    5  A    between atoms: C_16  and  C_13 
ROOT
ATOM      1  C   UNL d   1     -38.857  14.478  17.266  0.00  0.00     0.064 A 
ATOM      2  C   UNL d   1     -39.645  14.250  17.396  0.00  0.00     0.020 A 
ATOM      3  C   UNL d   1     -38.380  14.685  17.907  0.00  0.00     0.020 A 
ATOM      4  C   UNL d   1     -39.478  14.436  18.795  0.00  0.00     0.135 A 
ATOM      5  C   UNL d   1     -38.691  14.665  18.677  0.00  0.00     0.034 A 
ATOM      6  C   UNL d   1     -39.950  14.231  18.160  0.00  0.00     0.034 A 
ENDROOT
BRANCH   4   7
ATOM      7  N   UNL d   1     -39.789  14.415  19.558  0.00  0.00    -0.365 NA
ATOM      8  C   UNL d   1     -40.103  14.394  20.326  0.00  0.00     0.328 C 
ATOM      9  O   UNL d   1     -40.918  14.322  20.434  0.00  0.00    -0.251 OA
BRANCH   8  10
ATOM     10  C   UNL d   1     -39.603  14.446  20.979  0.00  0.00     0.076 C 
BRANCH  10  11
ATOM     11  C   UNL d   1     -39.795  14.066  21.679  0.00  0.00     0.006 C 
BRANCH  11  12
ATOM     12  C   UNL d   1     -39.257  14.052  22.304  0.00  0.00     0.000 A 
ATOM     13  C   UNL d   1     -38.980  13.328  22.591  0.00  0.00     0.000 A 
ATOM     14  C   UNL d   1     -38.438  13.306  23.220  0.00  0.00     0.000 A 
ATOM     15  C   UNL d   1     -38.176  14.011  23.560  0.00  0.00     0.000 A 
ATOM     16  C   UNL d   1     -38.456  14.738  23.270  0.00  0.00     0.000 A 
ATOM     17  C   UNL d   1     -38.995  14.757  22.644  0.00  0.00     0.000 A 
ENDBRANCH  11  12
ENDBRANCH  10  11
ENDBRANCH   8  10
ENDBRANCH   4   7
BRANCH   1  18
ATOM     18  N   UNL d   1     -38.552  14.497  16.502  0.00  0.00    -0.300 N 
ATOM     19  C   UNL d   1     -38.396  15.224  16.145  0.00  0.00     0.107 A 
ATOM     20  C   UNL d   1     -38.091  15.244  15.381  0.00  0.00     0.142 A 
ATOM     21  O   UNL d   1     -37.942  14.546  14.977  0.00  0.00    -0.300 OA
ATOM     22  C   UNL d   1     -38.098  13.819  15.334  0.00  0.00     0.142 A 
ATOM     23  C   UNL d   1     -38.405  13.794  16.102  0.00  0.00     0.107 A 
ENDBRANCH   1  18
TORSDOF 5
ENDMDL
MODEL 5
REMARK VINA RESULT:      -4.9      4.212      6.950
REMARK  5 active torsions:
REMARK  status: ('A' for Active; 'I' for Inactive)
REMARK    1  A    between atoms: C_3  and  N_1 
REMARK       I    between atoms: C_2  and  N_4 
REMARK    2  A    between atoms: C_10  and  C_2 
REMARK    3  A    between atoms: N_4  and  C_9 
REMARK    4  A    between atoms: C_13  and  C_10 
REMARK    5  A    between atoms: C_16  and  C_13 
ROOT
ATOM      1  C   UNL d   1     -40.906  14.447  20.317  0.00  0.00     0.064 A 
ATOM      2  C   UNL d   1     -41.071  14.506  21.129  0.00  0.00     0.020 A 
ATOM      3  C   UNL d   1     -41.369  13.958  19.840  0.00  0.00     0.020 A 
ATOM      4  C   UNL d   1     -42.152  13.595  20.985  0.00  0.00     0.135 A 
ATOM      5  C   UNL d   1     -41.996  13.528  20.175  0.00  0.00     0.034 A 
ATOM      6  C   UNL d   1     -41.694  14.079  21.458  0.00  0.00     0.034 A 
ENDROOT
BRANCH   4   7
ATOM      7  N   UNL d   1     -42.774  13.169  21.319  0.00  0.00    -0.365 NA
ATOM      8  C   UNL d   1     -43.400  12.738  21.655  0.00  0.00     0.328 C 
ATOM      9  O   UNL d   1     -43.293  11.944  21.849  0.00  0.00    -0.251 OA
BRANCH   8  10
ATOM     10  C   UNL d   1     -44.125  13.104  21.795  0.00  0.00     0.076 C 
BRANCH  10  11
ATOM     11  C   UNL d   1     -44.768  12.664  22.045  0.00  0.00     0.006 C 
BRANCH  11  12
ATOM     12  C   UNL d   1     -45.416  13.038  22.394  0.00  0.00     0.000 A 
ATOM     13  C   UNL d   1     -45.905  12.617  22.910  0.00  0.00     0.000 A 
ATOM     14  C   UNL d   1     -46.558  12.987  23.265  0.00  0.00     0.000 A 
ATOM     15  C   UNL d   1     -46.719  13.779  23.100  0.00  0.00     0.000 A 
ATOM     16  C   UNL d   1     -46.226  14.201  22.581  0.00  0.00     0.000 A 
ATOM     17  C   UNL d   1     -45.577  13.830  22.230  0.00  0.00     0.000 A 
ENDBRANCH  11  12
ENDBRANCH  10  11
ENDBRANCH   8  10
ENDBRANCH   4   7
BRANCH   1  18
ATOM     18  N   UNL d   1     -40.285  14.874  19.989  0.00  0.00    -0.300 N 
ATOM     19  C   UNL d   1     -39.508  14.673  20.181  0.00  0.00     0.107 A 
ATOM     20  C   UNL d   1     -38.885  15.100  19.853  0.00  0.00     0.142 A 
ATOM     21  O   UNL d   1     -39.035  15.720  19.339  0.00  0.00    -0.300 OA
ATOM     22  C   UNL d   1     -39.811  15.921  19.147  0.00  0.00     0.142 A 
ATOM     23  C   UNL d   1     -40.441  15.496  19.474  0.00  0.00     0.107 A 
ENDBRANCH   1  18
TORSDOF 5
ENDMDL
MODEL 6
REMARK VINA RESULT:      -4.7      8.142      9.673
REMARK  5 active torsions:
REMARK  status: ('A' for Active; 'I' for Inactive)
REMARK    1  A    between atoms: C_3  and  N_1 
REMARK       I    between atoms: C_2  and  N_4 
REMARK    2  A    between atoms: C_10  and  C_2 
REMARK    3  A    between atoms: N_4  and  C_9 
REMARK    4  A    between atoms: C_13  and  C_10 
REMARK    5  A    between atoms: C_16  and  C_13 
ROOT
ATOM      1  C   UNL d   1     -39.225  15.354  21.347  0.00  0.00     0.064 A 
ATOM      2  C   UNL d   1     -40.034  15.385  21.162  0.00  0.00     0.020 A 
ATOM      3  C   UNL d   1     -38.668  15.305  20.741  0.00  0.00     0.020 A 
ATOM      4  C   UNL d   1     -39.729  15.318  19.776  0.00  0.00     0.135 A 
ATOM      5  C   UNL d   1     -38.920  15.287  19.949  0.00  0.00     0.034 A 
ATOM      6  C   UNL d   1     -40.281  15.367  20.377  0.00  0.00     0.034 A 
ENDROOT
BRANCH   4   7
ATOM      7  N   UNL d   1     -39.981  15.301  18.992  0.00  0.00    -0.365 NA
ATOM      8  C   UNL d   1     -40.236  15.284  18.201  0.00  0.00     0.328 C 
ATOM      9  O   UNL d   1     -40.809  15.819  17.944  0.00  0.00    -0.251 OA
BRANCH   8  10
ATOM     10  C   UNL d   1     -39.917  14.736  17.675  0.00  0.00     0.076 C 
BRANCH  10  11
ATOM     11  C   UNL d   1     -39.881  14.903  16.875  0.00  0.00     0.006 C 
BRANCH  11  12
ATOM     12  C   UNL d   1     -39.240  14.642  16.425  0.00  0.00     0.000 A 
ATOM     13  C   UNL d   1     -38.993  13.855  16.479  0.00  0.00     0.000 A 
ATOM     14  C   UNL d   1     -38.348  13.586  16.029  0.00  0.00     0.000 A 
ATOM     15  C   UNL d   1     -37.953  14.108  15.528  0.00  0.00     0.000 A 
ATOM     16  C   UNL d   1     -38.202  14.899  15.475  0.00  0.00     0.000 A 
ATOM     17  C   UNL d   1     -38.844  15.164  15.923  0.00  0.00     0.000 A 
ENDBRANCH  11  12
ENDBRANCH  10  11
ENDBRANCH   8  10
ENDBRANCH   4   7
BRANCH   1  18
ATOM     18  N   UNL d   1     -38.980  15.372  22.132  0.00  0.00    -0.300 N 
ATOM     19  C   UNL d   1     -38.370  14.873  22.378  0.00  0.00     0.107 A 
ATOM     20  C   UNL d   1     -38.123  14.891  23.163  0.00  0.00     0.142 A 
ATOM     21  O   UNL d   1     -38.480  15.400  23.698  0.00  0.00    -0.300 OA
ATOM     22  C   UNL d   1     -39.090  15.898  23.452  0.00  0.00     0.142 A 
ATOM     23  C   UNL d   1     -39.342  15.884  22.664  0.00  0.00     0.107 A 
ENDBRANCH   1  18
TORSDOF 5
ENDMDL
MODEL 7
REMARK VINA RESULT:      -3.8      8.320      9.858
REMARK  5 active torsions:
REMARK  status: ('A' for Active; 'I' for Inactive)
REMARK    1  A    between atoms: C_3  and  N_1 
REMARK       I    between atoms: C_2  and  N_4 
REMARK    2  A    between atoms: C_10  and  C_2 
REMARK    3  A    between atoms: N_4  and  C_9 
REMARK    4  A    between atoms: C_13  and  C_10 
REMARK    5  A    between atoms: C_16  and  C_13 
ROOT
ATOM      1  C   UNL d   1     -38.506  14.366  21.287  0.00  0.00     0.064 A 
ATOM      2  C   UNL d   1     -38.021  14.958  20.965  0.00  0.00     0.020 A 
ATOM      3  C   UNL d   1     -39.042  13.968  20.802  0.00  0.00     0.020 A 
ATOM      4  C   UNL d   1     -38.604  14.754  19.686  0.00  0.00     0.135 A 
ATOM      5  C   UNL d   1     -39.092  14.162  19.996  0.00  0.00     0.034 A 
ATOM      6  C   UNL d   1     -38.073  15.149  20.165  0.00  0.00     0.034 A 
ENDROOT
BRANCH   4   7
ATOM      7  N   UNL d   1     -38.653  14.948  18.886  0.00  0.00    -0.365 NA
ATOM      8  C   UNL d   1     -38.701  15.142  18.080  0.00  0.00     0.328 C 
ATOM      9  O   UNL d   1     -38.105  14.900  17.563  0.00  0.00    -0.251 OA
BRANCH   8  10
ATOM     10  C   UNL d   1     -39.342  15.576  17.796  0.00  0.00     0.076 C 
BRANCH  10  11
ATOM     11  C   UNL d   1     -39.687  15.383  17.080  0.00  0.00     0.006 C 
BRANCH  11  12
ATOM     12  C   UNL d   1     -40.482  15.558  16.943  0.00  0.00     0.000 A 
ATOM     13  C   UNL d   1     -40.779  15.542  16.172  0.00  0.00     0.000 A 
ATOM     14  C   UNL d   1     -41.578  15.717  16.026  0.00  0.00     0.000 A 
ATOM     15  C   UNL d   1     -42.077  15.907  16.656  0.00  0.00     0.000 A 
ATOM     16  C   UNL d   1     -41.777  15.922  17.430  0.00  0.00     0.000 A 
ATOM     17  C   UNL d   1     -40.981  15.748  17.572  0.00  0.00     0.000 A 
ENDBRANCH  11  12
ENDBRANCH  10  11
ENDBRANCH   8  10
ENDBRANCH   4   7
BRANCH   1  18
ATOM     18  N   UNL d   1     -38.453  14.176  22.085  0.00  0.00    -0.300 N 
ATOM     19  C   UNL d   1     -38.320  13.393  22.309  0.00  0.00     0.107 A 
ATOM     20  C   UNL d   1     -38.267  13.203  23.108  0.00  0.00     0.142 A 
ATOM     21  O   UNL d   1     -38.346  13.787  23.679  0.00  0.00    -0.300 OA
ATOM     22  C   UNL d   1     -38.479  14.569  23.455  0.00  0.00     0.142 A 
ATOM     23  C   UNL d   1     -38.533  14.766  22.653  0.00  0.00     0.107 A 
ENDBRANCH   1  18
TORSDOF 5
ENDMDL
