MODEL 1
REMARK VINA RESULT:      54.7      0.000      0.000
REMARK  4 active torsions:
REMARK  status: ('A' for Active; 'I' for Inactive)
REMARK    1  A    between atoms: C_3  and  C_1 
REMARK    2  A    between atoms: C_8  and  C_3 
REMARK    3  A    between atoms: O_6  and  C_8 
REMARK    4  A    between atoms: C_7  and  O_6 
ROOT
ATOM      1  C   UNL d   1     -55.331-101.724 -41.495  0.00  0.00     0.223 C 
ATOM      2  O   UNL d   1     -55.562-102.408 -41.898  0.00  0.00    -0.284 OA
ENDROOT
BRANCH   1   3
ATOM      3  C   UNL d   1     -55.279-101.728 -40.671  0.00  0.00     0.080 A 
ATOM      4  C   UNL d   1     -55.720-102.271 -40.231  0.00  0.00     0.202 A 
ATOM      5  C   UNL d   1     -55.668-102.274 -39.408  0.00  0.00     0.084 A 
ATOM      6  O   UNL d   1     -56.213-102.810 -40.614  0.00  0.00    -0.286 OA
ATOM      7  C   UNL d   1     -55.171-101.730 -39.029  0.00  0.00     0.199 A 
ATOM      8  C   UNL d   1     -54.735-101.192 -39.465  0.00  0.00     0.042 A 
ATOM      9  O   UNL d   1     -55.119-101.734 -38.190  0.00  0.00    -0.286 OA
ATOM     10  C   UNL d   1     -54.786-101.189 -40.288  0.00  0.00     0.010 A 
ENDBRANCH   1   3
BRANCH   1  11
ATOM     11  C   UNL d   1     -55.151-101.034 -41.922  0.00  0.00     0.165 C 
BRANCH  11  12
ATOM     12  O   UNL d   1     -54.730-101.089 -42.634  0.00  0.00    -0.301 OA
BRANCH  12  13
ATOM     13  C   UNL d   1     -55.054-100.754 -43.319  0.00  0.00     0.106 A 
ATOM     14  C   UNL d   1     -55.156-101.209 -43.996  0.00  0.00     0.057 A 
ATOM     15 BR   UNL d   1     -54.931-102.004 -43.985  0.00  0.00    -0.047 Br
ATOM     16  C   UNL d   1     -55.478-100.875 -44.677  0.00  0.00     0.009 A 
ATOM     17  C   UNL d   1     -55.700-100.079 -44.681  0.00  0.00     0.001 A 
ATOM     18  C   UNL d   1     -55.598 -99.615 -43.996  0.00  0.00     0.002 A 
ATOM     19  C   UNL d   1     -55.275 -99.957 -43.319  0.00  0.00     0.025 A 
ENDBRANCH  12  13
ENDBRANCH  11  12
ENDBRANCH   1  11
TORSDOF 4
ENDMDL
