MODEL 1
REMARK VINA RESULT:      -6.0      0.000      0.000
REMARK  4 active torsions:
REMARK  status: ('A' for Active; 'I' for Inactive)
REMARK    1  A    between atoms: N_6  and  C_1 
REMARK       I    between atoms: C_7  and  N_8 
REMARK    2  A    between atoms: C_9  and  C_7 
REMARK    3  A    between atoms: O_20  and  C_10 
REMARK    4  A    between atoms: O_19  and  C_11 
ROOT
ATOM      1  C   UNL d   1     -46.824  13.124  22.611  0.00  0.00     0.180 A 
ATOM      2  N   UNL d   1     -46.665  12.434  23.038  0.00  0.00    -0.220 NA
ATOM      3  S   UNL d   1     -46.119  13.347  22.229  0.00  0.00    -0.046 SA
ATOM      4  C   UNL d   1     -45.878  12.233  22.922  0.00  0.00     0.114 A 
ATOM      5  C   UNL d   1     -45.546  12.799  22.422  0.00  0.00     0.074 A 
ATOM      6  C   UNL d   1     -45.423  11.619  23.200  0.00  0.00     0.112 A 
ATOM      7  C   UNL d   1     -44.765  12.744  22.208  0.00  0.00     0.102 A 
ATOM      8  C   UNL d   1     -44.303  12.122  22.489  0.00  0.00     0.027 A 
ATOM      9  C   UNL d   1     -44.635  11.556  22.989  0.00  0.00     0.028 A 
ENDROOT
BRANCH   1  10
ATOM     10  N   UNL d   1     -47.548  13.509  22.578  0.00  0.00    -0.281 N 
ATOM     11  C   UNL d   1     -47.598  14.304  22.802  0.00  0.00     0.101 A 
ATOM     12  C   UNL d   1     -48.319  14.706  22.774  0.00  0.00     0.102 A 
ATOM     13  N   UNL d   1     -48.993  14.297  22.518  0.00  0.00    -0.272 N 
ATOM     14  C   UNL d   1     -49.722  14.698  22.489  0.00  0.00     0.240 C 
ATOM     15  C   UNL d   1     -48.944  13.502  22.295  0.00  0.00     0.102 A 
ATOM     16  O   UNL d   1     -49.771  15.485  22.710  0.00  0.00    -0.272 OA
ATOM     17  C   UNL d   1     -48.220  13.116  22.328  0.00  0.00     0.101 A 
BRANCH  14  18
ATOM     18  C   UNL d   1     -50.393  14.289  22.234  0.00  0.00     0.072 C 
ATOM     19  C   UNL d   1     -50.788  13.814  22.772  0.00  0.00     0.009 C 
ATOM     20  C   UNL d   1     -50.679  14.343  21.454  0.00  0.00     0.009 C 
ATOM     21  C   UNL d   1     -51.060  13.895  21.943  0.00  0.00     0.009 C 
ENDBRANCH  14  18
ENDBRANCH   1  10
BRANCH   6  22
ATOM     22  O   UNL d   1     -45.756  11.056  23.698  0.00  0.00    -0.327 OA
ATOM     23  C   UNL d   1     -45.493  10.281  23.665  0.00  0.00     0.181 C 
ENDBRANCH   6  22
BRANCH   7  24
ATOM     24  O   UNL d   1     -44.433  13.307  21.710  0.00  0.00    -0.328 OA
ATOM     25  C   UNL d   1     -43.747  13.131  21.284  0.00  0.00     0.181 C 
ENDBRANCH   7  24
TORSDOF 4
ENDMDL
MODEL 2
REMARK VINA RESULT:      -5.6      8.269      9.481
REMARK  4 active torsions:
REMARK  status: ('A' for Active; 'I' for Inactive)
REMARK    1  A    between atoms: N_6  and  C_1 
REMARK       I    between atoms: C_7  and  N_8 
REMARK    2  A    between atoms: C_9  and  C_7 
REMARK    3  A    between atoms: O_20  and  C_10 
REMARK    4  A    between atoms: O_19  and  C_11 
ROOT
ATOM      1  C   UNL d   1     -39.444  14.854  19.146  0.00  0.00     0.180 A 
ATOM      2  N   UNL d   1     -40.092  15.199  18.766  0.00  0.00    -0.220 NA
ATOM      3  S   UNL d   1     -38.942  14.551  18.556  0.00  0.00    -0.046 SA
ATOM      4  C   UNL d   1     -39.993  15.112  17.955  0.00  0.00     0.114 A 
ATOM      5  C   UNL d   1     -39.282  14.711  17.831  0.00  0.00     0.074 A 
ATOM      6  C   UNL d   1     -40.448  15.339  17.321  0.00  0.00     0.112 A 
ATOM      7  C   UNL d   1     -39.036  14.544  17.077  0.00  0.00     0.102 A 
ATOM      8  C   UNL d   1     -39.497  14.774  16.432  0.00  0.00     0.027 A 
ATOM      9  C   UNL d   1     -40.207  15.174  16.556  0.00  0.00     0.028 A 
ENDROOT
BRANCH   1  10
ATOM     10  N   UNL d   1     -39.328  14.823  19.959  0.00  0.00    -0.281 N 
ATOM     11  C   UNL d   1     -39.413  15.511  20.410  0.00  0.00     0.101 A 
ATOM     12  C   UNL d   1     -39.300  15.495  21.228  0.00  0.00     0.102 A 
ATOM     13  N   UNL d   1     -39.100  14.776  21.589  0.00  0.00    -0.272 N 
ATOM     14  C   UNL d   1     -38.985  14.756  22.413  0.00  0.00     0.240 C 
ATOM     15  C   UNL d   1     -39.015  14.088  21.137  0.00  0.00     0.102 A 
ATOM     16  O   UNL d   1     -39.068  15.437  22.860  0.00  0.00    -0.272 OA
ATOM     17  C   UNL d   1     -39.131  14.119  20.325  0.00  0.00     0.101 A 
BRANCH  14  18
ATOM     18  C   UNL d   1     -38.786  14.039  22.771  0.00  0.00     0.072 C 
ATOM     19  C   UNL d   1     -39.391  13.530  22.988  0.00  0.00     0.009 C 
ATOM     20  C   UNL d   1     -37.997  13.817  22.917  0.00  0.00     0.009 C 
ATOM     21  C   UNL d   1     -38.548  13.330  23.126  0.00  0.00     0.009 C 
ENDBRANCH  14  18
ENDBRANCH   1  10
BRANCH   6  22
ATOM     22  O   UNL d   1     -41.156  15.737  17.447  0.00  0.00    -0.327 OA
ATOM     23  C   UNL d   1     -41.638  15.917  16.809  0.00  0.00     0.181 C 
ENDBRANCH   6  22
BRANCH   7  24
ATOM     24  O   UNL d   1     -38.329  14.146  16.952  0.00  0.00    -0.328 OA
ATOM     25  C   UNL d   1     -38.012  14.092  16.190  0.00  0.00     0.181 C 
ENDBRANCH   7  24
TORSDOF 4
ENDMDL
MODEL 3
REMARK VINA RESULT:      -5.5      1.295      4.988
REMARK  4 active torsions:
REMARK  status: ('A' for Active; 'I' for Inactive)
REMARK    1  A    between atoms: N_6  and  C_1 
REMARK       I    between atoms: C_7  and  N_8 
REMARK    2  A    between atoms: C_9  and  C_7 
REMARK    3  A    between atoms: O_20  and  C_10 
REMARK    4  A    between atoms: O_19  and  C_11 
ROOT
ATOM      1  C   UNL d   1     -47.585  12.851  23.089  0.00  0.00     0.180 A 
ATOM      2  N   UNL d   1     -48.298  12.459  23.232  0.00  0.00    -0.220 NA
ATOM      3  S   UNL d   1     -47.762  13.657  22.985  0.00  0.00    -0.046 SA
ATOM      4  C   UNL d   1     -48.905  13.011  23.217  0.00  0.00     0.114 A 
ATOM      5  C   UNL d   1     -48.569  13.749  23.064  0.00  0.00     0.074 A 
ATOM      6  C   UNL d   1     -49.709  12.943  23.321  0.00  0.00     0.112 A 
ATOM      7  C   UNL d   1     -49.039  14.408  23.017  0.00  0.00     0.102 A 
ATOM      8  C   UNL d   1     -49.855  14.341  23.122  0.00  0.00     0.027 A 
ATOM      9  C   UNL d   1     -50.191  13.604  23.275  0.00  0.00     0.028 A 
ENDROOT
BRANCH   1  10
ATOM     10  N   UNL d   1     -46.844  12.498  23.057  0.00  0.00    -0.281 N 
ATOM     11  C   UNL d   1     -46.230  12.876  22.652  0.00  0.00     0.101 A 
ATOM     12  C   UNL d   1     -45.479  12.534  22.611  0.00  0.00     0.102 A 
ATOM     13  N   UNL d   1     -45.352  11.805  22.985  0.00  0.00    -0.272 N 
ATOM     14  C   UNL d   1     -44.596  11.457  22.946  0.00  0.00     0.240 C 
ATOM     15  C   UNL d   1     -45.966  11.428  23.390  0.00  0.00     0.102 A 
ATOM     16  O   UNL d   1     -43.989  11.831  22.545  0.00  0.00    -0.272 OA
ATOM     17  C   UNL d   1     -46.707  11.780  23.422  0.00  0.00     0.101 A 
BRANCH  14  18
ATOM     18  C   UNL d   1     -44.472  10.731  23.319  0.00  0.00     0.072 C 
ATOM     19  C   UNL d   1     -45.108  10.220  23.400  0.00  0.00     0.009 C 
ATOM     20  C   UNL d   1     -43.728  10.502  23.614  0.00  0.00     0.009 C 
ATOM     21  C   UNL d   1     -44.310  10.013  23.698  0.00  0.00     0.009 C 
ENDBRANCH  14  18
ENDBRANCH   1  10
BRANCH   6  22
ATOM     22  O   UNL d   1     -50.042  12.208  23.473  0.00  0.00    -0.327 OA
ATOM     23  C   UNL d   1     -50.849  12.148  23.600  0.00  0.00     0.181 C 
ENDBRANCH   6  22
BRANCH   7  24
ATOM     24  O   UNL d   1     -48.706  15.143  22.865  0.00  0.00    -0.328 OA
ATOM     25  C   UNL d   1     -49.184  15.817  22.832  0.00  0.00     0.181 C 
ENDBRANCH   7  24
TORSDOF 4
ENDMDL
MODEL 4
REMARK VINA RESULT:      -4.5      1.232      5.184
REMARK  4 active torsions:
REMARK  status: ('A' for Active; 'I' for Inactive)
REMARK    1  A    between atoms: N_6  and  C_1 
REMARK       I    between atoms: C_7  and  N_8 
REMARK    2  A    between atoms: C_9  and  C_7 
REMARK    3  A    between atoms: O_20  and  C_10 
REMARK    4  A    between atoms: O_19  and  C_11 
ROOT
ATOM      1  C   UNL d   1     -47.631  13.044  23.073  0.00  0.00     0.180 A 
ATOM      2  N   UNL d   1     -47.763  13.828  22.846  0.00  0.00    -0.220 NA
ATOM      3  S   UNL d   1     -48.362  12.729  23.314  0.00  0.00    -0.046 SA
ATOM      4  C   UNL d   1     -48.561  13.995  22.944  0.00  0.00     0.114 A 
ATOM      5  C   UNL d   1     -48.926  13.314  23.233  0.00  0.00     0.074 A 
ATOM      6  C   UNL d   1     -48.999  14.667  22.812  0.00  0.00     0.112 A 
ATOM      7  C   UNL d   1     -49.722  13.313  23.386  0.00  0.00     0.102 A 
ATOM      8  C   UNL d   1     -50.169  13.994  23.252  0.00  0.00     0.027 A 
ATOM      9  C   UNL d   1     -49.804  14.675  22.963  0.00  0.00     0.028 A 
ENDROOT
BRANCH   1  10
ATOM     10  N   UNL d   1     -46.906  12.658  23.059  0.00  0.00    -0.281 N 
ATOM     11  C   UNL d   1     -46.257  13.022  22.698  0.00  0.00     0.101 A 
ATOM     12  C   UNL d   1     -45.522  12.647  22.675  0.00  0.00     0.102 A 
ATOM     13  N   UNL d   1     -45.446  11.898  23.022  0.00  0.00    -0.272 N 
ATOM     14  C   UNL d   1     -44.706  11.516  23.002  0.00  0.00     0.240 C 
ATOM     15  C   UNL d   1     -46.095  11.534  23.384  0.00  0.00     0.102 A 
ATOM     16  O   UNL d   1     -44.064  11.876  22.644  0.00  0.00    -0.272 OA
ATOM     17  C   UNL d   1     -46.819  11.919  23.398  0.00  0.00     0.101 A 
BRANCH  14  18
ATOM     18  C   UNL d   1     -44.633  10.770  23.348  0.00  0.00     0.072 C 
ATOM     19  C   UNL d   1     -43.880  10.467  23.466  0.00  0.00     0.009 C 
ATOM     20  C   UNL d   1     -45.293  10.318  23.579  0.00  0.00     0.009 C 
ATOM     21  C   UNL d   1     -44.598  10.020  23.697  0.00  0.00     0.009 C 
ENDBRANCH  14  18
ENDBRANCH   1  10
BRANCH   6  22
ATOM     22  O   UNL d   1     -48.634  15.344  22.524  0.00  0.00    -0.327 OA
ATOM     23  C   UNL d   1     -49.053  15.856  22.041  0.00  0.00     0.181 C 
ENDBRANCH   6  22
BRANCH   7  24
ATOM     24  O   UNL d   1     -50.087  12.636  23.673  0.00  0.00    -0.328 OA
ATOM     25  C   UNL d   1     -50.781  12.356  23.321  0.00  0.00     0.181 C 
ENDBRANCH   7  24
TORSDOF 4
ENDMDL
MODEL 5
REMARK VINA RESULT:      -3.8      7.574     10.098
REMARK  4 active torsions:
REMARK  status: ('A' for Active; 'I' for Inactive)
REMARK    1  A    between atoms: N_6  and  C_1 
REMARK       I    between atoms: C_7  and  N_8 
REMARK    2  A    between atoms: C_9  and  C_7 
REMARK    3  A    between atoms: O_20  and  C_10 
REMARK    4  A    between atoms: O_19  and  C_11 
ROOT
ATOM      1  C   UNL d   1     -39.082  14.576  18.982  0.00  0.00     0.180 A 
ATOM      2  N   UNL d   1     -38.651  14.241  19.603  0.00  0.00    -0.220 NA
ATOM      3  S   UNL d   1     -39.791  14.872  19.304  0.00  0.00    -0.046 SA
ATOM      4  C   UNL d   1     -39.083  14.328  20.296  0.00  0.00     0.114 A 
ATOM      5  C   UNL d   1     -39.785  14.717  20.106  0.00  0.00     0.074 A 
ATOM      6  C   UNL d   1     -38.934  14.108  21.064  0.00  0.00     0.112 A 
ATOM      7  C   UNL d   1     -40.328  14.881  20.686  0.00  0.00     0.102 A 
ATOM      8  C   UNL d   1     -40.179  14.659  21.466  0.00  0.00     0.027 A 
ATOM      9  C   UNL d   1     -39.477  14.269  21.655  0.00  0.00     0.028 A 
ENDROOT
BRANCH   1  10
ATOM     10  N   UNL d   1     -38.846  14.605  18.197  0.00  0.00    -0.281 N 
ATOM     11  C   UNL d   1     -38.667  15.335  17.851  0.00  0.00     0.101 A 
ATOM     12  C   UNL d   1     -38.427  15.381  17.062  0.00  0.00     0.102 A 
ATOM     13  N   UNL d   1     -38.370  14.681  16.622  0.00  0.00    -0.272 N 
ATOM     14  C   UNL d   1     -38.129  14.723  15.826  0.00  0.00     0.240 C 
ATOM     15  C   UNL d   1     -38.549  13.951  16.967  0.00  0.00     0.102 A 
ATOM     16  O   UNL d   1     -37.952  15.445  15.485  0.00  0.00    -0.272 OA
ATOM     17  C   UNL d   1     -38.785  13.921  17.753  0.00  0.00     0.101 A 
BRANCH  14  18
ATOM     18  C   UNL d   1     -38.072  14.024  15.389  0.00  0.00     0.072 C 
ATOM     19  C   UNL d   1     -38.148  14.066  14.574  0.00  0.00     0.009 C 
ATOM     20  C   UNL d   1     -37.940  13.284  15.747  0.00  0.00     0.009 C 
ATOM     21  C   UNL d   1     -38.009  13.304  14.985  0.00  0.00     0.009 C 
ENDBRANCH  14  18
ENDBRANCH   1  10
BRANCH   6  22
ATOM     22  O   UNL d   1     -38.234  13.720  21.251  0.00  0.00    -0.327 OA
ATOM     23  C   UNL d   1     -38.166  13.332  21.969  0.00  0.00     0.181 C 
ENDBRANCH   6  22
BRANCH   7  24
ATOM     24  O   UNL d   1     -41.027  15.269  20.499  0.00  0.00    -0.328 OA
ATOM     25  C   UNL d   1     -41.347  15.825  21.020  0.00  0.00     0.181 C 
ENDBRANCH   7  24
TORSDOF 4
ENDMDL
