MODEL 1
REMARK VINA RESULT:      56.4      0.000      0.000
REMARK  6 active torsions:
REMARK  status: ('A' for Active; 'I' for Inactive)
REMARK    1  A    between atoms: N_2  and  S_1 
REMARK    2  A    between atoms: C_6  and  S_1 
REMARK    3  A    between atoms: S_9  and  C_3 
REMARK    4  A    between atoms: N_4  and  C_10 
REMARK    5  A    between atoms: C_19  and  S_9 
REMARK    6  A    between atoms: C_21  and  C_19 
ROOT
ATOM      1  N   UNL d   1      60.494  49.236  50.938  0.00  0.00    -0.208 N 
ATOM      2  C   UNL d   1      60.796  48.490  51.146  0.00  0.00     0.189 A 
ATOM      3  N   UNL d   1      60.931  48.483  51.963  0.00  0.00    -0.219 NA
ATOM      4  C   UNL d   1      60.443  49.692  51.634  0.00  0.00     0.114 A 
ATOM      5  C   UNL d   1      60.712  49.225  52.259  0.00  0.00     0.121 A 
ENDROOT
BRANCH   1   6
ATOM      6  S   UNL d   1      60.283  49.480  50.175  0.00  0.00     0.273 S 
ATOM      7  O   UNL d   1      61.079  49.457  49.986  0.00  0.00    -0.200 OA
ATOM      8  O   UNL d   1      60.323  49.707  49.379  0.00  0.00    -0.200 OA
BRANCH   6   9
ATOM      9  C   UNL d   1      59.475  49.508  50.346  0.00  0.00     0.104 A 
ATOM     10  C   UNL d   1      59.223  49.397  51.120  0.00  0.00     0.015 A 
ATOM     11  C   UNL d   1      58.414  49.426  51.296  0.00  0.00     0.024 A 
ATOM     12  C   UNL d   1      57.876  49.565  50.687  0.00  0.00     0.127 A 
ATOM     13  C   UNL d   1      58.136  49.676  49.914  0.00  0.00     0.024 A 
ATOM     14  C   UNL d   1      58.939  49.648  49.737  0.00  0.00     0.015 A 
BRANCH  12  15
ATOM     15  N   UNL d   1      57.058  49.594  50.863  0.00  0.00    -0.114 N 
ATOM     16  O   UNL d   1      56.506  49.508  50.251  0.00  0.00    -0.532 OA
ATOM     17  O   UNL d   1      56.807  49.707  51.638  0.00  0.00    -0.532 OA
ENDBRANCH  12  15
ENDBRANCH   6   9
ENDBRANCH   1   6
BRANCH   2  18
ATOM     18  S   UNL d   1      60.938  47.859  50.620  0.00  0.00    -0.049 SA
BRANCH  18  19
ATOM     19  C   UNL d   1      61.114  47.109  50.918  0.00  0.00     0.038 C 
BRANCH  19  20
ATOM     20  C   UNL d   1      61.324  46.503  50.402  0.00  0.00     0.007 A 
ATOM     21  C   UNL d   1      60.810  45.876  50.259  0.00  0.00     0.003 A 
ATOM     22  C   UNL d   1      61.036  45.270  49.734  0.00  0.00     0.030 A 
ATOM     23  C   UNL d   1      61.772  45.299  49.360  0.00  0.00     0.140 A 
ATOM     24  C   UNL d   1      62.287  45.923  49.500  0.00  0.00     0.030 A 
ATOM     25  F   UNL d   1      61.990  44.696  48.841  0.00  0.00    -0.204 F 
ATOM     26  C   UNL d   1      62.070  46.522  50.015  0.00  0.00     0.003 A 
ENDBRANCH  19  20
ENDBRANCH  18  19
ENDBRANCH   2  18
TORSDOF 6
ENDMDL
