MODEL 1
REMARK VINA RESULT:      17.7      0.000      0.000
REMARK  7 active torsions:
REMARK  status: ('A' for Active; 'I' for Inactive)
REMARK    1  A    between atoms: C_2  and  S_1 
REMARK    2  A    between atoms: N_4  and  S_1 
REMARK    3  A    between atoms: C_13  and  N_4 
REMARK    4  A    between atoms: C_14  and  N_4 
REMARK    5  A    between atoms: O_12  and  C_7 
REMARK    6  A    between atoms: C_16  and  C_13 
REMARK    7  A    between atoms: C_17  and  C_14 
ROOT
ATOM      1  S   UNL d   1      45.742 -16.110  44.507  0.00  0.00     0.271 S 
ATOM      2  O   UNL d   1      45.001 -16.346  44.781  0.00  0.00    -0.200 OA
ATOM      3  O   UNL d   1      46.484 -15.873  44.234  0.00  0.00    -0.200 OA
ENDROOT
BRANCH   1   4
ATOM      4  C   UNL d   1      45.932 -16.888  44.349  0.00  0.00     0.106 A 
ATOM      5  C   UNL d   1      46.144 -17.114  43.586  0.00  0.00     0.038 A 
ATOM      6  C   UNL d   1      46.335 -17.900  43.426  0.00  0.00     0.105 A 
ATOM      7  C   UNL d   1      46.315 -18.457  44.028  0.00  0.00     0.080 A 
ATOM      8  C   UNL d   1      46.104 -18.235  44.791  0.00  0.00     0.014 A 
ATOM      9 CL   UNL d   1      46.506 -19.243  43.868  0.00  0.00    -0.080 Cl
ATOM     10  C   UNL d   1      45.913 -17.449  44.952  0.00  0.00     0.014 A 
BRANCH   6  11
ATOM     11  O   UNL d   1      46.545 -18.122  42.663  0.00  0.00    -0.327 OA
ATOM     12  C   UNL d   1      45.985 -18.095  42.058  0.00  0.00     0.181 C 
ENDBRANCH   6  11
ENDBRANCH   1   4
BRANCH   1  13
ATOM     13  N   UNL d   1      45.551 -15.323  44.668  0.00  0.00    -0.229 N 
BRANCH  13  14
ATOM     14  C   UNL d   1      44.800 -15.131  44.945  0.00  0.00     0.092 C 
BRANCH  14  15
ATOM     15  C   UNL d   1      44.287 -14.689  44.473  0.00  0.00     0.020 C 
ATOM     16  C   UNL d   1      43.634 -14.317  44.810  0.00  0.00     0.002 C 
ENDBRANCH  14  15
ENDBRANCH  13  14
BRANCH  13  17
ATOM     17  C   UNL d   1      46.110 -14.731  44.551  0.00  0.00     0.092 C 
BRANCH  17  18
ATOM     18  C   UNL d   1      46.006 -13.991  44.901  0.00  0.00     0.020 C 
ATOM     19  C   UNL d   1      46.427 -13.337  44.616  0.00  0.00     0.002 C 
ENDBRANCH  17  18
ENDBRANCH  13  17
ENDBRANCH   1  13
TORSDOF 7
ENDMDL
MODEL 2
REMARK VINA RESULT:      19.6      1.734      3.766
REMARK  7 active torsions:
REMARK  status: ('A' for Active; 'I' for Inactive)
REMARK    1  A    between atoms: C_2  and  S_1 
REMARK    2  A    between atoms: N_4  and  S_1 
REMARK    3  A    between atoms: C_13  and  N_4 
REMARK    4  A    between atoms: C_14  and  N_4 
REMARK    5  A    between atoms: O_12  and  C_7 
REMARK    6  A    between atoms: C_16  and  C_13 
REMARK    7  A    between atoms: C_17  and  C_14 
ROOT
ATOM      1  S   UNL d   1      45.930 -16.365  44.222  0.00  0.00     0.271 S 
ATOM      2  O   UNL d   1      45.270 -16.306  43.731  0.00  0.00    -0.200 OA
ATOM      3  O   UNL d   1      46.590 -16.425  44.713  0.00  0.00    -0.200 OA
ENDROOT
BRANCH   1   4
ATOM      4  C   UNL d   1      45.866 -15.572  44.404  0.00  0.00     0.106 A 
ATOM      5  C   UNL d   1      45.134 -15.197  44.370  0.00  0.00     0.038 A 
ATOM      6  C   UNL d   1      45.070 -14.396  44.554  0.00  0.00     0.105 A 
ATOM      7  C   UNL d   1      45.739 -13.972  44.771  0.00  0.00     0.080 A 
ATOM      8  C   UNL d   1      46.471 -14.342  44.806  0.00  0.00     0.014 A 
ATOM      9 CL   UNL d   1      45.674 -13.170  44.955  0.00  0.00    -0.080 Cl
ATOM     10  C   UNL d   1      46.535 -15.143  44.623  0.00  0.00     0.014 A 
BRANCH   6  11
ATOM     11  O   UNL d   1      44.337 -14.026  44.518  0.00  0.00    -0.327 OA
ATOM     12  C   UNL d   1      43.885 -14.075  43.830  0.00  0.00     0.181 C 
ENDBRANCH   6  11
ENDBRANCH   1   4
BRANCH   1  13
ATOM     13  N   UNL d   1      45.994 -17.167  44.038  0.00  0.00    -0.229 N 
BRANCH  13  14
ATOM     14  C   UNL d   1      46.242 -17.703  44.613  0.00  0.00     0.092 C 
BRANCH  14  15
ATOM     15  C   UNL d   1      45.756 -18.336  44.823  0.00  0.00     0.020 C 
ATOM     16  C   UNL d   1      46.081 -19.081  44.953  0.00  0.00     0.002 C 
ENDBRANCH  14  15
ENDBRANCH  13  14
BRANCH  13  17
ATOM     17  C   UNL d   1      45.811 -17.432  43.281  0.00  0.00     0.092 C 
BRANCH  17  18
ATOM     18  C   UNL d   1      46.346 -17.906  42.869  0.00  0.00     0.020 C 
ATOM     19  C   UNL d   1      46.139 -18.214  42.129  0.00  0.00     0.002 C 
ENDBRANCH  17  18
ENDBRANCH  13  17
ENDBRANCH   1  13
TORSDOF 7
ENDMDL
