MODEL 1
REMARK VINA RESULT:      33.9      0.000      0.000
REMARK  5 active torsions:
REMARK  status: ('A' for Active; 'I' for Inactive)
REMARK    1  A    between atoms: C_2  and  C_1 
REMARK    2  A    between atoms: C_7  and  C_2 
REMARK    3  A    between atoms: O_17  and  C_6 
REMARK    4  A    between atoms: C_10  and  C_7 
REMARK    5  A    between atoms: O_18  and  C_8 
ROOT
ATOM      1  C   UNL d   1      14.461  13.569  -2.862  0.00  0.00     0.042 C 
ENDROOT
BRANCH   1   2
ATOM      2  C   UNL d   1      13.684  13.404  -3.066  0.00  0.00     0.199 C 
ATOM      3  O   UNL d   1      13.066  13.637  -2.552  0.00  0.00    -0.286 OA
BRANCH   2   4
ATOM      4  C   UNL d   1      13.496  13.012  -3.771  0.00  0.00     0.078 A 
ATOM      5  C   UNL d   1      13.318  12.195  -3.747  0.00  0.00     0.202 A 
ATOM      6  C   UNL d   1      13.129  11.793  -4.442  0.00  0.00     0.084 A 
ATOM      7  O   UNL d   1      13.331  11.787  -3.018  0.00  0.00    -0.286 OA
ATOM      8  C   UNL d   1      13.117  12.197  -5.152  0.00  0.00     0.199 A 
ATOM      9  C   UNL d   1      13.296  13.014  -5.176  0.00  0.00     0.042 A 
ATOM     10  O   UNL d   1      12.928  11.795  -5.855  0.00  0.00    -0.286 OA
ATOM     11  C   UNL d   1      13.481  13.406  -4.490  0.00  0.00     0.010 A 
ENDBRANCH   2   4
ENDBRANCH   1   2
BRANCH   1  12
ATOM     12  C   UNL d   1      14.648  13.936  -2.148  0.00  0.00     0.005 A 
ATOM     13  C   UNL d   1      14.729  13.488  -1.472  0.00  0.00     0.026 A 
ATOM     14  C   UNL d   1      14.918  13.867  -0.755  0.00  0.00     0.116 A 
ATOM     15  C   UNL d   1      15.022  14.676  -0.721  0.00  0.00     0.116 A 
ATOM     16  C   UNL d   1      14.937  15.130  -1.419  0.00  0.00     0.026 A 
ATOM     17  C   UNL d   1      14.748  14.759  -2.143  0.00  0.00     0.002 A 
BRANCH  14  18
ATOM     18  O   UNL d   1      15.002  13.415  -0.062  0.00  0.00    -0.326 OA
ATOM     19  C   UNL d   1      14.763  12.624  -0.054  0.00  0.00     0.181 C 
ENDBRANCH  14  18
BRANCH  15  20
ATOM     20  O   UNL d   1      15.209  15.064  -0.018  0.00  0.00    -0.326 OA
ATOM     21  C   UNL d   1      15.556  15.806  -0.025  0.00  0.00     0.181 C 
ENDBRANCH  15  20
ENDBRANCH   1  12
TORSDOF 5
ENDMDL
MODEL 2
REMARK VINA RESULT:      35.1      1.276      2.186
REMARK  5 active torsions:
REMARK  status: ('A' for Active; 'I' for Inactive)
REMARK    1  A    between atoms: C_2  and  C_1 
REMARK    2  A    between atoms: C_7  and  C_2 
REMARK    3  A    between atoms: O_17  and  C_6 
REMARK    4  A    between atoms: C_10  and  C_7 
REMARK    5  A    between atoms: O_18  and  C_8 
ROOT
ATOM      1  C   UNL d   1      13.258  13.000  -2.696  0.00  0.00     0.042 C 
ENDROOT
BRANCH   1   2
ATOM      2  C   UNL d   1      13.582  12.936  -3.446  0.00  0.00     0.199 C 
ATOM      3  O   UNL d   1      14.055  12.272  -3.636  0.00  0.00    -0.286 OA
BRANCH   2   4
ATOM      4  C   UNL d   1      13.452  13.516  -4.023  0.00  0.00     0.078 A 
ATOM      5  C   UNL d   1      13.144  13.289  -4.768  0.00  0.00     0.202 A 
ATOM      6  C   UNL d   1      13.011  13.857  -5.350  0.00  0.00     0.084 A 
ATOM      7  O   UNL d   1      12.973  12.485  -4.918  0.00  0.00    -0.286 OA
ATOM      8  C   UNL d   1      13.181  14.641  -5.197  0.00  0.00     0.199 A 
ATOM      9  C   UNL d   1      13.489  14.869  -4.453  0.00  0.00     0.042 A 
ATOM     10  O   UNL d   1      13.048  15.216  -5.781  0.00  0.00    -0.286 OA
ATOM     11  C   UNL d   1      13.619  14.307  -3.881  0.00  0.00     0.010 A 
ENDBRANCH   2   4
ENDBRANCH   1   2
BRANCH   1  12
ATOM     12  C   UNL d   1      13.683  12.776  -2.026  0.00  0.00     0.005 A 
ATOM     13  C   UNL d   1      14.189  13.306  -1.671  0.00  0.00     0.026 A 
ATOM     14  C   UNL d   1      14.614  13.071  -0.994  0.00  0.00     0.116 A 
ATOM     15  C   UNL d   1      14.530  12.320  -0.684  0.00  0.00     0.116 A 
ATOM     16  C   UNL d   1      14.009  11.780  -1.054  0.00  0.00     0.026 A 
ATOM     17  C   UNL d   1      13.579  12.007  -1.733  0.00  0.00     0.002 A 
BRANCH  14  18
ATOM     18  O   UNL d   1      15.132  13.608  -0.628  0.00  0.00    -0.326 OA
ATOM     19  C   UNL d   1      14.864  14.362  -0.418  0.00  0.00     0.181 C 
ENDBRANCH  14  18
BRANCH  15  20
ATOM     20  O   UNL d   1      14.945  12.075  -0.016  0.00  0.00    -0.326 OA
ATOM     21  C   UNL d   1      15.707  11.781  -0.077  0.00  0.00     0.181 C 
ENDBRANCH  15  20
ENDBRANCH   1  12
TORSDOF 5
ENDMDL
MODEL 3
REMARK VINA RESULT:      35.8      1.439      4.410
REMARK  5 active torsions:
REMARK  status: ('A' for Active; 'I' for Inactive)
REMARK    1  A    between atoms: C_2  and  C_1 
REMARK    2  A    between atoms: C_7  and  C_2 
REMARK    3  A    between atoms: O_17  and  C_6 
REMARK    4  A    between atoms: C_10  and  C_7 
REMARK    5  A    between atoms: O_18  and  C_8 
ROOT
ATOM      1  C   UNL d   1      13.568  14.641  -3.042  0.00  0.00     0.042 C 
ENDROOT
BRANCH   1   2
ATOM      2  C   UNL d   1      14.247  15.085  -3.161  0.00  0.00     0.199 C 
ATOM      3  O   UNL d   1      14.608  15.090  -3.916  0.00  0.00    -0.286 OA
BRANCH   2   4
ATOM      4  C   UNL d   1      14.584  15.531  -2.549  0.00  0.00     0.078 A 
ATOM      5  C   UNL d   1      14.803  16.325  -2.698  0.00  0.00     0.202 A 
ATOM      6  C   UNL d   1      15.140  16.779  -2.097  0.00  0.00     0.084 A 
ATOM      7  O   UNL d   1      14.680  16.656  -3.454  0.00  0.00    -0.286 OA
ATOM      8  C   UNL d   1      15.258  16.449  -1.359  0.00  0.00     0.199 A 
ATOM      9  C   UNL d   1      15.039  15.655  -1.211  0.00  0.00     0.042 A 
ATOM     10  O   UNL d   1      15.597  16.904  -0.751  0.00  0.00    -0.286 OA
ATOM     11  C   UNL d   1      14.708  15.211  -1.805  0.00  0.00     0.010 A 
ENDBRANCH   2   4
ENDBRANCH   1   2
BRANCH   1  12
ATOM     12  C   UNL d   1      13.447  13.929  -3.440  0.00  0.00     0.005 A 
ATOM     13  C   UNL d   1      13.616  13.224  -3.070  0.00  0.00     0.026 A 
ATOM     14  C   UNL d   1      13.490  12.509  -3.480  0.00  0.00     0.116 A 
ATOM     15  C   UNL d   1      13.202  12.508  -4.243  0.00  0.00     0.116 A 
ATOM     16  C   UNL d   1      13.030  13.237  -4.619  0.00  0.00     0.026 A 
ATOM     17  C   UNL d   1      13.153  13.957  -4.215  0.00  0.00     0.002 A 
BRANCH  14  18
ATOM     18  O   UNL d   1      13.661  11.787  -3.106  0.00  0.00    -0.326 OA
ATOM     19  C   UNL d   1      13.942  11.780  -2.328  0.00  0.00     0.181 C 
ENDBRANCH  14  18
BRANCH  15  20
ATOM     20  O   UNL d   1      13.073  11.809  -4.661  0.00  0.00    -0.326 OA
ATOM     21  C   UNL d   1      12.777  11.823  -5.424  0.00  0.00     0.181 C 
ENDBRANCH  15  20
ENDBRANCH   1  12
TORSDOF 5
ENDMDL
