MODEL 1
REMARK VINA RESULT:      -9.0      0.000      0.000
REMARK  1 active torsions:
REMARK  status: ('A' for Active; 'I' for Inactive)
REMARK    1  A    between atoms: C_24  and  N_4 
ROOT
ATOM      1  C   UNL d   1      44.804  28.834  58.517  0.00  0.00     0.111 A 
ATOM      2  C   UNL d   1      44.653  30.194  58.181  0.00  0.00     0.062 A 
ATOM      3  C   UNL d   1      44.697  29.613  58.726  0.00  0.00     0.018 A 
ATOM      4  N   UNL d   1      44.419  30.364  62.374  0.00  0.00    -0.305 N 
ATOM      5  C   UNL d   1      44.868  28.642  57.709  0.00  0.00     0.213 A 
ATOM      6  C   UNL d   1      44.717  30.002  57.373  0.00  0.00     0.101 A 
ATOM      7  C   UNL d   1      44.574  29.537  61.344  0.00  0.00     0.018 A 
ATOM      8  C   UNL d   1      44.465  30.327  61.554  0.00  0.00     0.064 A 
ATOM      9  O   UNL d   1      44.824  29.234  57.130  0.00  0.00    -0.288 OA
ATOM     10  C   UNL d   1      44.545  30.981  58.388  0.00  0.00     0.194 A 
ATOM     11  C   UNL d   1      44.497  29.614  62.661  0.00  0.00     0.064 A 
ATOM     12  C   UNL d   1      44.598  29.907  59.963  0.00  0.00     0.001 A 
ATOM     13  C   UNL d   1      44.594  29.092  62.033  0.00  0.00     0.018 A 
ATOM     14  C   UNL d   1      44.640  29.327  60.539  0.00  0.00     0.002 A 
ATOM     15  C   UNL d   1      44.848  28.235  59.089  0.00  0.00     0.105 C 
ATOM     16  N   UNL d   1      44.896  27.613  59.678  0.00  0.00    -0.191 NA
ATOM     17  C   UNL d   1      44.426  30.893  60.956  0.00  0.00     0.018 A 
ATOM     18  C   UNL d   1      44.672  30.602  56.793  0.00  0.00     0.002 A 
ATOM     19  C   UNL d   1      44.563  31.386  57.032  0.00  0.00     0.042 A 
ATOM     20  C   UNL d   1      44.499  31.578  57.840  0.00  0.00     0.019 A 
ATOM     21  C   UNL d   1      44.492  30.678  60.168  0.00  0.00     0.002 A 
ATOM     22  O   UNL d   1      44.479  31.175  59.206  0.00  0.00    -0.287 OA
ATOM     23  N   UNL d   1      44.978  27.851  57.471  0.00  0.00    -0.120 N 
ATOM     24  C   UNL d   1      44.496  29.305  63.440  0.00  0.00     0.018 A 
ATOM     25  C   UNL d   1      44.688  28.267  62.176  0.00  0.00     0.002 A 
ATOM     26  C   UNL d   1      44.479  32.151  56.843  0.00  0.00     0.009 C 
ATOM     27  C   UNL d   1      44.607  31.365  56.230  0.00  0.00     0.009 C 
ATOM     28  C   UNL d   1      44.685  27.975  62.946  0.00  0.00     0.000 A 
ATOM     29  C   UNL d   1      44.588  28.503  63.579  0.00  0.00     0.002 A 
ENDROOT
BRANCH   4  30
ATOM     30  C   UNL d   1      44.314  31.025  62.838  0.00  0.00     0.080 C 
ATOM     31  C   UNL d   1      44.942  31.541  62.991  0.00  0.00     0.021 C 
ENDBRANCH   4  30
TORSDOF 1
ENDMDL
