MODEL 1
REMARK VINA RESULT:      22.1      0.000      0.000
REMARK  2 active torsions:
REMARK  status: ('A' for Active; 'I' for Inactive)
REMARK       I    between atoms: N_3  and  C_1 
REMARK    1  A    between atoms: O_4  and  C_1 
REMARK    2  A    between atoms: C_6  and  O_4 
ROOT
ATOM      1  C   UNL d   1      13.387  12.554  -4.076  0.00  0.00     0.105 A 
ATOM      2  C   UNL d   1      13.150  13.218  -4.500  0.00  0.00     0.030 A 
ATOM      3  C   UNL d   1      13.508  12.605  -3.249  0.00  0.00     0.122 A 
ATOM      4  N   UNL d   1      13.507  11.830  -4.466  0.00  0.00    -0.242 NA
ATOM      5  C   UNL d   1      13.031  13.937  -4.110  0.00  0.00     0.059 A 
ATOM      6  C   UNL d   1      13.390  13.320  -2.863  0.00  0.00     0.027 A 
ATOM      7  C   UNL d   1      13.152  13.989  -3.282  0.00  0.00     0.013 A 
ATOM      8 CL   UNL d   1      12.792  14.610  -4.534  0.00  0.00    -0.082 Cl
ATOM      9  C   UNL d   1      13.031  13.167  -5.315  0.00  0.00     0.004 A 
ATOM     10  C   UNL d   1      13.388  11.780  -5.281  0.00  0.00     0.099 A 
ATOM     11  C   UNL d   1      13.149  12.452  -5.706  0.00  0.00     0.021 A 
ENDROOT
BRANCH   3  12
ATOM     12  O   UNL d   1      13.748  11.933  -2.817  0.00  0.00    -0.257 OA
BRANCH  12  13
ATOM     13  C   UNL d   1      13.567  11.863  -2.004  0.00  0.00     0.378 C 
ATOM     14  N   UNL d   1      14.159  11.876  -1.441  0.00  0.00    -0.247 N 
ATOM     15  C   UNL d   1      14.948  11.959  -1.673  0.00  0.00     0.112 A 
ATOM     16  C   UNL d   1      13.975  11.807  -0.640  0.00  0.00     0.112 A 
ATOM     17  C   UNL d   1      15.538  11.972  -1.100  0.00  0.00     0.142 A 
ATOM     18  O   UNL d   1      15.357  11.903  -0.304  0.00  0.00    -0.300 OA
ATOM     19  C   UNL d   1      14.568  11.820  -0.072  0.00  0.00     0.142 A 
ATOM     20  O   UNL d   1      12.769  11.779  -1.769  0.00  0.00    -0.237 OA
ENDBRANCH  12  13
ENDBRANCH   3  12
TORSDOF 2
ENDMDL
MODEL 2
REMARK VINA RESULT:      24.1      0.988      1.695
REMARK  2 active torsions:
REMARK  status: ('A' for Active; 'I' for Inactive)
REMARK       I    between atoms: N_3  and  C_1 
REMARK    1  A    between atoms: O_4  and  C_1 
REMARK    2  A    between atoms: C_6  and  O_4 
ROOT
ATOM      1  C   UNL d   1      13.192  13.216  -3.841  0.00  0.00     0.105 A 
ATOM      2  C   UNL d   1      13.052  13.316  -4.646  0.00  0.00     0.030 A 
ATOM      3  C   UNL d   1      13.209  12.447  -3.510  0.00  0.00     0.122 A 
ATOM      4  N   UNL d   1      13.315  13.877  -3.354  0.00  0.00    -0.242 NA
ATOM      5  C   UNL d   1      12.929  12.656  -5.129  0.00  0.00     0.059 A 
ATOM      6  C   UNL d   1      13.087  11.793  -3.991  0.00  0.00     0.027 A 
ATOM      7  C   UNL d   1      12.947  11.887  -4.798  0.00  0.00     0.013 A 
ATOM      8 CL   UNL d   1      12.788  12.752  -5.942  0.00  0.00    -0.082 Cl
ATOM      9  C   UNL d   1      13.035  14.073  -4.972  0.00  0.00     0.004 A 
ATOM     10  C   UNL d   1      13.298  14.635  -3.680  0.00  0.00     0.099 A 
ATOM     11  C   UNL d   1      13.157  14.732  -4.493  0.00  0.00     0.021 A 
ENDROOT
BRANCH   3  12
ATOM     12  O   UNL d   1      13.351  12.344  -2.694  0.00  0.00    -0.257 OA
BRANCH  12  13
ATOM     13  C   UNL d   1      14.094  12.077  -2.422  0.00  0.00     0.378 C 
ATOM     14  N   UNL d   1      14.274  12.080  -1.625  0.00  0.00    -0.247 N 
ATOM     15  C   UNL d   1      13.717  12.349  -1.078  0.00  0.00     0.112 A 
ATOM     16  C   UNL d   1      15.010  11.815  -1.363  0.00  0.00     0.112 A 
ATOM     17  C   UNL d   1      13.906  12.348  -0.277  0.00  0.00     0.142 A 
ATOM     18  O   UNL d   1      14.636  12.086  -0.014  0.00  0.00    -0.300 OA
ATOM     19  C   UNL d   1      15.193  11.817  -0.562  0.00  0.00     0.142 A 
ATOM     20  O   UNL d   1      14.659  11.805  -2.977  0.00  0.00    -0.237 OA
ENDBRANCH  12  13
ENDBRANCH   3  12
TORSDOF 2
ENDMDL
