MODEL 1
REMARK VINA RESULT:      -4.9      0.000      0.000
REMARK  5 active torsions:
REMARK  status: ('A' for Active; 'I' for Inactive)
REMARK    1  A    between atoms: C_3  and  C_1 
REMARK    2  A    between atoms: C_4  and  C_3 
REMARK    3  A    between atoms: C_7  and  C_4 
REMARK    4  A    between atoms: C_10  and  C_7 
REMARK    5  A    between atoms: O_19  and  C_9 
ROOT
ATOM      1  C   UNL d   1      58.161   0.033  29.927  0.00  0.00     0.199 C 
ATOM      2  O   UNL d   1      57.874   0.682  29.506  0.00  0.00    -0.286 OA
ENDROOT
BRANCH   1   3
ATOM      3  C   UNL d   1      58.790  -0.406  29.629  0.00  0.00     0.078 A 
ATOM      4  C   UNL d   1      59.552  -0.091  29.631  0.00  0.00     0.201 A 
ATOM      5  C   UNL d   1      60.183  -0.534  29.330  0.00  0.00     0.066 A 
ATOM      6  O   UNL d   1      59.690   0.665  29.931  0.00  0.00    -0.286 OA
ATOM      7  C   UNL d   1      60.049  -1.289  29.030  0.00  0.00     0.097 A 
ATOM      8  C   UNL d   1      59.287  -1.605  29.028  0.00  0.00     0.025 A 
ATOM      9  C   UNL d   1      58.658  -1.165  29.326  0.00  0.00     0.008 A 
BRANCH   7  10
ATOM     10  O   UNL d   1      60.681  -1.735  28.728  0.00  0.00    -0.328 OA
ATOM     11  C   UNL d   1      60.738  -2.539  28.899  0.00  0.00     0.181 C 
ENDBRANCH   7  10
ENDBRANCH   1   3
BRANCH   1  12
ATOM     12  C   UNL d   1      57.819  -0.175  30.646  0.00  0.00     0.042 C 
BRANCH  12  13
ATOM     13  C   UNL d   1      57.175   0.256  30.943  0.00  0.00     0.003 C 
BRANCH  13  14
ATOM     14  C   UNL d   1      56.797   0.013  31.633  0.00  0.00     0.000 A 
ATOM     15  C   UNL d   1      56.534   0.579  32.173  0.00  0.00     0.001 A 
ATOM     16  C   UNL d   1      56.156   0.337  32.862  0.00  0.00     0.011 A 
ATOM     17  C   UNL d   1      56.047  -0.492  32.998  0.00  0.00     0.058 A 
ATOM     18  C   UNL d   1      56.305  -1.035  32.470  0.00  0.00     0.011 A 
ATOM     19 CL   UNL d   1      55.673  -0.744  33.680  0.00  0.00    -0.082 Cl
ATOM     20  C   UNL d   1      56.683  -0.792  31.781  0.00  0.00     0.001 A 
ENDBRANCH  13  14
ENDBRANCH  12  13
ENDBRANCH   1  12
TORSDOF 5
ENDMDL
MODEL 2
REMARK VINA RESULT:      -4.5      2.341      4.845
REMARK  5 active torsions:
REMARK  status: ('A' for Active; 'I' for Inactive)
REMARK    1  A    between atoms: C_3  and  C_1 
REMARK    2  A    between atoms: C_4  and  C_3 
REMARK    3  A    between atoms: C_7  and  C_4 
REMARK    4  A    between atoms: C_10  and  C_7 
REMARK    5  A    between atoms: O_19  and  C_9 
ROOT
ATOM      1  C   UNL d   1      57.012  -0.765  31.505  0.00  0.00     0.199 C 
ATOM      2  O   UNL d   1      56.894  -1.539  31.247  0.00  0.00    -0.286 OA
ENDROOT
BRANCH   1   3
ATOM      3  C   UNL d   1      56.536  -0.451  32.098  0.00  0.00     0.078 A 
ATOM      4  C   UNL d   1      56.151  -0.953  32.627  0.00  0.00     0.201 A 
ATOM      5  C   UNL d   1      55.672  -0.636  33.223  0.00  0.00     0.066 A 
ATOM      6  O   UNL d   1      56.240  -1.771  32.566  0.00  0.00    -0.286 OA
ATOM      7  C   UNL d   1      55.581   0.180  33.287  0.00  0.00     0.097 A 
ATOM      8  C   UNL d   1      55.966   0.682  32.758  0.00  0.00     0.025 A 
ATOM      9  C   UNL d   1      56.443   0.368  32.165  0.00  0.00     0.008 A 
BRANCH   7  10
ATOM     10  O   UNL d   1      55.101   0.499  33.885  0.00  0.00    -0.328 OA
ATOM     11  C   UNL d   1      55.401   0.600  34.646  0.00  0.00     0.181 C 
ENDBRANCH   7  10
ENDBRANCH   1   3
BRANCH   1  12
ATOM     12  C   UNL d   1      57.607  -0.305  31.169  0.00  0.00     0.042 C 
BRANCH  12  13
ATOM     13  C   UNL d   1      57.794  -0.385  30.364  0.00  0.00     0.003 C 
BRANCH  13  14
ATOM     14  C   UNL d   1      58.528  -0.141  30.084  0.00  0.00     0.000 A 
ATOM     15  C   UNL d   1      58.949   0.436  30.497  0.00  0.00     0.001 A 
ATOM     16  C   UNL d   1      59.683   0.681  30.216  0.00  0.00     0.011 A 
ATOM     17  C   UNL d   1      59.986   0.332  29.507  0.00  0.00     0.058 A 
ATOM     18  C   UNL d   1      59.571  -0.227  29.111  0.00  0.00     0.011 A 
ATOM     19 CL   UNL d   1      60.714   0.568  29.219  0.00  0.00    -0.082 Cl
ATOM     20  C   UNL d   1      58.838  -0.472  29.392  0.00  0.00     0.001 A 
ENDBRANCH  13  14
ENDBRANCH  12  13
ENDBRANCH   1  12
TORSDOF 5
ENDMDL
MODEL 3
REMARK VINA RESULT:      -4.2      2.098      4.463
REMARK  5 active torsions:
REMARK  status: ('A' for Active; 'I' for Inactive)
REMARK    1  A    between atoms: C_3  and  C_1 
REMARK    2  A    between atoms: C_4  and  C_3 
REMARK    3  A    between atoms: C_7  and  C_4 
REMARK    4  A    between atoms: C_10  and  C_7 
REMARK    5  A    between atoms: O_19  and  C_9 
ROOT
ATOM      1  C   UNL d   1      57.708   0.010  30.715  0.00  0.00     0.199 C 
ATOM      2  O   UNL d   1      57.632   0.675  30.232  0.00  0.00    -0.286 OA
ENDROOT
BRANCH   1   3
ATOM      3  C   UNL d   1      57.362   0.001  31.461  0.00  0.00     0.078 A 
ATOM      4  C   UNL d   1      57.757   0.336  32.103  0.00  0.00     0.201 A 
ATOM      5  C   UNL d   1      57.407   0.326  32.853  0.00  0.00     0.066 A 
ATOM      6  O   UNL d   1      58.499   0.682  32.003  0.00  0.00    -0.286 OA
ATOM      7  C   UNL d   1      56.666  -0.018  32.958  0.00  0.00     0.097 A 
ATOM      8  C   UNL d   1      56.272  -0.353  32.315  0.00  0.00     0.025 A 
ATOM      9  C   UNL d   1      56.618  -0.344  31.568  0.00  0.00     0.008 A 
BRANCH   7  10
ATOM     10  O   UNL d   1      56.314  -0.029  33.710  0.00  0.00    -0.328 OA
ATOM     11  C   UNL d   1      55.494  -0.029  33.782  0.00  0.00     0.181 C 
ENDBRANCH   7  10
ENDBRANCH   1   3
BRANCH   1  12
ATOM     12  C   UNL d   1      58.131  -0.645  30.450  0.00  0.00     0.042 C 
BRANCH  12  13
ATOM     13  C   UNL d   1      58.421  -0.669  29.672  0.00  0.00     0.003 C 
BRANCH  13  14
ATOM     14  C   UNL d   1      58.865  -1.312  29.416  0.00  0.00     0.000 A 
ATOM     15  C   UNL d   1      59.663  -1.208  29.233  0.00  0.00     0.001 A 
ATOM     16  C   UNL d   1      60.108  -1.852  28.976  0.00  0.00     0.011 A 
ATOM     17  C   UNL d   1      59.730  -2.607  28.907  0.00  0.00     0.058 A 
ATOM     18  C   UNL d   1      58.956  -2.700  29.086  0.00  0.00     0.011 A 
ATOM     19 CL   UNL d   1      60.162  -3.252  28.653  0.00  0.00    -0.082 Cl
ATOM     20  C   UNL d   1      58.512  -2.056  29.343  0.00  0.00     0.001 A 
ENDBRANCH  13  14
ENDBRANCH  12  13
ENDBRANCH   1  12
TORSDOF 5
ENDMDL
MODEL 4
REMARK VINA RESULT:      -4.1      1.178      1.576
REMARK  5 active torsions:
REMARK  status: ('A' for Active; 'I' for Inactive)
REMARK    1  A    between atoms: C_3  and  C_1 
REMARK    2  A    between atoms: C_4  and  C_3 
REMARK    3  A    between atoms: C_7  and  C_4 
REMARK    4  A    between atoms: C_10  and  C_7 
REMARK    5  A    between atoms: O_19  and  C_9 
ROOT
ATOM      1  C   UNL d   1      57.755  -0.690  30.524  0.00  0.00     0.199 C 
ATOM      2  O   UNL d   1      57.449  -1.422  30.298  0.00  0.00    -0.286 OA
ENDROOT
BRANCH   1   3
ATOM      3  C   UNL d   1      58.366  -0.348  30.092  0.00  0.00     0.078 A 
ATOM      4  C   UNL d   1      58.195   0.195  29.495  0.00  0.00     0.201 A 
ATOM      5  C   UNL d   1      58.811   0.538  29.061  0.00  0.00     0.066 A 
ATOM      6  O   UNL d   1      57.413   0.398  29.327  0.00  0.00    -0.286 OA
ATOM      7  C   UNL d   1      59.593   0.338  29.226  0.00  0.00     0.097 A 
ATOM      8  C   UNL d   1      59.763  -0.205  29.823  0.00  0.00     0.025 A 
ATOM      9  C   UNL d   1      59.152  -0.547  30.256  0.00  0.00     0.008 A 
BRANCH   7  10
ATOM     10  O   UNL d   1      60.211   0.682  28.792  0.00  0.00    -0.328 OA
ATOM     11  C   UNL d   1      60.991   0.462  28.939  0.00  0.00     0.181 C 
ENDBRANCH   7  10
ENDBRANCH   1   3
BRANCH   1  12
ATOM     12  C   UNL d   1      57.451  -0.302  31.183  0.00  0.00     0.042 C 
BRANCH  12  13
ATOM     13  C   UNL d   1      57.156  -0.737  31.826  0.00  0.00     0.003 C 
BRANCH  13  14
ATOM     14  C   UNL d   1      56.661  -0.379  32.376  0.00  0.00     0.000 A 
ATOM     15  C   UNL d   1      56.898   0.323  32.740  0.00  0.00     0.001 A 
ATOM     16  C   UNL d   1      56.403   0.682  33.291  0.00  0.00     0.011 A 
ATOM     17  C   UNL d   1      55.659   0.318  33.469  0.00  0.00     0.058 A 
ATOM     18  C   UNL d   1      55.436  -0.363  33.112  0.00  0.00     0.011 A 
ATOM     19 CL   UNL d   1      55.159   0.666  34.014  0.00  0.00    -0.082 Cl
ATOM     20  C   UNL d   1      55.931  -0.721  32.562  0.00  0.00     0.001 A 
ENDBRANCH  13  14
ENDBRANCH  12  13
ENDBRANCH   1  12
TORSDOF 5
ENDMDL
MODEL 5
REMARK VINA RESULT:      -3.5      8.672      9.877
REMARK  5 active torsions:
REMARK  status: ('A' for Active; 'I' for Inactive)
REMARK    1  A    between atoms: C_3  and  C_1 
REMARK    2  A    between atoms: C_4  and  C_3 
REMARK    3  A    between atoms: C_7  and  C_4 
REMARK    4  A    between atoms: C_10  and  C_7 
REMARK    5  A    between atoms: O_19  and  C_9 
ROOT
ATOM      1  C   UNL d   1      59.871  -8.998  35.265  0.00  0.00     0.199 C 
ATOM      2  O   UNL d   1      60.072  -9.674  35.693  0.00  0.00    -0.286 OA
ENDROOT
BRANCH   1   3
ATOM      3  C   UNL d   1      60.108  -8.256  35.531  0.00  0.00     0.078 A 
ATOM      4  C   UNL d   1      59.629  -7.831  36.050  0.00  0.00     0.201 A 
ATOM      5  C   UNL d   1      59.869  -7.085  36.317  0.00  0.00     0.066 A 
ATOM      6  O   UNL d   1      58.910  -8.144  36.306  0.00  0.00    -0.286 OA
ATOM      7  C   UNL d   1      60.586  -6.768  36.063  0.00  0.00     0.097 A 
ATOM      8  C   UNL d   1      61.066  -7.194  35.544  0.00  0.00     0.025 A 
ATOM      9  C   UNL d   1      60.828  -7.936  35.278  0.00  0.00     0.008 A 
BRANCH   7  10
ATOM     10  O   UNL d   1      60.828  -6.020  36.330  0.00  0.00    -0.328 OA
ATOM     11  C   UNL d   1      61.022  -5.431  35.787  0.00  0.00     0.181 C 
ENDBRANCH   7  10
ENDBRANCH   1   3
BRANCH   1  12
ATOM     12  C   UNL d   1      59.433  -9.064  34.571  0.00  0.00     0.042 C 
BRANCH  12  13
ATOM     13  C   UNL d   1      59.472  -9.758  34.117  0.00  0.00     0.003 C 
BRANCH  13  14
ATOM     14  C   UNL d   1      59.215  -9.756  33.336  0.00  0.00     0.000 A 
ATOM     15  C   UNL d   1      59.768  -9.798  32.725  0.00  0.00     0.001 A 
ATOM     16  C   UNL d   1      59.511  -9.796  31.943  0.00  0.00     0.011 A 
ATOM     17  C   UNL d   1      58.680  -9.751  31.788  0.00  0.00     0.058 A 
ATOM     18  C   UNL d   1      58.149  -9.711  32.385  0.00  0.00     0.011 A 
ATOM     19 CL   UNL d   1      58.414  -9.749  31.015  0.00  0.00    -0.082 Cl
ATOM     20  C   UNL d   1      58.406  -9.713  33.166  0.00  0.00     0.001 A 
ENDBRANCH  13  14
ENDBRANCH  12  13
ENDBRANCH   1  12
TORSDOF 5
ENDMDL
MODEL 6
REMARK VINA RESULT:      -3.4      1.358      2.254
REMARK  5 active torsions:
REMARK  status: ('A' for Active; 'I' for Inactive)
REMARK    1  A    between atoms: C_3  and  C_1 
REMARK    2  A    between atoms: C_4  and  C_3 
REMARK    3  A    between atoms: C_7  and  C_4 
REMARK    4  A    between atoms: C_10  and  C_7 
REMARK    5  A    between atoms: O_19  and  C_9 
ROOT
ATOM      1  C   UNL d   1      57.103  -0.799  31.440  0.00  0.00     0.199 C 
ATOM      2  O   UNL d   1      56.919  -1.602  31.403  0.00  0.00    -0.286 OA
ENDROOT
BRANCH   1   3
ATOM      3  C   UNL d   1      57.612  -0.467  30.886  0.00  0.00     0.078 A 
ATOM      4  C   UNL d   1      57.987  -0.946  30.329  0.00  0.00     0.201 A 
ATOM      5  C   UNL d   1      58.499  -0.610  29.773  0.00  0.00     0.066 A 
ATOM      6  O   UNL d   1      57.853  -1.760  30.323  0.00  0.00    -0.286 OA
ATOM      7  C   UNL d   1      58.635   0.202  29.776  0.00  0.00     0.097 A 
ATOM      8  C   UNL d   1      58.261   0.682  30.333  0.00  0.00     0.025 A 
ATOM      9  C   UNL d   1      57.750   0.349  30.887  0.00  0.00     0.008 A 
BRANCH   7  10
ATOM     10  O   UNL d   1      59.149   0.540  29.219  0.00  0.00    -0.328 OA
ATOM     11  C   UNL d   1      59.556   0.060  28.688  0.00  0.00     0.181 C 
ENDBRANCH   7  10
ENDBRANCH   1   3
BRANCH   1  12
ATOM     12  C   UNL d   1      56.775  -0.328  32.031  0.00  0.00     0.042 C 
BRANCH  12  13
ATOM     13  C   UNL d   1      56.675  -0.630  32.798  0.00  0.00     0.003 C 
BRANCH  13  14
ATOM     14  C   UNL d   1      56.118  -0.299  33.304  0.00  0.00     0.000 A 
ATOM     15  C   UNL d   1      56.364   0.039  34.015  0.00  0.00     0.001 A 
ATOM     16  C   UNL d   1      55.806   0.371  34.522  0.00  0.00     0.011 A 
ATOM     17  C   UNL d   1      54.990   0.355  34.296  0.00  0.00     0.058 A 
ATOM     18  C   UNL d   1      54.759   0.026  33.604  0.00  0.00     0.011 A 
ATOM     19 CL   UNL d   1      54.428   0.682  34.791  0.00  0.00    -0.082 Cl
ATOM     20  C   UNL d   1      55.317  -0.305  33.098  0.00  0.00     0.001 A 
ENDBRANCH  13  14
ENDBRANCH  12  13
ENDBRANCH   1  12
TORSDOF 5
ENDMDL
