MODEL 1
REMARK VINA RESULT:      19.3      0.000      0.000
REMARK  3 active torsions:
REMARK  status: ('A' for Active; 'I' for Inactive)
REMARK    1  A    between atoms: N_2  and  C_1 
REMARK    2  A    between atoms: C_5  and  C_1 
REMARK    3  A    between atoms: C_3  and  N_2 
ROOT
ATOM      1  N   UNL d   1     -57.486 -98.818 -44.065  0.00  0.00    -0.233 NA
ENDROOT
BRANCH   1   2
ATOM      2  C   UNL d   1     -56.937 -98.972 -44.648  0.00  0.00     0.153 C 
ATOM      3  S   UNL d   1     -57.096 -98.781 -45.437  0.00  0.00    -0.056 SA
BRANCH   2   4
ATOM      4  C   UNL d   1     -56.216 -99.320 -44.455  0.00  0.00     0.109 A 
ATOM      5  N   UNL d   1     -56.168-100.138 -44.343  0.00  0.00    -0.242 NA
ATOM      6  C   UNL d   1     -55.448-100.486 -44.150  0.00  0.00     0.099 A 
ATOM      7  C   UNL d   1     -54.772-100.019 -44.068  0.00  0.00     0.021 A 
ATOM      8  C   UNL d   1     -54.810 -99.201 -44.178  0.00  0.00     0.003 A 
ATOM      9  C   UNL d   1     -55.533 -98.849 -44.372  0.00  0.00     0.021 A 
ENDBRANCH   2   4
ENDBRANCH   1   2
BRANCH   1  10
ATOM     10  C   UNL d   1     -58.295 -98.798 -44.254  0.00  0.00     0.082 A 
ATOM     11  C   UNL d   1     -58.850 -98.791 -43.644  0.00  0.00     0.018 A 
ATOM     12  C   UNL d   1     -59.659 -98.771 -43.833  0.00  0.00     0.002 A 
ATOM     13  C   UNL d   1     -58.610 -98.802 -42.857  0.00  0.00     0.002 C 
ATOM     14  C   UNL d   1     -59.899 -98.760 -44.620  0.00  0.00     0.000 A 
ATOM     15  C   UNL d   1     -59.328 -98.768 -45.221  0.00  0.00     0.002 A 
ATOM     16  C   UNL d   1     -58.529 -98.787 -45.036  0.00  0.00     0.019 A 
ATOM     17  C   UNL d   1     -59.563 -98.757 -46.015  0.00  0.00     0.000 C 
ENDBRANCH   1  10
TORSDOF 3
ENDMDL
MODEL 2
REMARK VINA RESULT:      21.2      0.727      1.423
REMARK  3 active torsions:
REMARK  status: ('A' for Active; 'I' for Inactive)
REMARK    1  A    between atoms: N_2  and  C_1 
REMARK    2  A    between atoms: C_5  and  C_1 
REMARK    3  A    between atoms: C_3  and  N_2 
ROOT
ATOM      1  N   UNL d   1     -57.302 -98.755 -44.782  0.00  0.00    -0.233 NA
ENDROOT
BRANCH   1   2
ATOM      2  C   UNL d   1     -56.798 -99.018 -44.196  0.00  0.00     0.153 C 
ATOM      3  S   UNL d   1     -56.958 -98.859 -43.400  0.00  0.00    -0.056 SA
BRANCH   2   4
ATOM      4  C   UNL d   1     -56.122 -99.445 -44.394  0.00  0.00     0.109 A 
ATOM      5  N   UNL d   1     -56.116-100.269 -44.315  0.00  0.00    -0.242 NA
ATOM      6  C   UNL d   1     -55.441-100.696 -44.513  0.00  0.00     0.099 A 
ATOM      7  C   UNL d   1     -54.770-100.304 -44.791  0.00  0.00     0.021 A 
ATOM      8  C   UNL d   1     -54.767 -99.481 -44.873  0.00  0.00     0.003 A 
ATOM      9  C   UNL d   1     -55.445 -99.050 -44.675  0.00  0.00     0.021 A 
ENDBRANCH   2   4
ENDBRANCH   1   2
BRANCH   1  10
ATOM     10  C   UNL d   1     -58.123 -98.755 -44.651  0.00  0.00     0.082 A 
ATOM     11  C   UNL d   1     -58.633 -98.756 -45.299  0.00  0.00     0.018 A 
ATOM     12  C   UNL d   1     -59.453 -98.756 -45.167  0.00  0.00     0.002 A 
ATOM     13  C   UNL d   1     -58.338 -98.756 -46.066  0.00  0.00     0.002 C 
ATOM     14  C   UNL d   1     -59.749 -98.756 -44.399  0.00  0.00     0.000 A 
ATOM     15  C   UNL d   1     -59.223 -98.756 -43.759  0.00  0.00     0.002 A 
ATOM     16  C   UNL d   1     -58.412 -98.755 -43.887  0.00  0.00     0.019 A 
ATOM     17  C   UNL d   1     -59.514 -98.756 -42.984  0.00  0.00     0.000 C 
ENDBRANCH   1  10
TORSDOF 3
ENDMDL
