MODEL 1
REMARK VINA RESULT:      46.1      0.000      0.000
REMARK  4 active torsions:
REMARK  status: ('A' for Active; 'I' for Inactive)
REMARK    1  A    between atoms: C_2  and  N_1 
REMARK       I    between atoms: C_3  and  N_1 
REMARK    2  A    between atoms: C_4  and  C_3 
REMARK    3  A    between atoms: C_6  and  C_4 
REMARK    4  A    between atoms: C_10  and  C_6 
ROOT
ATOM      1  N   UNL d   1      59.007  49.706  50.758  0.00  0.00    -0.208 NA
ATOM      2  C   UNL d   1      59.789  49.689  50.485  0.00  0.00     0.279 C 
ATOM      3  O   UNL d   1      59.936  49.663  49.674  0.00  0.00    -0.265 OA
ENDROOT
BRANCH   1   4
ATOM      4  C   UNL d   1      58.381  49.697  50.217  0.00  0.00     0.085 A 
ATOM      5  C   UNL d   1      57.615  49.694  50.498  0.00  0.00     0.021 A 
ATOM      6  C   UNL d   1      56.979  49.685  49.963  0.00  0.00     0.021 A 
ATOM      7  C   UNL d   1      57.460  49.699  51.308  0.00  0.00     0.022 A 
ATOM      8  C   UNL d   1      56.214  49.681  50.240  0.00  0.00     0.099 A 
ATOM      9  C   UNL d   1      57.134  49.680  49.153  0.00  0.00     0.002 A 
ATOM     10  N   UNL d   1      56.060  49.686  51.042  0.00  0.00    -0.242 NA
ATOM     11  C   UNL d   1      56.686  49.695  51.583  0.00  0.00     0.099 A 
ATOM     12  C   UNL d   1      57.913  49.684  48.875  0.00  0.00     0.002 A 
ATOM     13  C   UNL d   1      58.535  49.692  49.414  0.00  0.00     0.019 A 
ENDBRANCH   1   4
BRANCH   2  14
ATOM     14  C   UNL d   1      60.417  49.697  51.017  0.00  0.00     0.062 C 
BRANCH  14  15
ATOM     15  C   UNL d   1      60.413  49.191  51.666  0.00  0.00     0.005 C 
BRANCH  15  16
ATOM     16  C   UNL d   1      61.037  49.219  52.208  0.00  0.00     0.000 A 
ATOM     17  C   UNL d   1      60.960  49.668  52.897  0.00  0.00     0.000 A 
ATOM     18  C   UNL d   1      61.577  49.700  53.440  0.00  0.00     0.000 A 
ATOM     19  C   UNL d   1      62.279  49.280  53.297  0.00  0.00     0.000 A 
ATOM     20  C   UNL d   1      62.357  48.831  52.611  0.00  0.00     0.000 A 
ATOM     21  C   UNL d   1      61.738  48.799  52.065  0.00  0.00     0.000 A 
ENDBRANCH  15  16
ENDBRANCH  14  15
ENDBRANCH   2  14
TORSDOF 4
ENDMDL
MODEL 2
REMARK VINA RESULT:      46.2      1.305      2.104
REMARK  4 active torsions:
REMARK  status: ('A' for Active; 'I' for Inactive)
REMARK    1  A    between atoms: C_2  and  N_1 
REMARK       I    between atoms: C_3  and  N_1 
REMARK    2  A    between atoms: C_4  and  C_3 
REMARK    3  A    between atoms: C_6  and  C_4 
REMARK    4  A    between atoms: C_10  and  C_6 
ROOT
ATOM      1  N   UNL d   1      58.995  49.693  50.618  0.00  0.00    -0.208 NA
ATOM      2  C   UNL d   1      59.571  49.643  51.211  0.00  0.00     0.279 C 
ATOM      3  O   UNL d   1      59.338  49.579  52.000  0.00  0.00    -0.265 OA
ENDROOT
BRANCH   1   4
ATOM      4  C   UNL d   1      58.193  49.677  50.820  0.00  0.00     0.085 A 
ATOM      5  C   UNL d   1      57.636  49.632  50.225  0.00  0.00     0.021 A 
ATOM      6  C   UNL d   1      56.827  49.615  50.417  0.00  0.00     0.021 A 
ATOM      7  C   UNL d   1      57.863  49.602  49.432  0.00  0.00     0.022 A 
ATOM      8  C   UNL d   1      56.269  49.570  49.826  0.00  0.00     0.099 A 
ATOM      9  C   UNL d   1      56.600  49.646  51.210  0.00  0.00     0.002 A 
ATOM     10  N   UNL d   1      56.494  49.540  49.042  0.00  0.00    -0.242 NA
ATOM     11  C   UNL d   1      57.296  49.556  48.840  0.00  0.00     0.099 A 
ATOM     12  C   UNL d   1      57.170  49.691  51.807  0.00  0.00     0.002 A 
ATOM     13  C   UNL d   1      57.968  49.707  51.605  0.00  0.00     0.019 A 
ENDBRANCH   1   4
BRANCH   2  14
ATOM     14  C   UNL d   1      60.371  49.658  51.018  0.00  0.00     0.062 C 
BRANCH  14  15
ATOM     15  C   UNL d   1      60.896  49.155  51.403  0.00  0.00     0.005 C 
BRANCH  15  16
ATOM     16  C   UNL d   1      61.071  48.418  51.069  0.00  0.00     0.000 A 
ATOM     17  C   UNL d   1      61.695  48.351  50.533  0.00  0.00     0.000 A 
ATOM     18  C   UNL d   1      61.875  47.621  50.197  0.00  0.00     0.000 A 
ATOM     19  C   UNL d   1      61.428  46.951  50.398  0.00  0.00     0.000 A 
ATOM     20  C   UNL d   1      60.805  47.016  50.932  0.00  0.00     0.000 A 
ATOM     21  C   UNL d   1      60.624  47.748  51.270  0.00  0.00     0.000 A 
ENDBRANCH  15  16
ENDBRANCH  14  15
ENDBRANCH   2  14
TORSDOF 4
ENDMDL
