MODEL 1
REMARK VINA RESULT:      39.6      0.000      0.000
REMARK  2 active torsions:
REMARK  status: ('A' for Active; 'I' for Inactive)
REMARK    1  A    between atoms: C_4  and  C_1 
REMARK    2  A    between atoms: N_2  and  C_9 
REMARK       I    between atoms: N_7  and  C_4 
ROOT
ATOM      1  C   UNL d   1     -50.919  25.416  33.552  0.00  0.00     0.086 A 
ATOM      2  S   UNL d   1     -51.466  25.962  33.354  0.00  0.00    -0.082 SA
ATOM      3  C   UNL d   1     -50.216  25.770  33.757  0.00  0.00     0.012 A 
ATOM      4  C   UNL d   1     -50.323  26.588  33.685  0.00  0.00     0.008 A 
ATOM      5  C   UNL d   1     -51.100  26.707  33.434  0.00  0.00     0.030 A 
ATOM      6  C   UNL d   1     -50.107  28.002  33.686  0.00  0.00     0.127 A 
ATOM      7  C   UNL d   1     -49.837  27.229  33.807  0.00  0.00     0.024 A 
ATOM      8  C   UNL d   1     -51.391  27.467  33.306  0.00  0.00     0.008 A 
ATOM      9  C   UNL d   1     -50.884  28.121  33.435  0.00  0.00     0.024 A 
ENDROOT
BRANCH   1  10
ATOM     10  C   UNL d   1     -51.063  24.584  33.546  0.00  0.00     0.271 C 
ATOM     11  N   UNL d   1     -51.819  24.293  33.468  0.00  0.00    -0.272 N 
ATOM     12  C   UNL d   1     -52.452  24.816  33.393  0.00  0.00     0.083 A 
ATOM     13  C   UNL d   1     -51.961  23.470  33.462  0.00  0.00     0.083 A 
ATOM     14  C   UNL d   1     -53.222  24.536  33.312  0.00  0.00     0.019 A 
ATOM     15  C   UNL d   1     -53.366  23.723  33.306  0.00  0.00     0.003 A 
ATOM     16  C   UNL d   1     -52.735  23.191  33.381  0.00  0.00     0.019 A 
ATOM     17  O   UNL d   1     -50.419  24.072  33.623  0.00  0.00    -0.266 OA
ENDBRANCH   1  10
BRANCH   6  18
ATOM     18  N   UNL d   1     -49.600  28.658  33.815  0.00  0.00    -0.114 N 
ATOM     19  O   UNL d   1     -48.837  28.534  34.139  0.00  0.00    -0.532 OA
ATOM     20  O   UNL d   1     -49.848  29.415  33.624  0.00  0.00    -0.532 OA
ENDBRANCH   6  18
TORSDOF 2
ENDMDL
