MODEL 1
REMARK VINA RESULT:      -4.9      0.000      0.000
REMARK  5 active torsions:
REMARK  status: ('A' for Active; 'I' for Inactive)
REMARK    1  A    between atoms: N_6  and  C_1 
REMARK    2  A    between atoms: S_10  and  C_4 
REMARK       I    between atoms: C_7  and  N_6 
REMARK       I    between atoms: N_8  and  C_7 
REMARK    3  A    between atoms: C_11  and  N_8 
REMARK    4  A    between atoms: C_12  and  S_10 
REMARK    5  A    between atoms: C_15  and  C_12 
ROOT
ATOM      1  N   UNL d   1      57.522  -0.454  30.826  0.00  0.00    -0.321 NA
ATOM      2  C   UNL d   1      57.832  -0.314  30.203  0.00  0.00     0.422 C 
ATOM      3  N   UNL d   1      58.200  -0.124  29.428  0.00  0.00    -0.180 NA
ATOM      4  O   UNL d   1      58.303  -0.828  30.302  0.00  0.00    -0.228 OA
ENDROOT
BRANCH   1   5
ATOM      5  C   UNL d   1      57.031  -0.492  31.550  0.00  0.00     0.271 A 
ATOM      6  S   UNL d   1      56.878  -0.064  32.095  0.00  0.00    -0.006 SA
ATOM      7  C   UNL d   1      56.435  -0.297  32.605  0.00  0.00     0.166 A 
ATOM      8  N   UNL d   1      56.153  -0.949  32.566  0.00  0.00    -0.132 NA
ATOM      9  N   UNL d   1      56.749  -1.143  31.511  0.00  0.00    -0.107 NA
BRANCH   7  10
ATOM     10  S   UNL d   1      56.199   0.035  33.207  0.00  0.00    -0.059 SA
BRANCH  10  11
ATOM     11  C   UNL d   1      55.390   0.062  33.374  0.00  0.00     0.037 C 
BRANCH  11  12
ATOM     12  C   UNL d   1      55.125   0.443  34.056  0.00  0.00     0.007 C 
ATOM     13  C   UNL d   1      54.339   0.682  34.120  0.00  0.00     0.001 C 
ENDBRANCH  11  12
ENDBRANCH  10  11
ENDBRANCH   7  10
ENDBRANCH   1   5
BRANCH   3  14
ATOM     14  C   UNL d   1      58.858  -0.564  29.165  0.00  0.00     0.087 A 
ATOM     15  C   UNL d   1      59.613  -0.315  29.353  0.00  0.00     0.019 A 
ATOM     16  C   UNL d   1      60.273  -0.756  29.091  0.00  0.00     0.002 A 
ATOM     17  C   UNL d   1      60.163  -1.439  28.646  0.00  0.00     0.000 A 
ATOM     18  C   UNL d   1      59.392  -1.691  28.455  0.00  0.00     0.002 A 
ATOM     19  C   UNL d   1      58.741  -1.252  28.717  0.00  0.00     0.019 A 
ENDBRANCH   3  14
TORSDOF 5
ENDMDL
MODEL 2
REMARK VINA RESULT:      -4.4      1.506      5.048
REMARK  5 active torsions:
REMARK  status: ('A' for Active; 'I' for Inactive)
REMARK    1  A    between atoms: N_6  and  C_1 
REMARK    2  A    between atoms: S_10  and  C_4 
REMARK       I    between atoms: C_7  and  N_6 
REMARK       I    between atoms: N_8  and  C_7 
REMARK    3  A    between atoms: C_11  and  N_8 
REMARK    4  A    between atoms: C_12  and  S_10 
REMARK    5  A    between atoms: C_15  and  C_12 
ROOT
ATOM      1  N   UNL d   1      57.574   0.195  30.928  0.00  0.00    -0.321 NA
ATOM      2  C   UNL d   1      57.417   0.296  31.614  0.00  0.00     0.422 C 
ATOM      3  N   UNL d   1      57.245   0.433  32.465  0.00  0.00    -0.180 NA
ATOM      4  O   UNL d   1      56.805  -0.042  31.542  0.00  0.00    -0.228 OA
ENDROOT
BRANCH   1   5
ATOM      5  C   UNL d   1      57.916   0.159  30.123  0.00  0.00     0.271 A 
ATOM      6  S   UNL d   1      58.429  -0.206  29.795  0.00  0.00    -0.006 SA
ATOM      7  C   UNL d   1      58.555  -0.079  29.102  0.00  0.00     0.166 A 
ATOM      8  N   UNL d   1      58.171   0.405  28.750  0.00  0.00    -0.132 NA
ATOM      9  N   UNL d   1      57.533   0.643  29.771  0.00  0.00    -0.107 NA
BRANCH   7  10
ATOM     10  S   UNL d   1      59.043  -0.377  28.654  0.00  0.00    -0.059 SA
BRANCH  10  11
ATOM     11  C   UNL d   1      59.744  -0.692  28.956  0.00  0.00     0.037 C 
BRANCH  11  12
ATOM     12  C   UNL d   1      60.265  -1.089  28.455  0.00  0.00     0.007 C 
ATOM     13  C   UNL d   1      61.071  -1.114  28.626  0.00  0.00     0.001 C 
ENDBRANCH  11  12
ENDBRANCH  10  11
ENDBRANCH   7  10
ENDBRANCH   1   5
BRANCH   3  14
ATOM     14  C   UNL d   1      56.531   0.148  32.790  0.00  0.00     0.087 A 
ATOM     15  C   UNL d   1      56.450  -0.648  32.955  0.00  0.00     0.019 A 
ATOM     16  C   UNL d   1      55.736  -0.933  33.281  0.00  0.00     0.002 A 
ATOM     17  C   UNL d   1      55.116  -0.416  33.435  0.00  0.00     0.000 A 
ATOM     18  C   UNL d   1      55.200   0.396  33.267  0.00  0.00     0.002 A 
ATOM     19  C   UNL d   1      55.910   0.675  32.943  0.00  0.00     0.019 A 
ENDBRANCH   3  14
TORSDOF 5
ENDMDL
MODEL 3
REMARK VINA RESULT:      -2.8      9.170      9.986
REMARK  5 active torsions:
REMARK  status: ('A' for Active; 'I' for Inactive)
REMARK    1  A    between atoms: N_6  and  C_1 
REMARK    2  A    between atoms: S_10  and  C_4 
REMARK       I    between atoms: C_7  and  N_6 
REMARK       I    between atoms: N_8  and  C_7 
REMARK    3  A    between atoms: C_11  and  N_8 
REMARK    4  A    between atoms: C_12  and  S_10 
REMARK    5  A    between atoms: C_15  and  C_12 
ROOT
ATOM      1  N   UNL d   1      58.663  -9.612  32.894  0.00  0.00    -0.321 NA
ATOM      2  C   UNL d   1      59.079  -9.692  33.464  0.00  0.00     0.422 C 
ATOM      3  N   UNL d   1      59.598  -9.814  34.162  0.00  0.00    -0.180 NA
ATOM      4  O   UNL d   1      58.948  -9.033  33.673  0.00  0.00    -0.228 OA
ENDROOT
BRANCH   1   5
ATOM      5  C   UNL d   1      58.196  -9.681  32.156  0.00  0.00     0.271 A 
ATOM      6  S   UNL d   1      58.330  -9.717  31.460  0.00  0.00    -0.006 SA
ATOM      7  C   UNL d   1      57.782  -9.773  31.005  0.00  0.00     0.166 A 
ATOM      8  N   UNL d   1      57.113  -9.794  31.246  0.00  0.00    -0.132 NA
ATOM      9  N   UNL d   1      57.527  -9.702  32.398  0.00  0.00    -0.107 NA
BRANCH   7  10
ATOM     10  S   UNL d   1      57.780  -9.818  30.279  0.00  0.00    -0.059 SA
BRANCH  10  11
ATOM     11  C   UNL d   1      57.132  -9.539  29.849  0.00  0.00     0.037 C 
BRANCH  11  12
ATOM     12  C   UNL d   1      57.113  -9.630  29.030  0.00  0.00     0.007 C 
ATOM     13  C   UNL d   1      56.729  -9.074  28.557  0.00  0.00     0.001 C 
ENDBRANCH  11  12
ENDBRANCH  10  11
ENDBRANCH   7  10
ENDBRANCH   1   5
BRANCH   3  14
ATOM     14  C   UNL d   1      59.708  -9.191  34.707  0.00  0.00     0.087 A 
ATOM     15  C   UNL d   1      59.163  -9.075  35.304  0.00  0.00     0.019 A 
ATOM     16  C   UNL d   1      59.272  -8.452  35.850  0.00  0.00     0.002 A 
ATOM     17  C   UNL d   1      59.925  -7.956  35.786  0.00  0.00     0.000 A 
ATOM     18  C   UNL d   1      60.479  -8.075  35.175  0.00  0.00     0.002 A 
ATOM     19  C   UNL d   1      60.368  -8.694  34.636  0.00  0.00     0.019 A 
ENDBRANCH   3  14
TORSDOF 5
ENDMDL
