MODEL 1
REMARK VINA RESULT:      -2.7      0.000      0.000
REMARK  6 active torsions:
REMARK  status: ('A' for Active; 'I' for Inactive)
REMARK    1  A    between atoms: N_2  and  S_1 
REMARK    2  A    between atoms: C_3  and  S_1 
REMARK    3  A    between atoms: C_8  and  N_2 
REMARK    4  A    between atoms: C_6  and  O_7 
REMARK    5  A    between atoms: O_7  and  C_13 
REMARK    6  A    between atoms: O_16  and  C_10 
ROOT
ATOM      1  C   UNL d   1      32.468  18.397 -23.698  0.00  0.00     0.105 A 
ATOM      2  C   UNL d   1      32.984  18.399 -23.063  0.00  0.00     0.015 A 
ATOM      3  C   UNL d   1      32.206  19.112 -24.022  0.00  0.00     0.015 A 
ATOM      4  C   UNL d   1      32.979  19.826 -23.074  0.00  0.00     0.100 A 
ATOM      5  C   UNL d   1      32.463  19.822 -23.708  0.00  0.00     0.025 A 
ATOM      6  C   UNL d   1      33.241  19.110 -22.749  0.00  0.00     0.025 A 
ENDROOT
BRANCH   1   7
ATOM      7  S   UNL d   1      32.213  17.674 -24.009  0.00  0.00     0.285 S 
ATOM      8  O   UNL d   1      32.608  16.976 -23.810  0.00  0.00    -0.198 OA
ATOM      9  O   UNL d   1      31.565  17.652 -24.518  0.00  0.00    -0.198 OA
BRANCH   7  10
ATOM     10  N   UNL d   1      31.814  17.071 -24.414  0.00  0.00    -0.157 NA
BRANCH  10  11
ATOM     11  C   UNL d   1      31.074  16.807 -24.136  0.00  0.00     0.113 A 
ATOM     12  C   UNL d   1      31.036  16.310 -23.478  0.00  0.00     0.119 A 
ATOM     13  N   UNL d   1      30.297  16.046 -23.199  0.00  0.00    -0.241 NA
ATOM     14  C   UNL d   1      29.601  16.286 -23.586  0.00  0.00     0.099 A 
ATOM     15  C   UNL d   1      29.644  16.788 -24.248  0.00  0.00     0.022 A 
ATOM     16  C   UNL d   1      30.383  17.045 -24.518  0.00  0.00     0.023 A 
ENDBRANCH  10  11
ENDBRANCH   7  10
ENDBRANCH   1   7
BRANCH   4  17
ATOM     17  O   UNL d   1      33.241  20.546 -22.754  0.00  0.00    -0.305 OA
BRANCH  17  18
ATOM     18  C   UNL d   1      32.869  20.869 -22.088  0.00  0.00     0.122 A 
ATOM     19  C   UNL d   1      32.741  21.681 -22.045  0.00  0.00     0.117 A 
ATOM     20  C   UNL d   1      32.371  22.001 -21.381  0.00  0.00     0.026 A 
ATOM     21  C   UNL d   1      32.131  21.512 -20.768  0.00  0.00     0.002 A 
ATOM     22  C   UNL d   1      32.260  20.698 -20.813  0.00  0.00     0.002 A 
ATOM     23  C   UNL d   1      32.630  20.377 -21.477  0.00  0.00     0.027 A 
BRANCH  19  24
ATOM     24  O   UNL d   1      32.984  22.162 -22.662  0.00  0.00    -0.326 OA
ATOM     25  C   UNL d   1      33.073  22.963 -22.551  0.00  0.00     0.181 C 
ENDBRANCH  19  24
ENDBRANCH  17  18
ENDBRANCH   4  17
TORSDOF 6
ENDMDL
MODEL 2
REMARK VINA RESULT:      -2.3      2.201      5.013
REMARK  6 active torsions:
REMARK  status: ('A' for Active; 'I' for Inactive)
REMARK    1  A    between atoms: N_2  and  S_1 
REMARK    2  A    between atoms: C_3  and  S_1 
REMARK    3  A    between atoms: C_8  and  N_2 
REMARK    4  A    between atoms: C_6  and  O_7 
REMARK    5  A    between atoms: O_7  and  C_13 
REMARK    6  A    between atoms: O_16  and  C_10 
ROOT
ATOM      1  C   UNL d   1      33.235  20.106 -21.857  0.00  0.00     0.105 A 
ATOM      2  C   UNL d   1      33.235  19.310 -21.668  0.00  0.00     0.015 A 
ATOM      3  C   UNL d   1      33.235  20.344 -22.650  0.00  0.00     0.015 A 
ATOM      4  C   UNL d   1      33.236  18.987 -23.057  0.00  0.00     0.100 A 
ATOM      5  C   UNL d   1      33.236  19.783 -23.245  0.00  0.00     0.025 A 
ATOM      6  C   UNL d   1      33.236  18.749 -22.264  0.00  0.00     0.025 A 
ENDROOT
BRANCH   1   7
ATOM      7  S   UNL d   1      33.234  20.667 -21.248  0.00  0.00     0.285 S 
ATOM      8  O   UNL d   1      33.226  20.420 -20.460  0.00  0.00    -0.198 OA
ATOM      9  O   UNL d   1      33.241  21.470 -21.432  0.00  0.00    -0.198 OA
BRANCH   7  10
ATOM     10  N   UNL d   1      33.235  21.363 -20.800  0.00  0.00    -0.157 NA
BRANCH  10  11
ATOM     11  C   UNL d   1      32.763  22.008 -21.038  0.00  0.00     0.113 A 
ATOM     12  C   UNL d   1      31.975  22.051 -20.796  0.00  0.00     0.119 A 
ATOM     13  N   UNL d   1      31.502  22.695 -21.034  0.00  0.00    -0.241 NA
ATOM     14  C   UNL d   1      31.830  23.291 -21.514  0.00  0.00     0.099 A 
ATOM     15  C   UNL d   1      32.624  23.243 -21.755  0.00  0.00     0.022 A 
ATOM     16  C   UNL d   1      33.085  22.599 -21.514  0.00  0.00     0.023 A 
ENDBRANCH  10  11
ENDBRANCH   7  10
ENDBRANCH   1   7
BRANCH   4  17
ATOM     17  O   UNL d   1      33.237  18.416 -23.660  0.00  0.00    -0.305 OA
BRANCH  17  18
ATOM     18  C   UNL d   1      32.547  17.994 -23.840  0.00  0.00     0.122 A 
ATOM     19  C   UNL d   1      32.548  17.173 -23.797  0.00  0.00     0.117 A 
ATOM     20  C   UNL d   1      31.860  16.755 -23.976  0.00  0.00     0.026 A 
ATOM     21  C   UNL d   1      31.180  17.157 -24.196  0.00  0.00     0.002 A 
ATOM     22  C   UNL d   1      31.181  17.981 -24.238  0.00  0.00     0.002 A 
ATOM     23  C   UNL d   1      31.869  18.400 -24.059  0.00  0.00     0.027 A 
BRANCH  19  24
ATOM     24  O   UNL d   1      33.232  16.780 -23.577  0.00  0.00    -0.326 OA
ATOM     25  C   UNL d   1      33.230  15.972 -23.477  0.00  0.00     0.181 C 
ENDBRANCH  19  24
ENDBRANCH  17  18
ENDBRANCH   4  17
TORSDOF 6
ENDMDL
MODEL 3
REMARK VINA RESULT:      -2.2      1.315      2.078
REMARK  6 active torsions:
REMARK  status: ('A' for Active; 'I' for Inactive)
REMARK    1  A    between atoms: N_2  and  S_1 
REMARK    2  A    between atoms: C_3  and  S_1 
REMARK    3  A    between atoms: C_8  and  N_2 
REMARK    4  A    between atoms: C_6  and  O_7 
REMARK    5  A    between atoms: O_7  and  C_13 
REMARK    6  A    between atoms: O_16  and  C_10 
ROOT
ATOM      1  C   UNL d   1      33.122  19.530 -22.455  0.00  0.00     0.105 A 
ATOM      2  C   UNL d   1      33.006  19.492 -21.646  0.00  0.00     0.015 A 
ATOM      3  C   UNL d   1      33.240  20.263 -22.823  0.00  0.00     0.015 A 
ATOM      4  C   UNL d   1      33.124  20.911 -21.570  0.00  0.00     0.100 A 
ATOM      5  C   UNL d   1      33.240  20.949 -22.378  0.00  0.00     0.025 A 
ATOM      6  C   UNL d   1      33.006  20.179 -21.202  0.00  0.00     0.025 A 
ENDROOT
BRANCH   1   7
ATOM      7  S   UNL d   1      33.121  18.831 -22.897  0.00  0.00     0.285 S 
ATOM      8  O   UNL d   1      33.181  18.101 -22.516  0.00  0.00    -0.198 OA
ATOM      9  O   UNL d   1      33.059  18.866 -23.718  0.00  0.00    -0.198 OA
BRANCH   7  10
ATOM     10  N   UNL d   1      33.101  18.264 -23.502  0.00  0.00    -0.157 NA
BRANCH  10  11
ATOM     11  C   UNL d   1      32.373  18.062 -23.854  0.00  0.00     0.113 A 
ATOM     12  C   UNL d   1      31.832  17.596 -23.441  0.00  0.00     0.119 A 
ATOM     13  N   UNL d   1      31.104  17.394 -23.793  0.00  0.00    -0.241 NA
ATOM     14  C   UNL d   1      30.928  17.665 -24.560  0.00  0.00     0.099 A 
ATOM     15  C   UNL d   1      31.476  18.135 -24.972  0.00  0.00     0.022 A 
ATOM     16  C   UNL d   1      32.197  18.330 -24.614  0.00  0.00     0.023 A 
ENDBRANCH  10  11
ENDBRANCH   7  10
ENDBRANCH   1   7
BRANCH   4  17
ATOM     17  O   UNL d   1      33.124  21.607 -21.117  0.00  0.00    -0.305 OA
BRANCH  17  18
ATOM     18  C   UNL d   1      32.732  22.285 -21.388  0.00  0.00     0.122 A 
ATOM     19  C   UNL d   1      32.270  22.725 -20.870  0.00  0.00     0.117 A 
ATOM     20  C   UNL d   1      31.881  23.399 -21.142  0.00  0.00     0.026 A 
ATOM     21  C   UNL d   1      31.955  23.629 -21.925  0.00  0.00     0.002 A 
ATOM     22  C   UNL d   1      32.420  23.186 -22.445  0.00  0.00     0.002 A 
ATOM     23  C   UNL d   1      32.809  22.511 -22.172  0.00  0.00     0.027 A 
BRANCH  19  24
ATOM     24  O   UNL d   1      32.201  22.489 -20.088  0.00  0.00    -0.326 OA
ATOM     25  C   UNL d   1      32.361  23.009 -19.484  0.00  0.00     0.181 C 
ENDBRANCH  19  24
ENDBRANCH  17  18
ENDBRANCH   4  17
TORSDOF 6
ENDMDL
MODEL 4
REMARK VINA RESULT:      -1.7      1.855      4.898
REMARK  6 active torsions:
REMARK  status: ('A' for Active; 'I' for Inactive)
REMARK    1  A    between atoms: N_2  and  S_1 
REMARK    2  A    between atoms: C_3  and  S_1 
REMARK    3  A    between atoms: C_8  and  N_2 
REMARK    4  A    between atoms: C_6  and  O_7 
REMARK    5  A    between atoms: O_7  and  C_13 
REMARK    6  A    between atoms: O_16  and  C_10 
ROOT
ATOM      1  C   UNL d   1      32.898  19.478 -22.644  0.00  0.00     0.105 A 
ATOM      2  C   UNL d   1      33.050  19.726 -23.408  0.00  0.00     0.015 A 
ATOM      3  C   UNL d   1      32.585  18.724 -22.507  0.00  0.00     0.015 A 
ATOM      4  C   UNL d   1      32.577  18.474 -23.901  0.00  0.00     0.100 A 
ATOM      5  C   UNL d   1      32.426  18.226 -23.136  0.00  0.00     0.025 A 
ATOM      6  C   UNL d   1      32.890  19.228 -24.038  0.00  0.00     0.025 A 
ENDROOT
BRANCH   1   7
ATOM      7  S   UNL d   1      33.062  19.988 -22.013  0.00  0.00     0.285 S 
ATOM      8  O   UNL d   1      33.081  19.696 -21.240  0.00  0.00    -0.198 OA
ATOM      9  O   UNL d   1      33.206  20.786 -22.158  0.00  0.00    -0.198 OA
BRANCH   7  10
ATOM     10  N   UNL d   1      33.239  20.641 -21.534  0.00  0.00    -0.157 NA
BRANCH  10  11
ATOM     11  C   UNL d   1      32.657  21.220 -21.396  0.00  0.00     0.113 A 
ATOM     12  C   UNL d   1      31.996  21.037 -20.937  0.00  0.00     0.119 A 
ATOM     13  N   UNL d   1      31.412  21.616 -20.799  0.00  0.00    -0.241 NA
ATOM     14  C   UNL d   1      31.501  22.376 -21.125  0.00  0.00     0.099 A 
ATOM     15  C   UNL d   1      32.169  22.556 -21.587  0.00  0.00     0.022 A 
ATOM     16  C   UNL d   1      32.743  21.974 -21.719  0.00  0.00     0.023 A 
ENDBRANCH  10  11
ENDBRANCH   7  10
ENDBRANCH   1   7
BRANCH   4  17
ATOM     17  O   UNL d   1      32.416  17.970 -24.541  0.00  0.00    -0.305 OA
BRANCH  17  18
ATOM     18  C   UNL d   1      31.659  17.649 -24.642  0.00  0.00     0.122 A 
ATOM     19  C   UNL d   1      31.576  16.865 -24.876  0.00  0.00     0.117 A 
ATOM     20  C   UNL d   1      30.821  16.547 -24.976  0.00  0.00     0.026 A 
ATOM     21  C   UNL d   1      30.158  17.011 -24.844  0.00  0.00     0.002 A 
ATOM     22  C   UNL d   1      30.244  17.798 -24.609  0.00  0.00     0.002 A 
ATOM     23  C   UNL d   1      30.998  18.116 -24.509  0.00  0.00     0.027 A 
BRANCH  19  24
ATOM     24  O   UNL d   1      32.243  16.408 -25.006  0.00  0.00    -0.326 OA
ATOM     25  C   UNL d   1      32.185  15.598 -25.059  0.00  0.00     0.181 C 
ENDBRANCH  19  24
ENDBRANCH  17  18
ENDBRANCH   4  17
TORSDOF 6
ENDMDL
MODEL 5
REMARK VINA RESULT:      -0.5      1.645      4.906
REMARK  6 active torsions:
REMARK  status: ('A' for Active; 'I' for Inactive)
REMARK    1  A    between atoms: N_2  and  S_1 
REMARK    2  A    between atoms: C_3  and  S_1 
REMARK    3  A    between atoms: C_8  and  N_2 
REMARK    4  A    between atoms: C_6  and  O_7 
REMARK    5  A    between atoms: O_7  and  C_13 
REMARK    6  A    between atoms: O_16  and  C_10 
ROOT
ATOM      1  C   UNL d   1      32.117  18.507 -23.792  0.00  0.00     0.105 A 
ATOM      2  C   UNL d   1      32.067  17.750 -23.487  0.00  0.00     0.015 A 
ATOM      3  C   UNL d   1      31.578  18.760 -24.367  0.00  0.00     0.015 A 
ATOM      4  C   UNL d   1      30.945  17.494 -24.329  0.00  0.00     0.100 A 
ATOM      5  C   UNL d   1      30.995  18.251 -24.633  0.00  0.00     0.025 A 
ATOM      6  C   UNL d   1      31.483  17.241 -23.754  0.00  0.00     0.025 A 
ENDROOT
BRANCH   1   7
ATOM      7  S   UNL d   1      32.710  19.015 -23.517  0.00  0.00     0.285 S 
ATOM      8  O   UNL d   1      33.156  19.457 -24.054  0.00  0.00    -0.198 OA
ATOM      9  O   UNL d   1      32.853  19.079 -22.708  0.00  0.00    -0.198 OA
BRANCH   7  10
ATOM     10  N   UNL d   1      33.241  19.453 -23.055  0.00  0.00    -0.157 NA
BRANCH  10  11
ATOM     11  C   UNL d   1      32.962  20.101 -22.610  0.00  0.00     0.113 A 
ATOM     12  C   UNL d   1      32.785  20.813 -22.987  0.00  0.00     0.119 A 
ATOM     13  N   UNL d   1      32.507  21.461 -22.543  0.00  0.00    -0.241 NA
ATOM     14  C   UNL d   1      32.410  21.384 -21.720  0.00  0.00     0.099 A 
ATOM     15  C   UNL d   1      32.590  20.664 -21.344  0.00  0.00     0.022 A 
ATOM     16  C   UNL d   1      32.866  20.026 -21.795  0.00  0.00     0.023 A 
ENDBRANCH  10  11
ENDBRANCH   7  10
ENDBRANCH   1   7
BRANCH   4  17
ATOM     17  O   UNL d   1      30.353  16.976 -24.598  0.00  0.00    -0.305 OA
BRANCH  17  18
ATOM     18  C   UNL d   1      29.555  17.134 -24.443  0.00  0.00     0.122 A 
ATOM     19  C   UNL d   1      29.116  16.610 -23.986  0.00  0.00     0.117 A 
ATOM     20  C   UNL d   1      28.321  16.769 -23.833  0.00  0.00     0.026 A 
ATOM     21  C   UNL d   1      27.972  17.447 -24.135  0.00  0.00     0.002 A 
ATOM     22  C   UNL d   1      28.414  17.972 -24.594  0.00  0.00     0.002 A 
ATOM     23  C   UNL d   1      29.209  17.813 -24.747  0.00  0.00     0.027 A 
BRANCH  19  24
ATOM     24  O   UNL d   1      29.473  15.936 -23.688  0.00  0.00    -0.326 OA
ATOM     25  C   UNL d   1      29.074  15.453 -23.169  0.00  0.00     0.181 C 
ENDBRANCH  19  24
ENDBRANCH  17  18
ENDBRANCH   4  17
TORSDOF 6
ENDMDL
MODEL 6
REMARK VINA RESULT:       0.3      3.100      5.846
REMARK  6 active torsions:
REMARK  status: ('A' for Active; 'I' for Inactive)
REMARK    1  A    between atoms: N_2  and  S_1 
REMARK    2  A    between atoms: C_3  and  S_1 
REMARK    3  A    between atoms: C_8  and  N_2 
REMARK    4  A    between atoms: C_6  and  O_7 
REMARK    5  A    between atoms: O_7  and  C_13 
REMARK    6  A    between atoms: O_16  and  C_10 
ROOT
ATOM      1  C   UNL d   1      32.607  21.717 -20.873  0.00  0.00     0.105 A 
ATOM      2  C   UNL d   1      32.205  21.544 -21.564  0.00  0.00     0.015 A 
ATOM      3  C   UNL d   1      33.118  21.157 -20.539  0.00  0.00     0.015 A 
ATOM      4  C   UNL d   1      32.817  20.256 -21.589  0.00  0.00     0.100 A 
ATOM      5  C   UNL d   1      33.219  20.430 -20.899  0.00  0.00     0.025 A 
ATOM      6  C   UNL d   1      32.307  20.816 -21.923  0.00  0.00     0.025 A 
ENDROOT
BRANCH   1   7
ATOM      7  S   UNL d   1      32.499  22.455 -20.515  0.00  0.00     0.285 S 
ATOM      8  O   UNL d   1      31.750  22.677 -20.246  0.00  0.00    -0.198 OA
ATOM      9  O   UNL d   1      33.138  22.967 -20.429  0.00  0.00    -0.198 OA
BRANCH   7  10
ATOM     10  N   UNL d   1      32.595  23.214 -20.195  0.00  0.00    -0.157 NA
BRANCH  10  11
ATOM     11  C   UNL d   1      32.569  23.318 -19.368  0.00  0.00     0.113 A 
ATOM     12  C   UNL d   1      31.876  23.149 -18.954  0.00  0.00     0.119 A 
ATOM     13  N   UNL d   1      31.849  23.253 -18.127  0.00  0.00    -0.241 NA
ATOM     14  C   UNL d   1      32.524  23.526 -17.725  0.00  0.00     0.099 A 
ATOM     15  C   UNL d   1      33.221  23.695 -18.146  0.00  0.00     0.022 A 
ATOM     16  C   UNL d   1      33.237  23.588 -18.968  0.00  0.00     0.023 A 
ENDBRANCH  10  11
ENDBRANCH   7  10
ENDBRANCH   1   7
BRANCH   4  17
ATOM     17  O   UNL d   1      32.919  19.518 -21.956  0.00  0.00    -0.305 OA
BRANCH  17  18
ATOM     18  C   UNL d   1      33.024  19.468 -22.777  0.00  0.00     0.122 A 
ATOM     19  C   UNL d   1      33.137  18.735 -23.130  0.00  0.00     0.117 A 
ATOM     20  C   UNL d   1      33.241  18.687 -23.947  0.00  0.00     0.026 A 
ATOM     21  C   UNL d   1      33.230  19.368 -24.403  0.00  0.00     0.002 A 
ATOM     22  C   UNL d   1      33.116  20.104 -24.047  0.00  0.00     0.002 A 
ATOM     23  C   UNL d   1      33.012  20.152 -23.230  0.00  0.00     0.027 A 
BRANCH  19  24
ATOM     24  O   UNL d   1      33.147  18.059 -22.667  0.00  0.00    -0.326 OA
ATOM     25  C   UNL d   1      32.900  17.347 -22.971  0.00  0.00     0.181 C 
ENDBRANCH  19  24
ENDBRANCH  17  18
ENDBRANCH   4  17
TORSDOF 6
ENDMDL
