MODEL 1
REMARK VINA RESULT:      -5.5      0.000      0.000
REMARK  1 active torsions:
REMARK  status: ('A' for Active; 'I' for Inactive)
REMARK    1  A    between atoms: C_6  and  C_1 
ROOT
ATOM      1  C   UNL d   1      57.433   0.082  31.326  0.00  0.00     0.162 A 
ATOM      2  N   UNL d   1      57.388  -0.180  30.555  0.00  0.00    -0.225 NA
ATOM      3  N   UNL d   1      58.163   0.447  31.433  0.00  0.00    -0.225 NA
ATOM      4  C   UNL d   1      58.100   0.026  30.176  0.00  0.00     0.101 A 
ATOM      5  C   UNL d   1      58.578   0.412  30.717  0.00  0.00     0.101 A 
ATOM      6  C   UNL d   1      58.355  -0.101  29.403  0.00  0.00     0.021 A 
ATOM      7  C   UNL d   1      59.321   0.682  30.498  0.00  0.00     0.021 A 
ATOM      8  C   UNL d   1      59.583   0.559  29.726  0.00  0.00     0.002 A 
ATOM      9  C   UNL d   1      59.096   0.165  29.175  0.00  0.00     0.002 A 
ENDROOT
BRANCH   1  10
ATOM     10  C   UNL d   1      56.847  -0.004  31.905  0.00  0.00     0.037 A 
ATOM     11  C   UNL d   1      56.635  -0.754  32.182  0.00  0.00     0.024 A 
ATOM     12  C   UNL d   1      56.052  -0.839  32.757  0.00  0.00     0.103 A 
ATOM     13  N   UNL d   1      55.849  -1.603  33.028  0.00  0.00    -0.148 N 
ATOM     14  C   UNL d   1      55.675  -0.180  33.063  0.00  0.00     0.021 A 
ATOM     15  C   UNL d   1      55.879   0.584  32.792  0.00  0.00     0.002 A 
ATOM     16  C   UNL d   1      56.472   0.670  32.207  0.00  0.00     0.003 A 
ENDBRANCH   1  10
TORSDOF 1
ENDMDL
MODEL 2
REMARK VINA RESULT:      -5.4      0.799      3.710
REMARK  1 active torsions:
REMARK  status: ('A' for Active; 'I' for Inactive)
REMARK    1  A    between atoms: C_6  and  C_1 
ROOT
ATOM      1  C   UNL d   1      57.367   0.118  31.419  0.00  0.00     0.162 A 
ATOM      2  N   UNL d   1      56.963   0.648  31.888  0.00  0.00    -0.225 NA
ATOM      3  N   UNL d   1      57.102  -0.641  31.600  0.00  0.00    -0.225 NA
ATOM      4  C   UNL d   1      56.439   0.215  32.368  0.00  0.00     0.101 A 
ATOM      5  C   UNL d   1      56.525  -0.580  32.190  0.00  0.00     0.101 A 
ATOM      6  C   UNL d   1      55.901   0.464  32.940  0.00  0.00     0.021 A 
ATOM      7  C   UNL d   1      56.075  -1.145  32.580  0.00  0.00     0.021 A 
ATOM      8  C   UNL d   1      55.534  -0.902  33.154  0.00  0.00     0.002 A 
ATOM      9  C   UNL d   1      55.447  -0.093  33.335  0.00  0.00     0.002 A 
ENDROOT
BRANCH   1  10
ATOM     10  C   UNL d   1      57.944   0.306  30.857  0.00  0.00     0.037 A 
ATOM     11  C   UNL d   1      57.762   0.310  30.049  0.00  0.00     0.024 A 
ATOM     12  C   UNL d   1      58.336   0.497  29.490  0.00  0.00     0.103 A 
ATOM     13  N   UNL d   1      58.137   0.497  28.679  0.00  0.00    -0.148 N 
ATOM     14  C   UNL d   1      59.097   0.681  29.727  0.00  0.00     0.021 A 
ATOM     15  C   UNL d   1      59.297   0.681  30.539  0.00  0.00     0.002 A 
ATOM     16  C   UNL d   1      58.712   0.491  31.108  0.00  0.00     0.003 A 
ENDBRANCH   1  10
TORSDOF 1
ENDMDL
MODEL 3
REMARK VINA RESULT:      -5.4      0.945      1.225
REMARK  1 active torsions:
REMARK  status: ('A' for Active; 'I' for Inactive)
REMARK    1  A    between atoms: C_6  and  C_1 
ROOT
ATOM      1  C   UNL d   1      57.113  -0.400  31.372  0.00  0.00     0.162 A 
ATOM      2  N   UNL d   1      57.519  -0.984  30.972  0.00  0.00    -0.225 NA
ATOM      3  N   UNL d   1      57.257   0.318  30.996  0.00  0.00    -0.225 NA
ATOM      4  C   UNL d   1      57.921  -0.624  30.338  0.00  0.00     0.101 A 
ATOM      5  C   UNL d   1      57.759   0.179  30.353  0.00  0.00     0.101 A 
ATOM      6  C   UNL d   1      58.410  -0.945  29.759  0.00  0.00     0.021 A 
ATOM      7  C   UNL d   1      58.083   0.679  29.789  0.00  0.00     0.021 A 
ATOM      8  C   UNL d   1      58.573   0.364  29.205  0.00  0.00     0.002 A 
ATOM      9  C   UNL d   1      58.738  -0.453  29.191  0.00  0.00     0.002 A 
ENDROOT
BRANCH   1  10
ATOM     10  C   UNL d   1      56.638  -0.508  32.041  0.00  0.00     0.037 A 
ATOM     11  C   UNL d   1      56.477   0.124  32.551  0.00  0.00     0.024 A 
ATOM     12  C   UNL d   1      56.005   0.017  33.216  0.00  0.00     0.103 A 
ATOM     13  N   UNL d   1      55.851   0.664  33.721  0.00  0.00    -0.148 N 
ATOM     14  C   UNL d   1      55.688  -0.719  33.382  0.00  0.00     0.021 A 
ATOM     15  C   UNL d   1      55.842  -1.367  32.877  0.00  0.00     0.002 A 
ATOM     16  C   UNL d   1      56.322  -1.258  32.200  0.00  0.00     0.003 A 
ENDBRANCH   1  10
TORSDOF 1
ENDMDL
MODEL 4
REMARK VINA RESULT:      -4.6      1.658      2.650
REMARK  1 active torsions:
REMARK  status: ('A' for Active; 'I' for Inactive)
REMARK    1  A    between atoms: C_6  and  C_1 
ROOT
ATOM      1  C   UNL d   1      55.877   0.142  33.125  0.00  0.00     0.162 A 
ATOM      2  N   UNL d   1      56.165  -0.596  32.931  0.00  0.00    -0.225 NA
ATOM      3  N   UNL d   1      56.146   0.680  32.563  0.00  0.00    -0.225 NA
ATOM      4  C   UNL d   1      56.619  -0.516  32.237  0.00  0.00     0.101 A 
ATOM      5  C   UNL d   1      56.607   0.271  32.011  0.00  0.00     0.101 A 
ATOM      6  C   UNL d   1      57.034  -1.075  31.799  0.00  0.00     0.021 A 
ATOM      7  C   UNL d   1      57.010   0.517  31.340  0.00  0.00     0.021 A 
ATOM      8  C   UNL d   1      57.429  -0.038  30.896  0.00  0.00     0.002 A 
ATOM      9  C   UNL d   1      57.441  -0.839  31.127  0.00  0.00     0.002 A 
ENDROOT
BRANCH   1  10
ATOM     10  C   UNL d   1      55.398   0.322  33.776  0.00  0.00     0.037 A 
ATOM     11  C   UNL d   1      55.726   0.410  34.531  0.00  0.00     0.024 A 
ATOM     12  C   UNL d   1      55.250   0.589  35.177  0.00  0.00     0.103 A 
ATOM     13  N   UNL d   1      55.596   0.675  35.933  0.00  0.00    -0.148 N 
ATOM     14  C   UNL d   1      54.442   0.682  35.081  0.00  0.00     0.021 A 
ATOM     15  C   UNL d   1      54.096   0.596  34.325  0.00  0.00     0.002 A 
ATOM     16  C   UNL d   1      54.582   0.413  33.667  0.00  0.00     0.003 A 
ENDBRANCH   1  10
TORSDOF 1
ENDMDL
MODEL 5
REMARK VINA RESULT:      -4.4      1.331      3.739
REMARK  1 active torsions:
REMARK  status: ('A' for Active; 'I' for Inactive)
REMARK    1  A    between atoms: C_6  and  C_1 
ROOT
ATOM      1  C   UNL d   1      57.790  -0.787  30.441  0.00  0.00     0.162 A 
ATOM      2  N   UNL d   1      57.611  -0.032  30.691  0.00  0.00    -0.225 NA
ATOM      3  N   UNL d   1      57.429  -1.321  30.954  0.00  0.00    -0.225 NA
ATOM      4  C   UNL d   1      57.132  -0.096  31.368  0.00  0.00     0.101 A 
ATOM      5  C   UNL d   1      57.019  -0.890  31.531  0.00  0.00     0.101 A 
ATOM      6  C   UNL d   1      56.793   0.485  31.844  0.00  0.00     0.021 A 
ATOM      7  C   UNL d   1      56.566  -1.124  32.173  0.00  0.00     0.021 A 
ATOM      8  C   UNL d   1      56.223  -0.548  32.655  0.00  0.00     0.002 A 
ATOM      9  C   UNL d   1      56.338   0.261  32.489  0.00  0.00     0.002 A 
ENDROOT
BRANCH   1  10
ATOM     10  C   UNL d   1      58.254  -0.987  29.786  0.00  0.00     0.037 A 
ATOM     11  C   UNL d   1      58.490  -1.770  29.658  0.00  0.00     0.024 A 
ATOM     12  C   UNL d   1      58.951  -1.969  29.007  0.00  0.00     0.103 A 
ATOM     13  N   UNL d   1      59.181  -2.764  28.891  0.00  0.00    -0.148 N 
ATOM     14  C   UNL d   1      59.184  -1.391  28.475  0.00  0.00     0.021 A 
ATOM     15  C   UNL d   1      58.954  -0.596  28.590  0.00  0.00     0.002 A 
ATOM     16  C   UNL d   1      58.484  -0.394  29.254  0.00  0.00     0.003 A 
ENDBRANCH   1  10
TORSDOF 1
ENDMDL
MODEL 6
REMARK VINA RESULT:      -3.5      1.391      4.143
REMARK  1 active torsions:
REMARK  status: ('A' for Active; 'I' for Inactive)
REMARK    1  A    between atoms: C_6  and  C_1 
ROOT
ATOM      1  C   UNL d   1      56.355   0.082  32.929  0.00  0.00     0.162 A 
ATOM      2  N   UNL d   1      55.547  -0.022  32.937  0.00  0.00    -0.225 NA
ATOM      3  N   UNL d   1      56.587   0.360  33.668  0.00  0.00    -0.225 NA
ATOM      4  C   UNL d   1      55.271   0.194  33.692  0.00  0.00     0.101 A 
ATOM      5  C   UNL d   1      55.912   0.430  34.143  0.00  0.00     0.101 A 
ATOM      6  C   UNL d   1      54.510   0.198  34.006  0.00  0.00     0.021 A 
ATOM      7  C   UNL d   1      55.808   0.675  34.919  0.00  0.00     0.021 A 
ATOM      8  C   UNL d   1      55.048   0.682  35.240  0.00  0.00     0.002 A 
ATOM      9  C   UNL d   1      54.395   0.442  34.781  0.00  0.00     0.002 A 
ENDROOT
BRANCH   1  10
ATOM     10  C   UNL d   1      56.859  -0.065  32.289  0.00  0.00     0.037 A 
ATOM     11  C   UNL d   1      57.553   0.375  32.188  0.00  0.00     0.024 A 
ATOM     12  C   UNL d   1      58.054   0.229  31.552  0.00  0.00     0.103 A 
ATOM     13  N   UNL d   1      58.751   0.682  31.464  0.00  0.00    -0.148 N 
ATOM     14  C   UNL d   1      57.871  -0.356  31.009  0.00  0.00     0.021 A 
ATOM     15  C   UNL d   1      57.174  -0.808  31.098  0.00  0.00     0.002 A 
ATOM     16  C   UNL d   1      56.664  -0.659  31.745  0.00  0.00     0.003 A 
ENDBRANCH   1  10
TORSDOF 1
ENDMDL
MODEL 7
REMARK VINA RESULT:      -2.5      9.791     10.094
REMARK  1 active torsions:
REMARK  status: ('A' for Active; 'I' for Inactive)
REMARK    1  A    between atoms: C_6  and  C_1 
ROOT
ATOM      1  C   UNL d   1      59.113  -9.546  32.844  0.00  0.00     0.162 A 
ATOM      2  N   UNL d   1      59.317  -9.595  32.056  0.00  0.00    -0.225 NA
ATOM      3  N   UNL d   1      58.293  -9.594  32.902  0.00  0.00    -0.225 NA
ATOM      4  C   UNL d   1      58.614  -9.674  31.617  0.00  0.00     0.101 A 
ATOM      5  C   UNL d   1      57.983  -9.674  32.138  0.00  0.00     0.101 A 
ATOM      6  C   UNL d   1      58.492  -9.746  30.806  0.00  0.00     0.021 A 
ATOM      7  C   UNL d   1      57.214  -9.746  31.861  0.00  0.00     0.021 A 
ATOM      8  C   UNL d   1      57.084  -9.818  31.050  0.00  0.00     0.002 A 
ATOM      9  C   UNL d   1      57.727  -9.818  30.519  0.00  0.00     0.002 A 
ENDROOT
BRANCH   1  10
ATOM     10  C   UNL d   1      59.638  -9.462  33.479  0.00  0.00     0.037 A 
ATOM     11  C   UNL d   1      59.410  -9.058  34.164  0.00  0.00     0.024 A 
ATOM     12  C   UNL d   1      59.931  -8.974  34.795  0.00  0.00     0.103 A 
ATOM     13  N   UNL d   1      59.686  -8.563  35.481  0.00  0.00    -0.148 N 
ATOM     14  C   UNL d   1      60.684  -9.292  34.753  0.00  0.00     0.021 A 
ATOM     15  C   UNL d   1      60.929  -9.703  34.067  0.00  0.00     0.002 A 
ATOM     16  C   UNL d   1      60.398  -9.788  33.425  0.00  0.00     0.003 A 
ENDBRANCH   1  10
TORSDOF 1
ENDMDL
