MODEL 1
REMARK VINA RESULT:      69.6      0.000      0.000
REMARK  7 active torsions:
REMARK  status: ('A' for Active; 'I' for Inactive)
REMARK    1  A    between atoms: C_12  and  C_1 
REMARK    2  A    between atoms: C_14  and  C_4 
REMARK       I    between atoms: C_10  and  N_9 
REMARK    3  A    between atoms: O_22  and  C_10 
REMARK    4  A    between atoms: O_23  and  C_12 
REMARK    5  A    between atoms: N_13  and  C_14 
REMARK    6  A    between atoms: C_27  and  O_22 
REMARK    7  A    between atoms: C_28  and  O_23 
ROOT
ATOM      1  C   UNL d   1      43.073 -15.441  36.909  0.00  0.00     0.088 A 
ATOM      2  C   UNL d   1      43.887 -15.460  36.999  0.00  0.00     0.034 A 
ATOM      3  C   UNL d   1      44.207 -14.763  36.681  0.00  0.00     0.100 A 
ATOM      4  C   UNL d   1      44.393 -16.028  37.334  0.00  0.00     0.059 A 
ATOM      5  C   UNL d   1      42.878 -14.719  36.528  0.00  0.00     0.105 A 
ATOM      6  O   UNL d   1      43.574 -14.310  36.391  0.00  0.00    -0.307 OA
ATOM      7  C   UNL d   1      45.201 -15.900  37.349  0.00  0.00     0.197 A 
ATOM      8  C   UNL d   1      45.022 -14.643  36.701  0.00  0.00     0.026 A 
ATOM      9  C   UNL d   1      45.515 -15.207  37.033  0.00  0.00     0.041 A 
ATOM     10  O   UNL d   1      45.711 -16.465  37.683  0.00  0.00    -0.286 OA
ATOM     11  C   UNL d   1      42.121 -14.475  36.331  0.00  0.00     0.027 C 
ATOM     12  C   UNL d   1      45.339 -13.948  36.384  0.00  0.00     0.002 A 
ATOM     13  C   UNL d   1      46.330 -15.081  37.050  0.00  0.00     0.003 A 
ATOM     14  C   UNL d   1      46.643 -14.395  36.737  0.00  0.00     0.000 A 
ATOM     15  C   UNL d   1      46.143 -13.823  36.400  0.00  0.00     0.000 A 
ENDROOT
BRANCH   4  16
ATOM     16  C   UNL d   1      44.073 -16.725  37.652  0.00  0.00     0.084 C 
BRANCH  16  17
ATOM     17  N   UNL d   1      44.438 -17.075  38.312  0.00  0.00    -0.300 N 
ATOM     18  C   UNL d   1      44.179 -16.881  39.069  0.00  0.00     0.100 A 
ATOM     19  C   UNL d   1      44.545 -17.232  39.729  0.00  0.00     0.104 A 
ATOM     20  N   UNL d   1      45.160 -17.768  39.621  0.00  0.00    -0.249 N 
ATOM     21  C   UNL d   1      45.415 -17.958  38.857  0.00  0.00     0.104 A 
ATOM     22  C   UNL d   1      45.512 -18.106  40.257  0.00  0.00     0.378 C 
ATOM     23  C   UNL d   1      45.055 -17.613  38.207  0.00  0.00     0.100 A 
ATOM     24  O   UNL d   1      46.131 -18.645  40.161  0.00  0.00    -0.237 OA
BRANCH  22  25
ATOM     25  O   UNL d   1      45.261 -17.919  41.027  0.00  0.00    -0.257 OA
BRANCH  25  26
ATOM     26  C   UNL d   1      45.374 -18.474  41.631  0.00  0.00     0.128 C 
ATOM     27  C   UNL d   1      46.095 -18.490  42.038  0.00  0.00     0.029 C 
ENDBRANCH  25  26
ENDBRANCH  22  25
ENDBRANCH  16  17
ENDBRANCH   4  16
BRANCH   1  28
ATOM     28  C   UNL d   1      42.555 -16.028  37.153  0.00  0.00     0.302 C 
ATOM     29  O   UNL d   1      42.332 -16.099  37.939  0.00  0.00    -0.259 OA
BRANCH  28  30
ATOM     30  O   UNL d   1      42.252 -16.558  36.591  0.00  0.00    -0.271 OA
BRANCH  30  31
ATOM     31  C   UNL d   1      41.445 -16.565  36.426  0.00  0.00     0.126 C 
ATOM     32  C   UNL d   1      41.049 -17.288  36.331  0.00  0.00     0.029 C 
ENDBRANCH  30  31
ENDBRANCH  28  30
ENDBRANCH   1  28
TORSDOF 7
ENDMDL
