MODEL 1
REMARK VINA RESULT:      21.2      0.000      0.000
REMARK  12 active torsions:
REMARK  status: ('A' for Active; 'I' for Inactive)
REMARK    1  A    between atoms: C_23  and  N_1 
REMARK    2  A    between atoms: S_8  and  C_2 
REMARK    3  A    between atoms: C_7  and  C_11 
REMARK       I    between atoms: N_12  and  C_7 
REMARK    4  A    between atoms: C_24  and  S_8 
REMARK    5  A    between atoms: C_25  and  N_12 
REMARK    6  A    between atoms: C_13  and  C_25 
REMARK    7  A    between atoms: C_15  and  C_24 
REMARK    8  A    between atoms: O_26  and  C_15 
REMARK    9  A    between atoms: C_28  and  C_23 
REMARK   10  A    between atoms: C_27  and  O_26 
REMARK   11  A    between atoms: C_30  and  C_28 
REMARK   12  A    between atoms: C_29  and  C_30 
ROOT
ATOM      1  N   UNL d   1     -42.301-123.005 -50.018  0.00  0.00    -0.253 N 
ATOM      2  C   UNL d   1     -42.885-122.572 -50.390  0.00  0.00     0.182 A 
ATOM      3  C   UNL d   1     -41.716-123.378 -50.458  0.00  0.00     0.268 A 
ATOM      4  N   UNL d   1     -42.881-122.513 -51.207  0.00  0.00    -0.222 NA
ATOM      5  C   UNL d   1     -41.711-123.320 -51.272  0.00  0.00     0.074 A 
ATOM      6  C   UNL d   1     -42.301-122.882 -51.658  0.00  0.00     0.088 A 
ATOM      7  C   UNL d   1     -42.302-122.819 -52.484  0.00  0.00     0.024 A 
ATOM      8  C   UNL d   1     -41.127-123.691 -51.724  0.00  0.00     0.006 A 
ATOM      9  C   UNL d   1     -41.714-123.194 -52.926  0.00  0.00     0.059 A 
ATOM     10  O   UNL d   1     -41.125-123.816 -50.072  0.00  0.00    -0.267 OA
ATOM     11  C   UNL d   1     -41.124-123.632 -52.542  0.00  0.00     0.005 A 
ENDROOT
BRANCH   9  12
ATOM     12  C   UNL d   1     -41.712-123.132 -53.756  0.00  0.00     0.279 C 
ATOM     13  N   UNL d   1     -41.621-122.401 -54.096  0.00  0.00    -0.204 NA
ATOM     14  O   UNL d   1     -41.804-123.814 -54.206  0.00  0.00    -0.265 OA
BRANCH  13  15
ATOM     15  C   UNL d   1     -41.530-121.730 -53.630  0.00  0.00     0.127 C 
BRANCH  15  16
ATOM     16  C   UNL d   1     -41.667-120.982 -53.950  0.00  0.00     0.119 A 
ATOM     17  O   UNL d   1     -41.465-120.234 -53.713  0.00  0.00    -0.304 OA
ATOM     18  C   UNL d   1     -41.751-119.685 -54.251  0.00  0.00     0.123 A 
ATOM     19  C   UNL d   1     -42.143-120.123 -54.838  0.00  0.00     0.029 A 
ATOM     20  C   UNL d   1     -42.095-120.912 -54.660  0.00  0.00     0.028 A 
ENDBRANCH  15  16
ENDBRANCH  13  15
ENDBRANCH   9  12
BRANCH   2  21
ATOM     21  S   UNL d   1     -43.473-122.197 -49.948  0.00  0.00    -0.044 SA
BRANCH  21  22
ATOM     22  C   UNL d   1     -43.957-121.636 -50.297  0.00  0.00     0.107 C 
BRANCH  22  23
ATOM     23  C   UNL d   1     -44.747-121.578 -50.061  0.00  0.00     0.307 C 
ATOM     24  O   UNL d   1     -45.237-122.249 -50.053  0.00  0.00    -0.258 OA
BRANCH  23  25
ATOM     25  O   UNL d   1     -45.046-120.838 -49.832  0.00  0.00    -0.271 OA
BRANCH  25  26
ATOM     26  C   UNL d   1     -45.841-120.781 -49.615  0.00  0.00     0.126 C 
ATOM     27  C   UNL d   1     -46.193-120.048 -49.626  0.00  0.00     0.029 C 
ENDBRANCH  25  26
ENDBRANCH  23  25
ENDBRANCH  22  23
ENDBRANCH  21  22
ENDBRANCH   2  21
BRANCH   1  28
ATOM     28  C   UNL d   1     -42.308-123.063 -49.184  0.00  0.00     0.085 C 
BRANCH  28  29
ATOM     29  C   UNL d   1     -41.702-122.727 -48.738  0.00  0.00     0.019 C 
BRANCH  29  30
ATOM     30  C   UNL d   1     -41.780-122.611 -47.937  0.00  0.00     0.002 C 
BRANCH  30  31
ATOM     31  C   UNL d   1     -41.684-123.230 -47.403  0.00  0.00     0.000 C 
ATOM     32  C   UNL d   1     -41.324-123.113 -46.694  0.00  0.00     0.000 C 
ENDBRANCH  30  31
ENDBRANCH  29  30
ENDBRANCH  28  29
ENDBRANCH   1  28
TORSDOF 12
ENDMDL
MODEL 2
REMARK VINA RESULT:      21.7      1.762      5.036
REMARK  12 active torsions:
REMARK  status: ('A' for Active; 'I' for Inactive)
REMARK    1  A    between atoms: C_23  and  N_1 
REMARK    2  A    between atoms: S_8  and  C_2 
REMARK    3  A    between atoms: C_7  and  C_11 
REMARK       I    between atoms: N_12  and  C_7 
REMARK    4  A    between atoms: C_24  and  S_8 
REMARK    5  A    between atoms: C_25  and  N_12 
REMARK    6  A    between atoms: C_13  and  C_25 
REMARK    7  A    between atoms: C_15  and  C_24 
REMARK    8  A    between atoms: O_26  and  C_15 
REMARK    9  A    between atoms: C_28  and  C_23 
REMARK   10  A    between atoms: C_27  and  O_26 
REMARK   11  A    between atoms: C_30  and  C_28 
REMARK   12  A    between atoms: C_29  and  C_30 
ROOT
ATOM      1  N   UNL d   1     -41.473-121.838 -53.140  0.00  0.00    -0.253 N 
ATOM      2  C   UNL d   1     -41.314-121.281 -52.565  0.00  0.00     0.182 A 
ATOM      3  C   UNL d   1     -41.664-122.609 -52.930  0.00  0.00     0.268 A 
ATOM      4  N   UNL d   1     -41.346-121.498 -51.775  0.00  0.00    -0.222 NA
ATOM      5  C   UNL d   1     -41.697-122.828 -52.144  0.00  0.00     0.074 A 
ATOM      6  C   UNL d   1     -41.536-122.267 -51.554  0.00  0.00     0.088 A 
ATOM      7  C   UNL d   1     -41.567-122.481 -50.754  0.00  0.00     0.024 A 
ATOM      8  C   UNL d   1     -41.887-123.600 -51.922  0.00  0.00     0.006 A 
ATOM      9  C   UNL d   1     -41.759-123.257 -50.543  0.00  0.00     0.059 A 
ATOM     10  O   UNL d   1     -41.825-123.170 -53.521  0.00  0.00    -0.267 OA
ATOM     11  C   UNL d   1     -41.919-123.817 -51.132  0.00  0.00     0.005 A 
ENDROOT
BRANCH   9  12
ATOM     12  C   UNL d   1     -41.791-123.475 -49.741  0.00  0.00     0.279 C 
ATOM     13  N   UNL d   1     -42.475-123.345 -49.325  0.00  0.00    -0.204 NA
ATOM     14  O   UNL d   1     -41.128-123.816 -49.394  0.00  0.00    -0.265 OA
BRANCH  13  15
ATOM     15  C   UNL d   1     -43.128-123.003 -49.688  0.00  0.00     0.127 C 
BRANCH  15  16
ATOM     16  C   UNL d   1     -43.890-123.209 -49.449  0.00  0.00     0.119 A 
ATOM     17  O   UNL d   1     -44.249-123.250 -48.723  0.00  0.00    -0.304 OA
ATOM     18  C   UNL d   1     -45.028-123.491 -48.812  0.00  0.00     0.123 A 
ATOM     19  C   UNL d   1     -45.143-123.600 -49.627  0.00  0.00     0.029 A 
ATOM     20  C   UNL d   1     -44.454-123.430 -50.019  0.00  0.00     0.028 A 
ENDBRANCH  15  16
ENDBRANCH  13  15
ENDBRANCH   9  12
BRANCH   2  21
ATOM     21  S   UNL d   1     -41.123-120.505 -52.776  0.00  0.00    -0.044 SA
BRANCH  21  22
ATOM     22  C   UNL d   1     -41.323-119.882 -52.283  0.00  0.00     0.107 C 
BRANCH  22  23
ATOM     23  C   UNL d   1     -41.574-119.168 -52.613  0.00  0.00     0.307 C 
ATOM     24  O   UNL d   1     -42.264-119.134 -53.074  0.00  0.00    -0.258 OA
BRANCH  23  25
ATOM     25  O   UNL d   1     -41.127-118.482 -52.478  0.00  0.00    -0.271 OA
BRANCH  25  26
ATOM     26  C   UNL d   1     -41.516-117.796 -52.232  0.00  0.00     0.126 C 
ATOM     27  C   UNL d   1     -41.185-117.358 -51.630  0.00  0.00     0.029 C 
ENDBRANCH  25  26
ENDBRANCH  23  25
ENDBRANCH  22  23
ENDBRANCH  21  22
ENDBRANCH   2  21
BRANCH   1  28
ATOM     28  C   UNL d   1     -41.440-121.612 -53.944  0.00  0.00     0.085 C 
BRANCH  28  29
ATOM     29  C   UNL d   1     -42.073-121.769 -54.448  0.00  0.00     0.019 C 
BRANCH  29  30
ATOM     30  C   UNL d   1     -41.974-121.803 -55.255  0.00  0.00     0.002 C 
BRANCH  30  31
ATOM     31  C   UNL d   1     -42.589-122.033 -55.752  0.00  0.00     0.000 C 
ATOM     32  C   UNL d   1     -42.445-122.469 -56.412  0.00  0.00     0.000 C 
ENDBRANCH  30  31
ENDBRANCH  29  30
ENDBRANCH  28  29
ENDBRANCH   1  28
TORSDOF 12
ENDMDL
MODEL 3
REMARK VINA RESULT:      22.2      1.170      2.945
REMARK  12 active torsions:
REMARK  status: ('A' for Active; 'I' for Inactive)
REMARK    1  A    between atoms: C_23  and  N_1 
REMARK    2  A    between atoms: S_8  and  C_2 
REMARK    3  A    between atoms: C_7  and  C_11 
REMARK       I    between atoms: N_12  and  C_7 
REMARK    4  A    between atoms: C_24  and  S_8 
REMARK    5  A    between atoms: C_25  and  N_12 
REMARK    6  A    between atoms: C_13  and  C_25 
REMARK    7  A    between atoms: C_15  and  C_24 
REMARK    8  A    between atoms: O_26  and  C_15 
REMARK    9  A    between atoms: C_28  and  C_23 
REMARK   10  A    between atoms: C_27  and  O_26 
REMARK   11  A    between atoms: C_30  and  C_28 
REMARK   12  A    between atoms: C_29  and  C_30 
ROOT
ATOM      1  N   UNL d   1     -42.868-122.326 -50.879  0.00  0.00    -0.253 N 
ATOM      2  C   UNL d   1     -42.274-122.879 -50.792  0.00  0.00     0.182 A 
ATOM      3  C   UNL d   1     -43.045-122.019 -51.621  0.00  0.00     0.268 A 
ATOM      4  N   UNL d   1     -41.854-123.125 -51.452  0.00  0.00    -0.222 NA
ATOM      5  C   UNL d   1     -42.628-122.263 -52.279  0.00  0.00     0.074 A 
ATOM      6  C   UNL d   1     -42.022-122.825 -52.198  0.00  0.00     0.088 A 
ATOM      7  C   UNL d   1     -41.595-123.077 -52.862  0.00  0.00     0.024 A 
ATOM      8  C   UNL d   1     -42.797-121.961 -53.029  0.00  0.00     0.006 A 
ATOM      9  C   UNL d   1     -41.772-122.769 -53.608  0.00  0.00     0.059 A 
ATOM     10  O   UNL d   1     -43.651-121.458 -51.702  0.00  0.00    -0.267 OA
ATOM     11  C   UNL d   1     -42.377-122.208 -53.689  0.00  0.00     0.005 A 
ENDROOT
BRANCH   9  12
ATOM     12  C   UNL d   1     -41.345-123.020 -54.276  0.00  0.00     0.279 C 
ATOM     13  N   UNL d   1     -41.160-122.479 -54.851  0.00  0.00    -0.204 NA
ATOM     14  O   UNL d   1     -41.123-123.810 -54.333  0.00  0.00    -0.265 OA
BRANCH  13  15
ATOM     15  C   UNL d   1     -41.390-121.693 -54.776  0.00  0.00     0.127 C 
BRANCH  15  16
ATOM     16  C   UNL d   1     -41.715-121.295 -55.422  0.00  0.00     0.119 A 
ATOM     17  O   UNL d   1     -42.183-120.636 -55.485  0.00  0.00    -0.304 OA
ATOM     18  C   UNL d   1     -42.344-120.485 -56.275  0.00  0.00     0.123 A 
ATOM     19  C   UNL d   1     -41.956-121.080 -56.706  0.00  0.00     0.029 A 
ATOM     20  C   UNL d   1     -41.572-121.575 -56.192  0.00  0.00     0.028 A 
ENDBRANCH  15  16
ENDBRANCH  13  15
ENDBRANCH   9  12
BRANCH   2  21
ATOM     21  S   UNL d   1     -42.096-123.188 -50.047  0.00  0.00    -0.044 SA
BRANCH  21  22
ATOM     22  C   UNL d   1     -41.393-122.990 -49.674  0.00  0.00     0.107 C 
BRANCH  22  23
ATOM     23  C   UNL d   1     -41.348-123.019 -48.850  0.00  0.00     0.307 C 
ATOM     24  O   UNL d   1     -41.124-122.349 -48.414  0.00  0.00    -0.258 OA
BRANCH  23  25
ATOM     25  O   UNL d   1     -41.530-123.729 -48.462  0.00  0.00    -0.271 OA
BRANCH  25  26
ATOM     26  C   UNL d   1     -41.313-123.816 -47.670  0.00  0.00     0.126 C 
ATOM     27  C   UNL d   1     -41.896-123.785 -47.102  0.00  0.00     0.029 C 
ENDBRANCH  25  26
ENDBRANCH  23  25
ENDBRANCH  22  23
ENDBRANCH  21  22
ENDBRANCH   2  21
BRANCH   1  28
ATOM     28  C   UNL d   1     -43.294-122.078 -50.204  0.00  0.00     0.085 C 
BRANCH  28  29
ATOM     29  C   UNL d   1     -44.071-122.325 -50.088  0.00  0.00     0.019 C 
BRANCH  29  30
ATOM     30  C   UNL d   1     -44.585-121.902 -49.620  0.00  0.00     0.002 C 
BRANCH  30  31
ATOM     31  C   UNL d   1     -45.167-121.422 -49.950  0.00  0.00     0.000 C 
ATOM     32  C   UNL d   1     -45.479-120.807 -49.536  0.00  0.00     0.000 C 
ENDBRANCH  30  31
ENDBRANCH  29  30
ENDBRANCH  28  29
ENDBRANCH   1  28
TORSDOF 12
ENDMDL
