MODEL 1
REMARK VINA RESULT:      42.2      0.000      0.000
REMARK  7 active torsions:
REMARK  status: ('A' for Active; 'I' for Inactive)
REMARK    1  A    between atoms: C_2  and  S_1 
REMARK    2  A    between atoms: N_8  and  S_1 
REMARK    3  A    between atoms: C_13  and  N_8 
REMARK    4  A    between atoms: N_9  and  C_14 
REMARK    5  A    between atoms: O_15  and  C_10 
REMARK    6  A    between atoms: C_14  and  C_13 
REMARK    7  A    between atoms: C_22  and  O_15 
ROOT
ATOM      1  C   UNL d   1     -51.367  25.420  33.375  0.00  0.00     0.105 A 
ATOM      2  C   UNL d   1     -50.989  24.696  33.379  0.00  0.00     0.014 A 
ATOM      3  C   UNL d   1     -51.427  23.998  33.357  0.00  0.00     0.024 A 
ATOM      4  C   UNL d   1     -52.195  25.453  33.348  0.00  0.00     0.015 A 
ATOM      5  C   UNL d   1     -52.243  24.023  33.331  0.00  0.00     0.100 A 
ATOM      6  C   UNL d   1     -52.633  24.754  33.326  0.00  0.00     0.025 A 
ATOM      7  C   UNL d   1     -50.165  24.666  33.406  0.00  0.00     0.001 A 
ATOM      8  C   UNL d   1     -51.042  23.268  33.362  0.00  0.00     0.002 A 
ATOM      9  C   UNL d   1     -49.779  23.937  33.410  0.00  0.00     0.000 A 
ATOM     10  C   UNL d   1     -50.217  23.238  33.389  0.00  0.00     0.000 A 
ENDROOT
BRANCH   1  11
ATOM     11  S   UNL d   1     -50.929  26.119  33.397  0.00  0.00     0.285 S 
ATOM     12  O   UNL d   1     -50.227  25.681  33.306  0.00  0.00    -0.198 OA
ATOM     13  O   UNL d   1     -51.617  26.547  33.486  0.00  0.00    -0.198 OA
BRANCH  11  14
ATOM     14  N   UNL d   1     -50.491  26.817  33.418  0.00  0.00    -0.155 NA
BRANCH  14  15
ATOM     15  C   UNL d   1     -49.854  26.890  33.925  0.00  0.00     0.131 C 
BRANCH  15  16
ATOM     16  C   UNL d   1     -49.897  27.389  34.580  0.00  0.00     0.102 C 
BRANCH  16  17
ATOM     17  N   UNL d   1     -49.273  27.901  34.750  0.00  0.00    -0.298 N 
ATOM     18  C   UNL d   1     -48.900  28.314  34.141  0.00  0.00     0.107 A 
ATOM     19  C   UNL d   1     -48.272  28.829  34.309  0.00  0.00     0.142 A 
ATOM     20  O   UNL d   1     -48.021  28.928  35.088  0.00  0.00    -0.300 OA
ATOM     21  C   UNL d   1     -48.397  28.513  35.700  0.00  0.00     0.142 A 
ATOM     22  C   UNL d   1     -49.022  28.000  35.529  0.00  0.00     0.107 A 
ENDBRANCH  16  17
ENDBRANCH  15  16
ENDBRANCH  14  15
ENDBRANCH  11  14
ENDBRANCH   1  11
BRANCH   5  23
ATOM     23  O   UNL d   1     -52.687  23.328  33.309  0.00  0.00    -0.305 OA
BRANCH  23  24
ATOM     24  C   UNL d   1     -53.505  23.351  33.393  0.00  0.00     0.123 C 
ATOM     25  C   UNL d   1     -53.842  23.674  34.073  0.00  0.00     0.029 C 
ENDBRANCH  23  24
ENDBRANCH   5  23
TORSDOF 7
ENDMDL
MODEL 2
REMARK VINA RESULT:      43.6      0.861      1.180
REMARK  7 active torsions:
REMARK  status: ('A' for Active; 'I' for Inactive)
REMARK    1  A    between atoms: C_2  and  S_1 
REMARK    2  A    between atoms: N_8  and  S_1 
REMARK    3  A    between atoms: C_13  and  N_8 
REMARK    4  A    between atoms: N_9  and  C_14 
REMARK    5  A    between atoms: O_15  and  C_10 
REMARK    6  A    between atoms: C_14  and  C_13 
REMARK    7  A    between atoms: C_22  and  O_15 
ROOT
ATOM      1  C   UNL d   1     -50.671  26.214  33.497  0.00  0.00     0.105 A 
ATOM      2  C   UNL d   1     -50.381  25.453  33.434  0.00  0.00     0.014 A 
ATOM      3  C   UNL d   1     -50.900  24.814  33.374  0.00  0.00     0.024 A 
ATOM      4  C   UNL d   1     -51.489  26.345  33.501  0.00  0.00     0.015 A 
ATOM      5  C   UNL d   1     -51.708  24.936  33.377  0.00  0.00     0.100 A 
ATOM      6  C   UNL d   1     -52.007  25.707  33.441  0.00  0.00     0.025 A 
ATOM      7  C   UNL d   1     -49.567  25.324  33.430  0.00  0.00     0.001 A 
ATOM      8  C   UNL d   1     -50.605  24.046  33.310  0.00  0.00     0.002 A 
ATOM      9  C   UNL d   1     -49.270  24.557  33.366  0.00  0.00     0.000 A 
ATOM     10  C   UNL d   1     -49.789  23.918  33.306  0.00  0.00     0.000 A 
ENDROOT
BRANCH   1  11
ATOM     11  S   UNL d   1     -50.152  26.852  33.556  0.00  0.00     0.285 S 
ATOM     12  O   UNL d   1     -50.778  27.337  33.810  0.00  0.00    -0.198 OA
ATOM     13  O   UNL d   1     -49.538  26.377  33.308  0.00  0.00    -0.198 OA
BRANCH  11  14
ATOM     14  N   UNL d   1     -49.633  27.491  33.616  0.00  0.00    -0.155 NA
BRANCH  14  15
ATOM     15  C   UNL d   1     -49.431  27.792  34.348  0.00  0.00     0.131 C 
BRANCH  15  16
ATOM     16  C   UNL d   1     -49.228  28.587  34.431  0.00  0.00     0.102 C 
BRANCH  16  17
ATOM     17  N   UNL d   1     -48.612  28.805  34.933  0.00  0.00    -0.298 N 
ATOM     18  C   UNL d   1     -47.987  29.261  34.647  0.00  0.00     0.107 A 
ATOM     19  C   UNL d   1     -47.366  29.482  35.150  0.00  0.00     0.142 A 
ATOM     20  O   UNL d   1     -47.374  29.244  35.940  0.00  0.00    -0.300 OA
ATOM     21  C   UNL d   1     -48.003  28.785  36.227  0.00  0.00     0.142 A 
ATOM     22  C   UNL d   1     -48.620  28.567  35.723  0.00  0.00     0.107 A 
ENDBRANCH  16  17
ENDBRANCH  15  16
ENDBRANCH  14  15
ENDBRANCH  11  14
ENDBRANCH   1  11
BRANCH   5  23
ATOM     23  O   UNL d   1     -52.231  24.302  33.318  0.00  0.00    -0.305 OA
BRANCH  23  24
ATOM     24  C   UNL d   1     -52.983  24.347  33.651  0.00  0.00     0.123 C 
ATOM     25  C   UNL d   1     -53.556  24.836  33.315  0.00  0.00     0.029 C 
ENDBRANCH  23  24
ENDBRANCH   5  23
TORSDOF 7
ENDMDL
MODEL 3
REMARK VINA RESULT:      45.1      1.264      2.214
REMARK  7 active torsions:
REMARK  status: ('A' for Active; 'I' for Inactive)
REMARK    1  A    between atoms: C_2  and  S_1 
REMARK    2  A    between atoms: N_8  and  S_1 
REMARK    3  A    between atoms: C_13  and  N_8 
REMARK    4  A    between atoms: N_9  and  C_14 
REMARK    5  A    between atoms: O_15  and  C_10 
REMARK    6  A    between atoms: C_14  and  C_13 
REMARK    7  A    between atoms: C_22  and  O_15 
ROOT
ATOM      1  C   UNL d   1     -50.070  26.352  33.645  0.00  0.00     0.105 A 
ATOM      2  C   UNL d   1     -50.830  26.628  33.533  0.00  0.00     0.014 A 
ATOM      3  C   UNL d   1     -51.453  26.099  33.421  0.00  0.00     0.024 A 
ATOM      4  C   UNL d   1     -49.923  25.536  33.645  0.00  0.00     0.015 A 
ATOM      5  C   UNL d   1     -51.316  25.294  33.420  0.00  0.00     0.100 A 
ATOM      6  C   UNL d   1     -50.546  25.007  33.533  0.00  0.00     0.025 A 
ATOM      7  C   UNL d   1     -50.973  27.440  33.533  0.00  0.00     0.001 A 
ATOM      8  C   UNL d   1     -52.220  26.382  33.308  0.00  0.00     0.002 A 
ATOM      9  C   UNL d   1     -51.740  27.724  33.421  0.00  0.00     0.000 A 
ATOM     10  C   UNL d   1     -52.363  27.195  33.308  0.00  0.00     0.000 A 
ENDROOT
BRANCH   1  11
ATOM     11  S   UNL d   1     -49.447  26.881  33.757  0.00  0.00     0.285 S 
ATOM     12  O   UNL d   1     -49.031  26.301  34.185  0.00  0.00    -0.198 OA
ATOM     13  O   UNL d   1     -49.853  27.449  33.338  0.00  0.00    -0.198 OA
BRANCH  11  14
ATOM     14  N   UNL d   1     -48.824  27.410  33.869  0.00  0.00    -0.155 NA
BRANCH  14  15
ATOM     15  C   UNL d   1     -48.855  27.964  34.469  0.00  0.00     0.131 C 
BRANCH  15  16
ATOM     16  C   UNL d   1     -48.182  28.134  34.915  0.00  0.00     0.102 C 
BRANCH  16  17
ATOM     17  N   UNL d   1     -48.018  28.912  35.133  0.00  0.00    -0.298 N 
ATOM     18  C   UNL d   1     -48.151  29.527  34.600  0.00  0.00     0.107 A 
ATOM     19  C   UNL d   1     -47.987  30.310  34.817  0.00  0.00     0.142 A 
ATOM     20  O   UNL d   1     -47.690  30.473  35.569  0.00  0.00    -0.300 OA
ATOM     21  C   UNL d   1     -47.556  29.854  36.104  0.00  0.00     0.142 A 
ATOM     22  C   UNL d   1     -47.720  29.075  35.885  0.00  0.00     0.107 A 
ENDBRANCH  16  17
ENDBRANCH  15  16
ENDBRANCH  14  15
ENDBRANCH  11  14
ENDBRANCH   1  11
BRANCH   5  23
ATOM     23  O   UNL d   1     -51.934  24.760  33.309  0.00  0.00    -0.305 OA
BRANCH  23  24
ATOM     24  C   UNL d   1     -51.995  24.086  33.777  0.00  0.00     0.123 C 
ATOM     25  C   UNL d   1     -52.720  23.701  33.855  0.00  0.00     0.029 C 
ENDBRANCH  23  24
ENDBRANCH   5  23
TORSDOF 7
ENDMDL
