MODEL 1
REMARK VINA RESULT:      27.7      0.000      0.000
REMARK  6 active torsions:
REMARK  status: ('A' for Active; 'I' for Inactive)
REMARK    1  A    between atoms: C_6  and  N_1 
REMARK    2  A    between atoms: C_7  and  C_4 
REMARK    3  A    between atoms: C_8  and  C_6 
REMARK    4  A    between atoms: C_11  and  C_6 
REMARK    5  A    between atoms: C_13  and  C_7 
REMARK    6  A    between atoms: C_16  and  C_11 
ROOT
ATOM      1  N   UNL d   1      45.757 -17.947  43.884  0.00  0.00    -0.254 N 
ATOM      2  C   UNL d   1      46.104 -17.912  44.558  0.00  0.00     0.153 A 
ATOM      3  C   UNL d   1      45.275 -17.293  43.803  0.00  0.00     0.272 A 
ATOM      4  C   UNL d   1      45.340 -16.836  44.478  0.00  0.00     0.088 A 
ATOM      5  S   UNL d   1      45.862 -17.230  44.949  0.00  0.00    -0.054 SA
ATOM      6  S   UNL d   1      46.644 -18.528  44.792  0.00  0.00    -0.052 SA
ATOM      7  O   UNL d   1      44.783 -17.101  43.142  0.00  0.00    -0.266 OA
ENDROOT
BRANCH   1   8
ATOM      8  C   UNL d   1      45.868 -18.570  43.327  0.00  0.00     0.132 C 
BRANCH   8   9
ATOM      9  C   UNL d   1      45.299 -19.131  43.205  0.00  0.00     0.228 C 
ATOM     10  O   UNL d   1      44.674 -19.008  42.679  0.00  0.00    -0.643 OA
ATOM     11  O   UNL d   1      45.353 -19.851  43.627  0.00  0.00    -0.643 OA
ENDBRANCH   8   9
BRANCH   8  12
ATOM     12  C   UNL d   1      46.608 -18.582  42.898  0.00  0.00     0.024 C 
BRANCH  12  13
ATOM     13  C   UNL d   1      46.605 -18.855  42.127  0.00  0.00     0.002 A 
ATOM     14  C   UNL d   1      46.622 -19.630  41.951  0.00  0.00     0.000 A 
ATOM     15  C   UNL d   1      46.617 -19.881  41.150  0.00  0.00     0.000 A 
ATOM     16  C   UNL d   1      46.595 -19.330  40.582  0.00  0.00     0.000 A 
ATOM     17  C   UNL d   1      46.577 -18.527  40.740  0.00  0.00     0.000 A 
ATOM     18  C   UNL d   1      46.581 -18.272  41.535  0.00  0.00     0.000 A 
ENDBRANCH  12  13
ENDBRANCH   8  12
ENDBRANCH   1   8
BRANCH   4  19
ATOM     19  C   UNL d   1      44.924 -16.132  44.580  0.00  0.00     0.011 C 
BRANCH  19  20
ATOM     20  C   UNL d   1      45.304 -15.373  44.577  0.00  0.00     0.001 A 
ATOM     21  C   UNL d   1      46.022 -15.293  44.943  0.00  0.00     0.001 A 
ATOM     22  C   UNL d   1      46.417 -14.562  44.955  0.00  0.00     0.007 A 
ATOM     23  C   UNL d   1      46.033 -13.888  44.563  0.00  0.00     0.035 A 
ATOM     24  C   UNL d   1      45.306 -14.003  44.202  0.00  0.00     0.007 A 
ATOM     25 BR   UNL d   1      46.407 -13.129  44.557  0.00  0.00    -0.049 Br
ATOM     26  C   UNL d   1      44.946 -14.727  44.207  0.00  0.00     0.001 A 
ENDBRANCH  19  20
ENDBRANCH   4  19
TORSDOF 6
ENDMDL
