MODEL 1
REMARK VINA RESULT:      21.4      0.000      0.000
REMARK  2 active torsions:
REMARK  status: ('A' for Active; 'I' for Inactive)
REMARK    1  A    between atoms: C_7  and  C_1 
REMARK    2  A    between atoms: C_8  and  C_7 
ROOT
ATOM      1  C   UNL d   1     -56.944 -98.756 -44.270  0.00  0.00     0.118 A 
ATOM      2  N   UNL d   1     -57.941 -98.756 -45.294  0.00  0.00    -0.178 NA
ATOM      3  N   UNL d   1     -58.329 -98.756 -43.923  0.00  0.00    -0.178 NA
ATOM      4  C   UNL d   1     -57.144 -98.756 -45.069  0.00  0.00     0.286 A 
ATOM      5  C   UNL d   1     -57.532 -98.755 -43.697  0.00  0.00     0.286 A 
ATOM      6  C   UNL d   1     -58.552 -98.756 -44.725  0.00  0.00     0.226 A 
ATOM      7  S   UNL d   1     -59.344 -98.756 -44.949  0.00  0.00    -0.037 SA
ATOM      8  O   UNL d   1     -56.551 -98.756 -45.660  0.00  0.00    -0.265 OA
ATOM      9  O   UNL d   1     -57.336 -98.755 -42.884  0.00  0.00    -0.265 OA
ENDROOT
BRANCH   1  10
ATOM     10  C   UNL d   1     -56.145 -98.755 -44.044  0.00  0.00     0.034 C 
BRANCH  10  11
ATOM     11  C   UNL d   1     -55.647 -99.340 -44.324  0.00  0.00     0.100 A 
ATOM     12  O   UNL d   1     -55.609-100.066 -43.928  0.00  0.00    -0.307 OA
ATOM     13  C   UNL d   1     -55.067-100.539 -44.334  0.00  0.00     0.100 A 
ATOM     14  C   UNL d   1     -54.853-101.313 -44.135  0.00  0.00     0.027 C 
ATOM     15  C   UNL d   1     -54.783-100.116 -44.958  0.00  0.00     0.027 A 
ATOM     16  C   UNL d   1     -55.129 -99.368 -44.972  0.00  0.00     0.027 A 
ENDBRANCH  10  11
ENDBRANCH   1  10
TORSDOF 2
ENDMDL
