MODEL 1
REMARK VINA RESULT:      -2.1      0.000      0.000
REMARK  3 active torsions:
REMARK  status: ('A' for Active; 'I' for Inactive)
REMARK    1  A    between atoms: C_6  and  N_3 
REMARK    2  A    between atoms: C_5  and  C_4 
REMARK    3  A    between atoms: O_18  and  C_14 
ROOT
ATOM      1  C   UNL d   1      58.087  -0.416  30.352  0.00  0.00     0.366 A 
ATOM      2  C   UNL d   1      57.859  -1.209  30.318  0.00  0.00     0.308 A 
ATOM      3  N   UNL d   1      58.503  -1.391  29.863  0.00  0.00    -0.272 N 
ATOM      4  C   UNL d   1      58.749  -0.584  29.888  0.00  0.00     0.115 A 
ATOM      5  O   UNL d   1      57.235  -1.655  30.618  0.00  0.00    -0.265 OA
ATOM      6  F   UNL d   1      57.396  -0.391  30.802  0.00  0.00    -0.188 F 
ATOM      7  F   UNL d   1      57.978   0.360  30.599  0.00  0.00    -0.188 F 
ENDROOT
BRANCH   3   8
ATOM      8  C   UNL d   1      58.816  -2.085  29.504  0.00  0.00     0.067 A 
ATOM      9  C   UNL d   1      59.492  -2.425  29.807  0.00  0.00     0.020 A 
ATOM     10  C   UNL d   1      59.810  -3.107  29.465  0.00  0.00     0.026 A 
ATOM     11  C   UNL d   1      59.428  -3.433  28.812  0.00  0.00     0.094 A 
ATOM     12  C   UNL d   1      58.747  -3.102  28.496  0.00  0.00     0.026 A 
ATOM     13  C   UNL d   1      58.428  -2.421  28.838  0.00  0.00     0.020 A 
BRANCH  11  14
ATOM     14  O   UNL d   1      59.741  -4.125  28.456  0.00  0.00    -0.328 OA
ATOM     15  C   UNL d   1      60.563  -4.269  28.473  0.00  0.00     0.181 C 
ENDBRANCH  11  14
ENDBRANCH   3   8
BRANCH   4  16
ATOM     16  C   UNL d   1      59.388  -0.154  29.575  0.00  0.00     0.045 A 
ATOM     17  C   UNL d   1      59.294   0.245  28.868  0.00  0.00     0.141 A 
ATOM     18  F   UNL d   1      58.564   0.225  28.455  0.00  0.00    -0.204 F 
ATOM     19  C   UNL d   1      59.952   0.678  28.560  0.00  0.00     0.030 A 
ATOM     20  C   UNL d   1      60.653   0.682  28.981  0.00  0.00     0.002 A 
ATOM     21  C   UNL d   1      60.751   0.286  29.687  0.00  0.00     0.000 A 
ATOM     22  C   UNL d   1      60.109  -0.146  30.001  0.00  0.00     0.004 A 
ENDBRANCH   4  16
TORSDOF 3
ENDMDL
MODEL 2
REMARK VINA RESULT:      -1.2      1.602      3.197
REMARK  3 active torsions:
REMARK  status: ('A' for Active; 'I' for Inactive)
REMARK    1  A    between atoms: C_6  and  N_3 
REMARK    2  A    between atoms: C_5  and  C_4 
REMARK    3  A    between atoms: O_18  and  C_14 
ROOT
ATOM      1  C   UNL d   1      59.233  -1.955  28.957  0.00  0.00     0.366 A 
ATOM      2  C   UNL d   1      58.534  -2.041  29.387  0.00  0.00     0.308 A 
ATOM      3  N   UNL d   1      58.587  -1.279  29.655  0.00  0.00    -0.272 N 
ATOM      4  C   UNL d   1      59.304  -1.177  29.221  0.00  0.00     0.115 A 
ATOM      5  O   UNL d   1      57.988  -2.646  29.507  0.00  0.00    -0.265 OA
ATOM      6  F   UNL d   1      59.041  -2.737  28.773  0.00  0.00    -0.188 F 
ATOM      7  F   UNL d   1      59.817  -2.244  28.456  0.00  0.00    -0.188 F 
ENDROOT
BRANCH   3   8
ATOM      8  C   UNL d   1      58.131  -0.779  30.157  0.00  0.00     0.067 A 
ATOM      9  C   UNL d   1      57.996  -1.000  30.930  0.00  0.00     0.020 A 
ATOM     10  C   UNL d   1      57.551  -0.521  31.434  0.00  0.00     0.026 A 
ATOM     11  C   UNL d   1      57.247   0.185  31.135  0.00  0.00     0.094 A 
ATOM     12  C   UNL d   1      57.375   0.421  30.359  0.00  0.00     0.026 A 
ATOM     13  C   UNL d   1      57.820  -0.059  29.856  0.00  0.00     0.020 A 
BRANCH  11  14
ATOM     14  O   UNL d   1      56.793   0.682  31.637  0.00  0.00    -0.328 OA
ATOM     15  C   UNL d   1      56.480   0.382  32.349  0.00  0.00     0.181 C 
ENDBRANCH  11  14
ENDBRANCH   3   8
BRANCH   4  16
ATOM     16  C   UNL d   1      59.841  -0.551  29.114  0.00  0.00     0.045 A 
ATOM     17  C   UNL d   1      60.535  -0.542  29.546  0.00  0.00     0.141 A 
ATOM     18  F   UNL d   1      60.711  -1.153  30.095  0.00  0.00    -0.204 F 
ATOM     19  C   UNL d   1      61.074   0.099  29.428  0.00  0.00     0.030 A 
ATOM     20  C   UNL d   1      60.880   0.682  28.888  0.00  0.00     0.002 A 
ATOM     21  C   UNL d   1      60.189   0.677  28.455  0.00  0.00     0.000 A 
ATOM     22  C   UNL d   1      59.649   0.048  28.563  0.00  0.00     0.004 A 
ENDBRANCH   4  16
TORSDOF 3
ENDMDL
MODEL 3
REMARK VINA RESULT:      -0.9      2.792      4.472
REMARK  3 active torsions:
REMARK  status: ('A' for Active; 'I' for Inactive)
REMARK    1  A    between atoms: C_6  and  N_3 
REMARK    2  A    between atoms: C_5  and  C_4 
REMARK    3  A    between atoms: O_18  and  C_14 
ROOT
ATOM      1  C   UNL d   1      57.868   0.328  33.511  0.00  0.00     0.366 A 
ATOM      2  C   UNL d   1      58.406   0.437  32.895  0.00  0.00     0.308 A 
ATOM      3  N   UNL d   1      57.854   0.206  32.351  0.00  0.00    -0.272 N 
ATOM      4  C   UNL d   1      57.292   0.090  32.970  0.00  0.00     0.115 A 
ATOM      5  O   UNL d   1      59.191   0.680  32.837  0.00  0.00    -0.265 OA
ATOM      6  F   UNL d   1      58.529   0.582  33.935  0.00  0.00    -0.188 F 
ATOM      7  F   UNL d   1      57.662   0.344  34.307  0.00  0.00    -0.188 F 
ENDROOT
BRANCH   3   8
ATOM      8  C   UNL d   1      57.829   0.113  31.514  0.00  0.00     0.067 A 
ATOM      9  C   UNL d   1      57.465   0.681  31.057  0.00  0.00     0.020 A 
ATOM     10  C   UNL d   1      57.433   0.603  30.235  0.00  0.00     0.026 A 
ATOM     11  C   UNL d   1      57.777  -0.062  29.891  0.00  0.00     0.094 A 
ATOM     12  C   UNL d   1      58.147  -0.642  30.338  0.00  0.00     0.026 A 
ATOM     13  C   UNL d   1      58.179  -0.564  31.160  0.00  0.00     0.020 A 
BRANCH  11  14
ATOM     14  O   UNL d   1      57.751  -0.152  29.057  0.00  0.00    -0.328 OA
ATOM     15  C   UNL d   1      58.338  -0.597  28.666  0.00  0.00     0.181 C 
ENDBRANCH  11  14
ENDBRANCH   3   8
BRANCH   4  16
ATOM     16  C   UNL d   1      56.499  -0.158  33.005  0.00  0.00     0.045 A 
ATOM     17  C   UNL d   1      56.333  -0.952  33.109  0.00  0.00     0.141 A 
ATOM     18  F   UNL d   1      56.950  -1.517  33.180  0.00  0.00    -0.204 F 
ATOM     19  C   UNL d   1      55.523  -1.192  33.143  0.00  0.00     0.030 A 
ATOM     20  C   UNL d   1      54.940  -0.622  33.071  0.00  0.00     0.002 A 
ATOM     21  C   UNL d   1      55.101   0.170  32.967  0.00  0.00     0.000 A 
ATOM     22  C   UNL d   1      55.898   0.420  32.932  0.00  0.00     0.004 A 
ENDBRANCH   4  16
TORSDOF 3
ENDMDL
MODEL 4
REMARK VINA RESULT:       0.6      2.057      3.749
REMARK  3 active torsions:
REMARK  status: ('A' for Active; 'I' for Inactive)
REMARK    1  A    between atoms: C_6  and  N_3 
REMARK    2  A    between atoms: C_5  and  C_4 
REMARK    3  A    between atoms: O_18  and  C_14 
ROOT
ATOM      1  C   UNL d   1      59.809   0.042  30.672  0.00  0.00     0.366 A 
ATOM      2  C   UNL d   1      59.487   0.302  31.386  0.00  0.00     0.308 A 
ATOM      3  N   UNL d   1      58.754   0.036  31.171  0.00  0.00    -0.272 N 
ATOM      4  C   UNL d   1      59.068  -0.236  30.436  0.00  0.00     0.115 A 
ATOM      5  O   UNL d   1      59.776   0.681  32.058  0.00  0.00    -0.265 OA
ATOM      6  F   UNL d   1      60.481   0.360  31.030  0.00  0.00    -0.188 F 
ATOM      7  F   UNL d   1      60.439  -0.058  30.154  0.00  0.00    -0.188 F 
ENDROOT
BRANCH   3   8
ATOM      8  C   UNL d   1      57.987   0.025  31.518  0.00  0.00     0.067 A 
ATOM      9  C   UNL d   1      57.792  -0.566  32.045  0.00  0.00     0.020 A 
ATOM     10  C   UNL d   1      57.044  -0.591  32.393  0.00  0.00     0.026 A 
ATOM     11  C   UNL d   1      56.500  -0.004  32.194  0.00  0.00     0.094 A 
ATOM     12  C   UNL d   1      56.681   0.597  31.666  0.00  0.00     0.026 A 
ATOM     13  C   UNL d   1      57.430   0.621  31.317  0.00  0.00     0.020 A 
BRANCH  11  14
ATOM     14  O   UNL d   1      55.736  -0.018  32.541  0.00  0.00    -0.328 OA
ATOM     15  C   UNL d   1      55.646  -0.221  33.345  0.00  0.00     0.181 C 
ENDBRANCH  11  14
ENDBRANCH   3   8
BRANCH   4  16
ATOM     16  C   UNL d   1      58.754  -0.618  29.768  0.00  0.00     0.045 A 
ATOM     17  C   UNL d   1      58.512  -0.171  29.128  0.00  0.00     0.141 A 
ATOM     18  F   UNL d   1      58.576   0.666  29.137  0.00  0.00    -0.204 F 
ATOM     19  C   UNL d   1      58.195  -0.572  28.455  0.00  0.00     0.030 A 
ATOM     20  C   UNL d   1      58.143  -1.389  28.471  0.00  0.00     0.002 A 
ATOM     21  C   UNL d   1      58.383  -1.838  29.106  0.00  0.00     0.000 A 
ATOM     22  C   UNL d   1      58.699  -1.454  29.778  0.00  0.00     0.004 A 
ENDBRANCH   4  16
TORSDOF 3
ENDMDL
