MODEL 1
REMARK VINA RESULT:      41.2      0.000      0.000
REMARK  1 active torsions:
REMARK  status: ('A' for Active; 'I' for Inactive)
REMARK       I    between atoms: C_3  and  N_1 
REMARK    1  A    between atoms: C_6  and  C_3 
ROOT
ATOM      1  N   UNL d   1     -57.566 -99.162 -44.284  0.00  0.00    -0.175 N 
ATOM      2  N   UNL d   1     -57.627 -99.038 -45.111  0.00  0.00    -0.057 NA
ATOM      3  C   UNL d   1     -56.858 -99.349 -43.872  0.00  0.00     0.282 C 
ATOM      4  N   UNL d   1     -58.377 -98.877 -45.283  0.00  0.00    -0.129 NA
ATOM      5  C   UNL d   1     -58.321 -99.068 -43.962  0.00  0.00     0.107 A 
ATOM      6  C   UNL d   1     -58.833 -98.888 -44.593  0.00  0.00     0.122 A 
ATOM      7  O   UNL d   1     -56.886 -99.457 -43.043  0.00  0.00    -0.265 OA
ATOM      8  C   UNL d   1     -58.617 -99.121 -43.179  0.00  0.00     0.021 A 
ATOM      9  C   UNL d   1     -59.652 -98.757 -44.455  0.00  0.00     0.022 A 
ATOM     10  C   UNL d   1     -59.429 -98.991 -43.041  0.00  0.00     0.002 A 
ATOM     11  C   UNL d   1     -59.941 -98.811 -43.672  0.00  0.00     0.002 A 
ENDROOT
BRANCH   3  12
ATOM     12  C   UNL d   1     -56.141 -99.426 -44.270  0.00  0.00     0.058 A 
ATOM     13  C   UNL d   1     -55.768-100.149 -44.328  0.00  0.00     0.005 A 
ATOM     14  C   UNL d   1     -55.067-100.222 -44.718  0.00  0.00     0.000 A 
ATOM     15  C   UNL d   1     -56.135-100.791 -43.975  0.00  0.00     0.000 A 
ATOM     16  C   UNL d   1     -54.712-100.952 -44.763  0.00  0.00     0.000 A 
ATOM     17  C   UNL d   1     -54.711 -99.557 -45.068  0.00  0.00     0.000 A 
ATOM     18  C   UNL d   1     -55.045-101.591 -44.431  0.00  0.00     0.000 A 
ATOM     19  C   UNL d   1     -55.758-101.514 -44.036  0.00  0.00     0.000 A 
ATOM     20  C   UNL d   1     -55.079 -98.822 -45.016  0.00  0.00     0.000 A 
ATOM     21  C   UNL d   1     -55.802 -98.757 -44.612  0.00  0.00     0.005 A 
ENDBRANCH   3  12
TORSDOF 1
ENDMDL
MODEL 2
REMARK VINA RESULT:      43.2      0.972      1.334
REMARK  1 active torsions:
REMARK  status: ('A' for Active; 'I' for Inactive)
REMARK       I    between atoms: C_3  and  N_1 
REMARK    1  A    between atoms: C_6  and  C_3 
ROOT
ATOM      1  N   UNL d   1     -57.574 -99.146 -44.505  0.00  0.00    -0.175 N 
ATOM      2  N   UNL d   1     -57.668 -99.135 -43.672  0.00  0.00    -0.057 NA
ATOM      3  C   UNL d   1     -56.846 -99.263 -44.910  0.00  0.00     0.282 C 
ATOM      4  N   UNL d   1     -58.427 -99.011 -43.511  0.00  0.00    -0.129 NA
ATOM      5  C   UNL d   1     -58.318 -99.022 -44.842  0.00  0.00     0.107 A 
ATOM      6  C   UNL d   1     -58.857 -98.937 -44.214  0.00  0.00     0.122 A 
ATOM      7  O   UNL d   1     -56.841 -99.260 -45.747  0.00  0.00    -0.265 OA
ATOM      8  C   UNL d   1     -58.583 -98.974 -45.636  0.00  0.00     0.021 A 
ATOM      9  C   UNL d   1     -59.673 -98.802 -44.366  0.00  0.00     0.022 A 
ATOM     10  C   UNL d   1     -59.392 -98.840 -45.789  0.00  0.00     0.002 A 
ATOM     11  C   UNL d   1     -59.931 -98.755 -45.161  0.00  0.00     0.002 A 
ENDROOT
BRANCH   3  12
ATOM     12  C   UNL d   1     -56.143 -99.381 -44.498  0.00  0.00     0.058 A 
ATOM     13  C   UNL d   1     -55.762-100.102 -44.514  0.00  0.00     0.005 A 
ATOM     14  C   UNL d   1     -55.075-100.214 -44.110  0.00  0.00     0.000 A 
ATOM     15  C   UNL d   1     -56.107-100.699 -44.957  0.00  0.00     0.000 A 
ATOM     16  C   UNL d   1     -54.711-100.941 -44.140  0.00  0.00     0.000 A 
ATOM     17  C   UNL d   1     -54.742 -99.594 -43.668  0.00  0.00     0.000 A 
ATOM     18  C   UNL d   1     -55.022-101.538 -44.560  0.00  0.00     0.000 A 
ATOM     19  C   UNL d   1     -55.721-101.421 -44.971  0.00  0.00     0.000 A 
ATOM     20  C   UNL d   1     -55.118 -98.862 -43.643  0.00  0.00     0.000 A 
ATOM     21  C   UNL d   1     -55.827 -98.756 -44.064  0.00  0.00     0.005 A 
ENDBRANCH   3  12
TORSDOF 1
ENDMDL
