MODEL 1
REMARK VINA RESULT:      -3.7      0.000      0.000
REMARK  5 active torsions:
REMARK  status: ('A' for Active; 'I' for Inactive)
REMARK    1  A    between atoms: C_10  and  C_2 
REMARK    2  A    between atoms: S_8  and  C_3 
REMARK    3  A    between atoms: C_6  and  N_7 
REMARK       I    between atoms: N_7  and  C_9 
REMARK    4  A    between atoms: C_15  and  S_8 
REMARK    5  A    between atoms: C_9  and  C_15 
ROOT
ATOM      1  S   UNL d   1      33.012  19.822 -22.362  0.00  0.00    -0.041 SA
ENDROOT
BRANCH   1   2
ATOM      2  C   UNL d   1      33.034  20.640 -22.356  0.00  0.00     0.219 A 
ATOM      3  N   UNL d   1      32.825  21.055 -21.680  0.00  0.00    -0.167 N 
ATOM      4  C   UNL d   1      32.901  21.848 -21.837  0.00  0.00     0.189 A 
ATOM      5  N   UNL d   1      32.580  20.721 -20.968  0.00  0.00    -0.038 N 
ATOM      6  N   UNL d   1      33.153  21.963 -22.594  0.00  0.00    -0.126 NA
ATOM      7  N   UNL d   1      33.237  21.209 -22.919  0.00  0.00    -0.120 NA
BRANCH   4   8
ATOM      8  C   UNL d   1      32.744  22.455 -21.306  0.00  0.00     0.038 A 
ATOM      9  C   UNL d   1      32.132  23.014 -21.465  0.00  0.00     0.003 A 
ATOM     10  C   UNL d   1      31.971  23.630 -20.930  0.00  0.00     0.000 A 
ATOM     11  C   UNL d   1      32.429  23.684 -20.227  0.00  0.00     0.000 A 
ATOM     12  C   UNL d   1      33.034  23.124 -20.078  0.00  0.00     0.000 A 
ATOM     13  C   UNL d   1      33.188  22.520 -20.609  0.00  0.00     0.003 A 
ENDBRANCH   4   8
ENDBRANCH   1   2
BRANCH   1  14
ATOM     14  C   UNL d   1      33.125  19.398 -23.065  0.00  0.00     0.101 C 
BRANCH  14  15
ATOM     15  C   UNL d   1      32.952  18.605 -23.108  0.00  0.00     0.286 C 
ATOM     16  N   UNL d   1      32.521  18.314 -23.773  0.00  0.00    -0.208 NA
ATOM     17  O   UNL d   1      33.187  18.091 -22.520  0.00  0.00    -0.265 OA
BRANCH  16  18
ATOM     18  C   UNL d   1      32.342  17.496 -23.818  0.00  0.00     0.085 A 
ATOM     19  C   UNL d   1      31.623  17.246 -24.147  0.00  0.00     0.018 A 
ATOM     20  C   UNL d   1      31.447  16.441 -24.191  0.00  0.00     0.002 A 
ATOM     21  C   UNL d   1      31.090  17.792 -24.428  0.00  0.00     0.002 C 
ATOM     22  C   UNL d   1      31.989  15.886 -23.905  0.00  0.00     0.000 A 
ATOM     23  C   UNL d   1      32.699  16.146 -23.580  0.00  0.00     0.002 A 
ATOM     24  C   UNL d   1      32.870  16.928 -23.538  0.00  0.00     0.019 A 
ATOM     25  C   UNL d   1      33.238  15.591 -23.297  0.00  0.00     0.000 C 
ENDBRANCH  16  18
ENDBRANCH  14  15
ENDBRANCH   1  14
TORSDOF 5
ENDMDL
MODEL 2
REMARK VINA RESULT:      -3.0      1.058      5.863
REMARK  5 active torsions:
REMARK  status: ('A' for Active; 'I' for Inactive)
REMARK    1  A    between atoms: C_10  and  C_2 
REMARK    2  A    between atoms: S_8  and  C_3 
REMARK    3  A    between atoms: C_6  and  N_7 
REMARK       I    between atoms: N_7  and  C_9 
REMARK    4  A    between atoms: C_15  and  S_8 
REMARK    5  A    between atoms: C_9  and  C_15 
ROOT
ATOM      1  S   UNL d   1      32.900  19.409 -22.927  0.00  0.00    -0.041 SA
ENDROOT
BRANCH   1   2
ATOM      2  C   UNL d   1      32.890  18.591 -22.962  0.00  0.00     0.219 A 
ATOM      3  N   UNL d   1      32.460  18.206 -23.545  0.00  0.00    -0.167 N 
ATOM      4  C   UNL d   1      32.554  17.407 -23.442  0.00  0.00     0.189 A 
ATOM      5  N   UNL d   1      32.013  18.572 -24.133  0.00  0.00    -0.038 N 
ATOM      6  N   UNL d   1      33.031  17.258 -22.809  0.00  0.00    -0.126 NA
ATOM      7  N   UNL d   1      33.241  17.997 -22.509  0.00  0.00    -0.120 NA
BRANCH   4   8
ATOM      8  C   UNL d   1      32.214  16.824 -23.910  0.00  0.00     0.038 A 
ATOM      9  C   UNL d   1      31.476  16.476 -23.691  0.00  0.00     0.003 A 
ATOM     10  C   UNL d   1      31.130  15.886 -24.162  0.00  0.00     0.000 A 
ATOM     11  C   UNL d   1      31.527  15.642 -24.862  0.00  0.00     0.000 A 
ATOM     12  C   UNL d   1      32.257  15.993 -25.071  0.00  0.00     0.000 A 
ATOM     13  C   UNL d   1      32.595  16.574 -24.603  0.00  0.00     0.003 A 
ENDBRANCH   4   8
ENDBRANCH   1   2
BRANCH   1  14
ATOM     14  C   UNL d   1      33.240  19.804 -22.284  0.00  0.00     0.101 C 
BRANCH  14  15
ATOM     15  C   UNL d   1      33.152  20.607 -22.191  0.00  0.00     0.286 C 
ATOM     16  N   UNL d   1      33.164  20.935 -21.414  0.00  0.00    -0.208 NA
ATOM     17  O   UNL d   1      33.053  21.095 -22.837  0.00  0.00    -0.265 OA
BRANCH  16  18
ATOM     18  C   UNL d   1      33.073  21.763 -21.319  0.00  0.00     0.085 A 
ATOM     19  C   UNL d   1      33.113  22.100 -20.562  0.00  0.00     0.018 A 
ATOM     20  C   UNL d   1      33.024  22.915 -20.469  0.00  0.00     0.002 A 
ATOM     21  C   UNL d   1      33.241  21.631 -19.911  0.00  0.00     0.002 C 
ATOM     22  C   UNL d   1      32.894  23.393 -21.131  0.00  0.00     0.000 A 
ATOM     23  C   UNL d   1      32.856  23.047 -21.877  0.00  0.00     0.002 A 
ATOM     24  C   UNL d   1      32.943  22.256 -21.968  0.00  0.00     0.019 A 
ATOM     25  C   UNL d   1      32.727  23.524 -22.535  0.00  0.00     0.000 C 
ENDBRANCH  16  18
ENDBRANCH  14  15
ENDBRANCH   1  14
TORSDOF 5
ENDMDL
MODEL 3
REMARK VINA RESULT:      -1.5      1.282      1.871
REMARK  5 active torsions:
REMARK  status: ('A' for Active; 'I' for Inactive)
REMARK    1  A    between atoms: C_10  and  C_2 
REMARK    2  A    between atoms: S_8  and  C_3 
REMARK    3  A    between atoms: C_6  and  N_7 
REMARK       I    between atoms: N_7  and  C_9 
REMARK    4  A    between atoms: C_15  and  S_8 
REMARK    5  A    between atoms: C_9  and  C_15 
ROOT
ATOM      1  S   UNL d   1      32.720  20.936 -21.465  0.00  0.00    -0.041 SA
ENDROOT
BRANCH   1   2
ATOM      2  C   UNL d   1      32.752  21.692 -21.154  0.00  0.00     0.219 A 
ATOM      3  N   UNL d   1      32.611  21.818 -20.357  0.00  0.00    -0.167 N 
ATOM      4  C   UNL d   1      32.680  22.613 -20.211  0.00  0.00     0.189 A 
ATOM      5  N   UNL d   1      32.430  21.235 -19.803  0.00  0.00    -0.038 N 
ATOM      6  N   UNL d   1      32.863  23.010 -20.888  0.00  0.00    -0.126 NA
ATOM      7  N   UNL d   1      32.908  22.435 -21.478  0.00  0.00    -0.120 NA
BRANCH   4   8
ATOM      8  C   UNL d   1      32.581  22.973 -19.478  0.00  0.00     0.038 A 
ATOM      9  C   UNL d   1      31.808  23.170 -19.201  0.00  0.00     0.003 A 
ATOM     10  C   UNL d   1      31.703  23.534 -18.462  0.00  0.00     0.000 A 
ATOM     11  C   UNL d   1      32.381  23.702 -17.994  0.00  0.00     0.000 A 
ATOM     12  C   UNL d   1      33.143  23.503 -18.278  0.00  0.00     0.000 A 
ATOM     13  C   UNL d   1      33.241  23.144 -19.007  0.00  0.00     0.003 A 
ENDBRANCH   4   8
ENDBRANCH   1   2
BRANCH   1  14
ATOM     14  C   UNL d   1      33.132  20.741 -22.158  0.00  0.00     0.101 C 
BRANCH  14  15
ATOM     15  C   UNL d   1      33.104  19.989 -22.464  0.00  0.00     0.286 C 
ATOM     16  N   UNL d   1      33.056  19.887 -23.300  0.00  0.00    -0.208 NA
ATOM     17  O   UNL d   1      33.122  19.337 -21.976  0.00  0.00    -0.265 OA
BRANCH  16  18
ATOM     18  C   UNL d   1      33.028  19.111 -23.616  0.00  0.00     0.085 A 
ATOM     19  C   UNL d   1      32.900  18.998 -24.428  0.00  0.00     0.018 A 
ATOM     20  C   UNL d   1      32.872  18.235 -24.739  0.00  0.00     0.002 A 
ATOM     21  C   UNL d   1      32.801  19.638 -24.920  0.00  0.00     0.002 C 
ATOM     22  C   UNL d   1      32.971  17.583 -24.239  0.00  0.00     0.000 A 
ATOM     23  C   UNL d   1      33.098  17.708 -23.435  0.00  0.00     0.002 A 
ATOM     24  C   UNL d   1      33.125  18.450 -23.133  0.00  0.00     0.019 A 
ATOM     25  C   UNL d   1      33.197  17.058 -22.938  0.00  0.00     0.000 C 
ENDBRANCH  16  18
ENDBRANCH  14  15
ENDBRANCH   1  14
TORSDOF 5
ENDMDL
