MODEL 1
REMARK VINA RESULT:      -5.0      0.000      0.000
REMARK  2 active torsions:
REMARK  status: ('A' for Active; 'I' for Inactive)
REMARK       I    between atoms: C_3  and  N_1 
REMARK    1  A    between atoms: C_6  and  C_3 
REMARK    2  A    between atoms: O_16  and  C_11 
ROOT
ATOM      1  N   UNL d   1     -41.660-122.698 -52.228  0.00  0.00    -0.175 N 
ATOM      2  N   UNL d   1     -41.572-123.515 -52.175  0.00  0.00    -0.057 NA
ATOM      3  C   UNL d   1     -41.776-122.181 -51.597  0.00  0.00     0.282 C 
ATOM      4  N   UNL d   1     -41.470-123.817 -52.930  0.00  0.00    -0.129 NA
ATOM      5  C   UNL d   1     -41.610-122.501 -53.036  0.00  0.00     0.107 A 
ATOM      6  C   UNL d   1     -41.495-123.180 -53.464  0.00  0.00     0.122 A 
ATOM      7  O   UNL d   1     -41.855-121.377 -51.737  0.00  0.00    -0.265 OA
ATOM      8  C   UNL d   1     -41.658-121.776 -53.425  0.00  0.00     0.021 A 
ATOM      9  C   UNL d   1     -41.423-123.151 -54.297  0.00  0.00     0.022 A 
ATOM     10  C   UNL d   1     -41.590-121.729 -54.244  0.00  0.00     0.002 A 
ATOM     11  C   UNL d   1     -41.470-122.425 -54.690  0.00  0.00     0.002 A 
ENDROOT
BRANCH   3  12
ATOM     12  C   UNL d   1     -41.811-122.476 -50.829  0.00  0.00     0.059 A 
ATOM     13  C   UNL d   1     -42.523-122.502 -50.422  0.00  0.00     0.013 A 
ATOM     14  C   UNL d   1     -42.565-122.796 -49.651  0.00  0.00     0.057 A 
ATOM     15 BR   UNL d   1     -43.284-122.819 -49.249  0.00  0.00    -0.047 Br
ATOM     16  C   UNL d   1     -41.878-123.070 -49.280  0.00  0.00     0.100 A 
ATOM     17  C   UNL d   1     -41.159-123.046 -49.684  0.00  0.00     0.025 A 
ATOM     18  C   UNL d   1     -41.128-122.749 -50.457  0.00  0.00     0.007 A 
BRANCH  16  19
ATOM     19  O   UNL d   1     -41.896-123.371 -48.503  0.00  0.00    -0.328 OA
ATOM     20  C   UNL d   1     -41.203-123.656 -48.147  0.00  0.00     0.181 C 
ENDBRANCH  16  19
ENDBRANCH   3  12
TORSDOF 2
ENDMDL
MODEL 2
REMARK VINA RESULT:      -4.4      1.759      4.196
REMARK  2 active torsions:
REMARK  status: ('A' for Active; 'I' for Inactive)
REMARK       I    between atoms: C_3  and  N_1 
REMARK    1  A    between atoms: C_6  and  C_3 
REMARK    2  A    between atoms: O_16  and  C_11 
ROOT
ATOM      1  N   UNL d   1     -42.149-122.844 -50.819  0.00  0.00    -0.175 N 
ATOM      2  N   UNL d   1     -42.650-122.234 -51.051  0.00  0.00    -0.057 NA
ATOM      3  C   UNL d   1     -41.583-123.213 -51.291  0.00  0.00     0.282 C 
ATOM      4  N   UNL d   1     -43.126-122.028 -50.415  0.00  0.00    -0.129 NA
ATOM      5  C   UNL d   1     -42.325-123.013 -50.022  0.00  0.00     0.107 A 
ATOM      6  C   UNL d   1     -42.919-122.518 -49.776  0.00  0.00     0.122 A 
ATOM      7  O   UNL d   1     -41.122-123.816 -50.981  0.00  0.00    -0.265 OA
ATOM      8  C   UNL d   1     -42.009-123.563 -49.497  0.00  0.00     0.021 A 
ATOM      9  C   UNL d   1     -43.211-122.562 -48.993  0.00  0.00     0.022 A 
ATOM     10  C   UNL d   1     -42.284-123.621 -48.724  0.00  0.00     0.002 A 
ATOM     11  C   UNL d   1     -42.895-123.114 -48.464  0.00  0.00     0.002 A 
ENDROOT
BRANCH   3  12
ATOM     12  C   UNL d   1     -41.484-122.973 -52.073  0.00  0.00     0.059 A 
ATOM     13  C   UNL d   1     -41.562-123.509 -52.688  0.00  0.00     0.013 A 
ATOM     14  C   UNL d   1     -41.463-123.274 -53.475  0.00  0.00     0.057 A 
ATOM     15 BR   UNL d   1     -41.544-123.817 -54.089  0.00  0.00    -0.047 Br
ATOM     16  C   UNL d   1     -41.282-122.485 -53.646  0.00  0.00     0.100 A 
ATOM     17  C   UNL d   1     -41.202-121.942 -53.031  0.00  0.00     0.025 A 
ATOM     18  C   UNL d   1     -41.303-122.187 -52.246  0.00  0.00     0.007 A 
BRANCH  16  19
ATOM     19  O   UNL d   1     -41.178-122.225 -54.432  0.00  0.00    -0.328 OA
ATOM     20  C   UNL d   1     -41.672-121.637 -54.748  0.00  0.00     0.181 C 
ENDBRANCH  16  19
ENDBRANCH   3  12
TORSDOF 2
ENDMDL
MODEL 3
REMARK VINA RESULT:      -4.2      0.974      1.269
REMARK  2 active torsions:
REMARK  status: ('A' for Active; 'I' for Inactive)
REMARK       I    between atoms: C_3  and  N_1 
REMARK    1  A    between atoms: C_6  and  C_3 
REMARK    2  A    between atoms: O_16  and  C_11 
ROOT
ATOM      1  N   UNL d   1     -41.828-122.598 -52.593  0.00  0.00    -0.175 N 
ATOM      2  N   UNL d   1     -42.245-121.924 -52.370  0.00  0.00    -0.057 NA
ATOM      3  C   UNL d   1     -41.528-123.172 -52.085  0.00  0.00     0.282 C 
ATOM      4  N   UNL d   1     -42.442-121.501 -53.045  0.00  0.00    -0.129 NA
ATOM      5  C   UNL d   1     -41.771-122.583 -53.424  0.00  0.00     0.107 A 
ATOM      6  C   UNL d   1     -42.144-121.918 -53.700  0.00  0.00     0.122 A 
ATOM      7  O   UNL d   1     -41.123-123.817 -52.390  0.00  0.00    -0.265 OA
ATOM      8  C   UNL d   1     -41.421-123.105 -53.957  0.00  0.00     0.021 A 
ATOM      9  C   UNL d   1     -42.174-121.757 -54.520  0.00  0.00     0.022 A 
ATOM     10  C   UNL d   1     -41.441-122.962 -54.767  0.00  0.00     0.002 A 
ATOM     11  C   UNL d   1     -41.823-122.279 -55.057  0.00  0.00     0.002 A 
ENDROOT
BRANCH   3  12
ATOM     12  C   UNL d   1     -41.637-123.097 -51.272  0.00  0.00     0.059 A 
ATOM     13  C   UNL d   1     -42.249-123.488 -50.893  0.00  0.00     0.013 A 
ATOM     14  C   UNL d   1     -42.364-123.416 -50.077  0.00  0.00     0.057 A 
ATOM     15 BR   UNL d   1     -42.982-123.813 -49.703  0.00  0.00    -0.047 Br
ATOM     16  C   UNL d   1     -41.852-122.940 -49.634  0.00  0.00     0.100 A 
ATOM     17  C   UNL d   1     -41.235-122.544 -50.010  0.00  0.00     0.025 A 
ATOM     18  C   UNL d   1     -41.128-122.623 -50.828  0.00  0.00     0.007 A 
BRANCH  16  19
ATOM     19  O   UNL d   1     -41.948-122.853 -48.810  0.00  0.00    -0.328 OA
ATOM     20  C   UNL d   1     -41.286-122.844 -48.309  0.00  0.00     0.181 C 
ENDBRANCH  16  19
ENDBRANCH   3  12
TORSDOF 2
ENDMDL
MODEL 4
REMARK VINA RESULT:      -2.8      1.880      4.408
REMARK  2 active torsions:
REMARK  status: ('A' for Active; 'I' for Inactive)
REMARK       I    between atoms: C_3  and  N_1 
REMARK    1  A    between atoms: C_6  and  C_3 
REMARK    2  A    between atoms: O_16  and  C_11 
ROOT
ATOM      1  N   UNL d   1     -42.181-123.273 -49.280  0.00  0.00    -0.175 N 
ATOM      2  N   UNL d   1     -41.359-123.274 -49.236  0.00  0.00    -0.057 NA
ATOM      3  C   UNL d   1     -42.630-123.126 -49.954  0.00  0.00     0.282 C 
ATOM      4  N   UNL d   1     -41.136-123.445 -48.466  0.00  0.00    -0.129 NA
ATOM      5  C   UNL d   1     -42.464-123.448 -48.516  0.00  0.00     0.107 A 
ATOM      6  C   UNL d   1     -41.830-123.553 -48.020  0.00  0.00     0.122 A 
ATOM      7  O   UNL d   1     -43.449-123.144 -49.911  0.00  0.00    -0.265 OA
ATOM      8  C   UNL d   1     -43.229-123.523 -48.221  0.00  0.00     0.021 A 
ATOM      9  C   UNL d   1     -41.948-123.736 -47.213  0.00  0.00     0.022 A 
ATOM     10  C   UNL d   1     -43.364-123.702 -47.429  0.00  0.00     0.002 A 
ATOM     11  C   UNL d   1     -42.715-123.812 -46.914  0.00  0.00     0.002 A 
ENDROOT
BRANCH   3  12
ATOM     12  C   UNL d   1     -42.255-122.961 -50.668  0.00  0.00     0.059 A 
ATOM     13  C   UNL d   1     -41.890-122.237 -50.792  0.00  0.00     0.013 A 
ATOM     14  C   UNL d   1     -41.511-122.066 -51.507  0.00  0.00     0.057 A 
ATOM     15 BR   UNL d   1     -41.148-121.336 -51.625  0.00  0.00    -0.047 Br
ATOM     16  C   UNL d   1     -41.498-122.634 -52.109  0.00  0.00     0.100 A 
ATOM     17  C   UNL d   1     -41.863-123.363 -51.989  0.00  0.00     0.025 A 
ATOM     18  C   UNL d   1     -42.240-123.525 -51.269  0.00  0.00     0.007 A 
BRANCH  16  19
ATOM     19  O   UNL d   1     -41.123-122.483 -52.838  0.00  0.00    -0.328 OA
ATOM     20  C   UNL d   1     -41.200-123.018 -53.468  0.00  0.00     0.181 C 
ENDBRANCH  16  19
ENDBRANCH   3  12
TORSDOF 2
ENDMDL
MODEL 5
REMARK VINA RESULT:      -2.2      1.022      1.321
REMARK  2 active torsions:
REMARK  status: ('A' for Active; 'I' for Inactive)
REMARK       I    between atoms: C_3  and  N_1 
REMARK    1  A    between atoms: C_6  and  C_3 
REMARK    2  A    between atoms: O_16  and  C_11 
ROOT
ATOM      1  N   UNL d   1     -41.877-122.622 -53.375  0.00  0.00    -0.175 N 
ATOM      2  N   UNL d   1     -42.184-123.385 -53.397  0.00  0.00    -0.057 NA
ATOM      3  C   UNL d   1     -41.582-122.238 -52.709  0.00  0.00     0.282 C 
ATOM      4  N   UNL d   1     -42.416-123.553 -54.166  0.00  0.00    -0.129 NA
ATOM      5  C   UNL d   1     -41.924-122.319 -54.150  0.00  0.00     0.107 A 
ATOM      6  C   UNL d   1     -42.252-122.884 -54.631  0.00  0.00     0.122 A 
ATOM      7  O   UNL d   1     -41.293-121.473 -52.773  0.00  0.00    -0.265 OA
ATOM      8  C   UNL d   1     -41.704-121.591 -54.466  0.00  0.00     0.021 A 
ATOM      9  C   UNL d   1     -42.367-122.733 -55.446  0.00  0.00     0.022 A 
ATOM     10  C   UNL d   1     -41.811-121.425 -55.265  0.00  0.00     0.002 A 
ATOM     11  C   UNL d   1     -42.147-122.003 -55.766  0.00  0.00     0.002 A 
ENDROOT
BRANCH   3  12
ATOM     12  C   UNL d   1     -41.578-122.624 -51.982  0.00  0.00     0.059 A 
ATOM     13  C   UNL d   1     -41.964-122.302 -51.334  0.00  0.00     0.013 A 
ATOM     14  C   UNL d   1     -41.964-122.685 -50.601  0.00  0.00     0.057 A 
ATOM     15 BR   UNL d   1     -42.353-122.356 -49.954  0.00  0.00    -0.047 Br
ATOM     16  C   UNL d   1     -41.568-123.408 -50.518  0.00  0.00     0.100 A 
ATOM     17  C   UNL d   1     -41.179-123.736 -51.166  0.00  0.00     0.025 A 
ATOM     18  C   UNL d   1     -41.185-123.344 -51.896  0.00  0.00     0.007 A 
BRANCH  16  19
ATOM     19  O   UNL d   1     -41.555-123.812 -49.789  0.00  0.00    -0.328 OA
ATOM     20  C   UNL d   1     -42.216-123.795 -49.288  0.00  0.00     0.181 C 
ENDBRANCH  16  19
ENDBRANCH   3  12
TORSDOF 2
ENDMDL
MODEL 6
REMARK VINA RESULT:      -2.1      1.952      4.413
REMARK  2 active torsions:
REMARK  status: ('A' for Active; 'I' for Inactive)
REMARK       I    between atoms: C_3  and  N_1 
REMARK    1  A    between atoms: C_6  and  C_3 
REMARK    2  A    between atoms: O_16  and  C_11 
ROOT
ATOM      1  N   UNL d   1     -41.628-122.670 -52.207  0.00  0.00    -0.175 N 
ATOM      2  N   UNL d   1     -41.956-121.919 -52.144  0.00  0.00    -0.057 NA
ATOM      3  C   UNL d   1     -41.454-123.066 -52.909  0.00  0.00     0.282 C 
ATOM      4  N   UNL d   1     -42.039-121.734 -51.349  0.00  0.00    -0.129 NA
ATOM      5  C   UNL d   1     -41.508-122.949 -51.431  0.00  0.00     0.107 A 
ATOM      6  C   UNL d   1     -41.757-122.380 -50.909  0.00  0.00     0.122 A 
ATOM      7  O   UNL d   1     -41.126-123.817 -52.884  0.00  0.00    -0.265 OA
ATOM      8  C   UNL d   1     -41.199-123.657 -51.147  0.00  0.00     0.021 A 
ATOM      9  C   UNL d   1     -41.703-122.508 -50.084  0.00  0.00     0.022 A 
ATOM     10  C   UNL d   1     -41.138-123.800 -50.338  0.00  0.00     0.002 A 
ATOM     11  C   UNL d   1     -41.393-123.219 -49.796  0.00  0.00     0.002 A 
ENDROOT
BRANCH   3  12
ATOM     12  C   UNL d   1     -41.611-122.704 -53.632  0.00  0.00     0.059 A 
ATOM     13  C   UNL d   1     -42.228-122.963 -54.105  0.00  0.00     0.013 A 
ATOM     14  C   UNL d   1     -42.390-122.604 -54.832  0.00  0.00     0.057 A 
ATOM     15 BR   UNL d   1     -43.012-122.870 -55.303  0.00  0.00    -0.047 Br
ATOM     16  C   UNL d   1     -41.923-121.971 -55.088  0.00  0.00     0.100 A 
ATOM     17  C   UNL d   1     -41.301-121.706 -54.616  0.00  0.00     0.025 A 
ATOM     18  C   UNL d   1     -41.146-122.073 -53.889  0.00  0.00     0.007 A 
BRANCH  16  19
ATOM     19  O   UNL d   1     -42.068-121.593 -55.817  0.00  0.00    -0.328 OA
ATOM     20  C   UNL d   1     -41.449-121.473 -56.358  0.00  0.00     0.181 C 
ENDBRANCH  16  19
ENDBRANCH   3  12
TORSDOF 2
ENDMDL
