MODEL 1
REMARK VINA RESULT:      -3.9      0.000      0.000
REMARK  3 active torsions:
REMARK  status: ('A' for Active; 'I' for Inactive)
REMARK    1  A    between atoms: N_5  and  C_1 
REMARK    2  A    between atoms: C_7  and  N_4 
REMARK    3  A    between atoms: C_12  and  C_7 
ROOT
ATOM      1  C   UNL d   1      59.925  -7.057  35.928  0.00  0.00     0.232 A 
ATOM      2  N   UNL d   1      59.325  -7.500  36.266  0.00  0.00    -0.204 NA
ATOM      3  C   UNL d   1      60.445  -7.550  35.537  0.00  0.00     0.141 A 
ATOM      4  N   UNL d   1      60.169  -8.332  35.629  0.00  0.00    -0.282 N 
ATOM      5  C   UNL d   1      59.471  -8.301  36.083  0.00  0.00     0.150 A 
ATOM      6 BR   UNL d   1      61.133  -7.333  35.117  0.00  0.00    -0.026 Br
ATOM      7  C   UNL d   1      58.978  -8.952  36.329  0.00  0.00     0.041 C 
ENDROOT
BRANCH   4   8
ATOM      8  C   UNL d   1      60.460  -9.067  35.359  0.00  0.00     0.082 C 
BRANCH   8   9
ATOM      9  C   UNL d   1      60.373  -9.301  34.570  0.00  0.00     0.018 A 
ATOM     10  C   UNL d   1      59.646  -9.565  34.298  0.00  0.00     0.002 A 
ATOM     11  C   UNL d   1      59.541  -9.802  33.516  0.00  0.00     0.000 A 
ATOM     12  C   UNL d   1      60.162  -9.781  32.986  0.00  0.00     0.000 A 
ATOM     13  C   UNL d   1      60.908  -9.514  33.246  0.00  0.00     0.000 A 
ATOM     14  C   UNL d   1      61.035  -9.273  34.024  0.00  0.00     0.002 A 
ENDBRANCH   8   9
ENDBRANCH   4   8
BRANCH   1  15
ATOM     15  N   UNL d   1      59.992  -6.244  35.975  0.00  0.00    -0.093 N 
ATOM     16  O   UNL d   1      60.656  -5.830  36.258  0.00  0.00    -0.530 OA
ATOM     17  O   UNL d   1      59.406  -5.717  35.747  0.00  0.00    -0.530 OA
ENDBRANCH   1  15
TORSDOF 3
ENDMDL
MODEL 2
REMARK VINA RESULT:      -3.2      9.020      9.819
REMARK  3 active torsions:
REMARK  status: ('A' for Active; 'I' for Inactive)
REMARK    1  A    between atoms: N_5  and  C_1 
REMARK    2  A    between atoms: C_7  and  N_4 
REMARK    3  A    between atoms: C_12  and  C_7 
ROOT
ATOM      1  C   UNL d   1      57.537   0.179  31.762  0.00  0.00     0.232 A 
ATOM      2  N   UNL d   1      57.928   0.587  32.355  0.00  0.00    -0.204 NA
ATOM      3  C   UNL d   1      56.948  -0.282  32.089  0.00  0.00     0.141 A 
ATOM      4  N   UNL d   1      56.964  -0.165  32.915  0.00  0.00    -0.282 N 
ATOM      5  C   UNL d   1      57.575   0.377  33.080  0.00  0.00     0.150 A 
ATOM      6 BR   UNL d   1      56.416  -0.787  31.689  0.00  0.00    -0.026 Br
ATOM      7  C   UNL d   1      57.816   0.677  33.841  0.00  0.00     0.041 C 
ENDROOT
BRANCH   4   8
ATOM      8  C   UNL d   1      56.505  -0.480  33.537  0.00  0.00     0.082 C 
BRANCH   8   9
ATOM      9  C   UNL d   1      55.814  -0.103  33.795  0.00  0.00     0.018 A 
ATOM     10  C   UNL d   1      55.135  -0.131  33.335  0.00  0.00     0.002 A 
ATOM     11  C   UNL d   1      54.439   0.238  33.576  0.00  0.00     0.000 A 
ATOM     12  C   UNL d   1      54.404   0.644  34.283  0.00  0.00     0.000 A 
ATOM     13  C   UNL d   1      55.086   0.682  34.764  0.00  0.00     0.000 A 
ATOM     14  C   UNL d   1      55.792   0.320  34.542  0.00  0.00     0.002 A 
ENDBRANCH   8   9
ENDBRANCH   4   8
BRANCH   1  15
ATOM     15  N   UNL d   1      57.710   0.227  30.965  0.00  0.00    -0.093 N 
ATOM     16  O   UNL d   1      58.349  -0.149  30.587  0.00  0.00    -0.530 OA
ATOM     17  O   UNL d   1      57.272   0.658  30.421  0.00  0.00    -0.530 OA
ENDBRANCH   1  15
TORSDOF 3
ENDMDL
MODEL 3
REMARK VINA RESULT:      -2.8      8.993      9.810
REMARK  3 active torsions:
REMARK  status: ('A' for Active; 'I' for Inactive)
REMARK    1  A    between atoms: N_5  and  C_1 
REMARK    2  A    between atoms: C_7  and  N_4 
REMARK    3  A    between atoms: C_12  and  C_7 
ROOT
ATOM      1  C   UNL d   1      58.833   0.202  30.326  0.00  0.00     0.232 A 
ATOM      2  N   UNL d   1      59.206   0.322  31.045  0.00  0.00    -0.204 NA
ATOM      3  C   UNL d   1      58.028   0.313  30.412  0.00  0.00     0.141 A 
ATOM      4  N   UNL d   1      57.884   0.508  31.210  0.00  0.00    -0.282 N 
ATOM      5  C   UNL d   1      58.618   0.514  31.605  0.00  0.00     0.150 A 
ATOM      6 BR   UNL d   1      57.440   0.247  29.823  0.00  0.00    -0.026 Br
ATOM      7  C   UNL d   1      58.768   0.682  32.427  0.00  0.00     0.041 C 
ENDROOT
BRANCH   4   8
ATOM      8  C   UNL d   1      57.183   0.682  31.629  0.00  0.00     0.082 C 
BRANCH   8   9
ATOM      9  C   UNL d   1      56.757   0.089  32.021  0.00  0.00     0.018 A 
ATOM     10  C   UNL d   1      56.242   0.288  32.628  0.00  0.00     0.002 A 
ATOM     11  C   UNL d   1      55.810  -0.288  33.028  0.00  0.00     0.000 A 
ATOM     12  C   UNL d   1      55.884  -1.077  32.832  0.00  0.00     0.000 A 
ATOM     13  C   UNL d   1      56.404  -1.296  32.218  0.00  0.00     0.000 A 
ATOM     14  C   UNL d   1      56.845  -0.736  31.804  0.00  0.00     0.002 A 
ENDBRANCH   8   9
ENDBRANCH   4   8
BRANCH   1  15
ATOM     15  N   UNL d   1      59.209   0.003  29.629  0.00  0.00    -0.093 N 
ATOM     16  O   UNL d   1      59.517  -0.748  29.445  0.00  0.00    -0.530 OA
ATOM     17  O   UNL d   1      59.336   0.521  29.007  0.00  0.00    -0.530 OA
ENDBRANCH   1  15
TORSDOF 3
ENDMDL
MODEL 4
REMARK VINA RESULT:      -2.7      8.775      9.629
REMARK  3 active torsions:
REMARK  status: ('A' for Active; 'I' for Inactive)
REMARK    1  A    between atoms: N_5  and  C_1 
REMARK    2  A    between atoms: C_7  and  N_4 
REMARK    3  A    between atoms: C_12  and  C_7 
ROOT
ATOM      1  C   UNL d   1      60.367  -2.392  28.953  0.00  0.00     0.232 A 
ATOM      2  N   UNL d   1      60.911  -1.803  28.784  0.00  0.00    -0.204 NA
ATOM      3  C   UNL d   1      59.618  -2.069  29.001  0.00  0.00     0.141 A 
ATOM      4  N   UNL d   1      59.687  -1.250  28.858  0.00  0.00    -0.282 N 
ATOM      5  C   UNL d   1      60.492  -1.085  28.724  0.00  0.00     0.150 A 
ATOM      6 BR   UNL d   1      58.902  -2.468  29.161  0.00  0.00    -0.026 Br
ATOM      7  C   UNL d   1      60.849  -0.329  28.553  0.00  0.00     0.041 C 
ENDROOT
BRANCH   4   8
ATOM      8  C   UNL d   1      59.124  -0.634  28.834  0.00  0.00     0.082 C 
BRANCH   8   9
ATOM      9  C   UNL d   1      58.845  -0.277  29.527  0.00  0.00     0.018 A 
ATOM     10  C   UNL d   1      58.132  -0.517  29.854  0.00  0.00     0.002 A 
ATOM     11  C   UNL d   1      57.840  -0.173  30.543  0.00  0.00     0.000 A 
ATOM     12  C   UNL d   1      58.254   0.420  30.922  0.00  0.00     0.000 A 
ATOM     13  C   UNL d   1      58.981   0.676  30.603  0.00  0.00     0.000 A 
ATOM     14  C   UNL d   1      59.292   0.345  29.915  0.00  0.00     0.002 A 
ENDBRANCH   8   9
ENDBRANCH   4   8
BRANCH   1  15
ATOM     15  N   UNL d   1      60.547  -3.182  29.057  0.00  0.00    -0.093 N 
ATOM     16  O   UNL d   1      60.753  -3.538  29.780  0.00  0.00    -0.530 OA
ATOM     17  O   UNL d   1      60.549  -3.740  28.455  0.00  0.00    -0.530 OA
ENDBRANCH   1  15
TORSDOF 3
ENDMDL
MODEL 5
REMARK VINA RESULT:      -2.6      8.728      9.515
REMARK  3 active torsions:
REMARK  status: ('A' for Active; 'I' for Inactive)
REMARK    1  A    between atoms: N_5  and  C_1 
REMARK    2  A    between atoms: C_7  and  N_4 
REMARK    3  A    between atoms: C_12  and  C_7 
ROOT
ATOM      1  C   UNL d   1      56.656  -0.781  32.000  0.00  0.00     0.232 A 
ATOM      2  N   UNL d   1      56.926  -1.338  31.465  0.00  0.00    -0.204 NA
ATOM      3  C   UNL d   1      56.942  -0.043  31.796  0.00  0.00     0.141 A 
ATOM      4  N   UNL d   1      57.406  -0.133  31.109  0.00  0.00    -0.282 N 
ATOM      5  C   UNL d   1      57.396  -0.940  30.903  0.00  0.00     0.150 A 
ATOM      6 BR   UNL d   1      56.805   0.682  32.188  0.00  0.00    -0.026 Br
ATOM      7  C   UNL d   1      57.787  -1.317  30.244  0.00  0.00     0.041 C 
ENDROOT
BRANCH   4   8
ATOM      8  C   UNL d   1      57.837   0.412  30.645  0.00  0.00     0.082 C 
BRANCH   8   9
ATOM      9  C   UNL d   1      58.655   0.502  30.735  0.00  0.00     0.018 A 
ATOM     10  C   UNL d   1      59.142   0.504  30.075  0.00  0.00     0.002 A 
ATOM     11  C   UNL d   1      59.958   0.593  30.145  0.00  0.00     0.000 A 
ATOM     12  C   UNL d   1      60.307   0.682  30.878  0.00  0.00     0.000 A 
ATOM     13  C   UNL d   1      59.826   0.682  31.559  0.00  0.00     0.000 A 
ATOM     14  C   UNL d   1      59.008   0.594  31.512  0.00  0.00     0.002 A 
ENDBRANCH   8   9
ENDBRANCH   4   8
BRANCH   1  15
ATOM     15  N   UNL d   1      56.176  -0.939  32.642  0.00  0.00    -0.093 N 
ATOM     16  O   UNL d   1      55.571  -0.442  32.925  0.00  0.00    -0.530 OA
ATOM     17  O   UNL d   1      56.224  -1.617  33.100  0.00  0.00    -0.530 OA
ENDBRANCH   1  15
TORSDOF 3
ENDMDL
MODEL 6
REMARK VINA RESULT:      -2.6      8.754      9.317
REMARK  3 active torsions:
REMARK  status: ('A' for Active; 'I' for Inactive)
REMARK    1  A    between atoms: N_5  and  C_1 
REMARK    2  A    between atoms: C_7  and  N_4 
REMARK    3  A    between atoms: C_12  and  C_7 
ROOT
ATOM      1  C   UNL d   1      58.606   0.045  29.903  0.00  0.00     0.232 A 
ATOM      2  N   UNL d   1      59.189   0.482  29.528  0.00  0.00    -0.204 NA
ATOM      3  C   UNL d   1      58.593  -0.713  29.599  0.00  0.00     0.141 A 
ATOM      4  N   UNL d   1      59.184  -0.761  29.013  0.00  0.00    -0.282 N 
ATOM      5  C   UNL d   1      59.555  -0.016  28.969  0.00  0.00     0.150 A 
ATOM      6 BR   UNL d   1      58.088  -1.341  29.820  0.00  0.00    -0.026 Br
ATOM      7  C   UNL d   1      60.195   0.220  28.456  0.00  0.00     0.041 C 
ENDROOT
BRANCH   4   8
ATOM      8  C   UNL d   1      59.434  -1.382  28.514  0.00  0.00     0.082 C 
BRANCH   8   9
ATOM      9  C   UNL d   1      59.890  -2.010  28.803  0.00  0.00     0.018 A 
ATOM     10  C   UNL d   1      59.561  -2.758  28.871  0.00  0.00     0.002 A 
ATOM     11  C   UNL d   1      60.000  -3.394  29.156  0.00  0.00     0.000 A 
ATOM     12  C   UNL d   1      60.779  -3.298  29.381  0.00  0.00     0.000 A 
ATOM     13  C   UNL d   1      61.129  -2.543  29.319  0.00  0.00     0.000 A 
ATOM     14  C   UNL d   1      60.708  -1.893  29.036  0.00  0.00     0.002 A 
ENDBRANCH   8   9
ENDBRANCH   4   8
BRANCH   1  15
ATOM     15  N   UNL d   1      58.114   0.325  30.492  0.00  0.00    -0.093 N 
ATOM     16  O   UNL d   1      57.322   0.558  30.387  0.00  0.00    -0.530 OA
ATOM     17  O   UNL d   1      58.335   0.416  31.276  0.00  0.00    -0.530 OA
ENDBRANCH   1  15
TORSDOF 3
ENDMDL
MODEL 7
REMARK VINA RESULT:      -2.5      2.086      3.337
REMARK  3 active torsions:
REMARK  status: ('A' for Active; 'I' for Inactive)
REMARK    1  A    between atoms: N_5  and  C_1 
REMARK    2  A    between atoms: C_7  and  N_4 
REMARK    3  A    between atoms: C_12  and  C_7 
ROOT
ATOM      1  C   UNL d   1      59.354  -9.283  34.390  0.00  0.00     0.232 A 
ATOM      2  N   UNL d   1      59.749  -9.817  34.869  0.00  0.00    -0.204 NA
ATOM      3  C   UNL d   1      59.211  -8.595  34.805  0.00  0.00     0.141 A 
ATOM      4  N   UNL d   1      59.524  -8.692  35.571  0.00  0.00    -0.282 N 
ATOM      5  C   UNL d   1      59.860  -9.453  35.612  0.00  0.00     0.150 A 
ATOM      6 BR   UNL d   1      58.823  -7.907  34.530  0.00  0.00    -0.026 Br
ATOM      7  C   UNL d   1      60.250  -9.818  36.277  0.00  0.00     0.041 C 
ENDROOT
BRANCH   4   8
ATOM      8  C   UNL d   1      59.549  -8.188  36.237  0.00  0.00     0.082 C 
BRANCH   8   9
ATOM      9  C   UNL d   1      59.923  -7.450  36.206  0.00  0.00     0.018 A 
ATOM     10  C   UNL d   1      60.732  -7.395  36.330  0.00  0.00     0.002 A 
ATOM     11  C   UNL d   1      61.121  -6.670  36.302  0.00  0.00     0.000 A 
ATOM     12  C   UNL d   1      60.711  -5.981  36.150  0.00  0.00     0.000 A 
ATOM     13  C   UNL d   1      59.888  -6.019  36.021  0.00  0.00     0.000 A 
ATOM     14  C   UNL d   1      59.479  -6.734  36.044  0.00  0.00     0.002 A 
ENDBRANCH   8   9
ENDBRANCH   4   8
BRANCH   1  15
ATOM     15  N   UNL d   1      59.136  -9.421  33.615  0.00  0.00    -0.093 N 
ATOM     16  O   UNL d   1      59.618  -9.292  32.949  0.00  0.00    -0.530 OA
ATOM     17  O   UNL d   1      58.403  -9.707  33.383  0.00  0.00    -0.530 OA
ENDBRANCH   1  15
TORSDOF 3
ENDMDL
MODEL 8
REMARK VINA RESULT:      -2.2      8.981      9.785
REMARK  3 active torsions:
REMARK  status: ('A' for Active; 'I' for Inactive)
REMARK    1  A    between atoms: N_5  and  C_1 
REMARK    2  A    between atoms: C_7  and  N_4 
REMARK    3  A    between atoms: C_12  and  C_7 
ROOT
ATOM      1  C   UNL d   1      59.533  -1.345  29.370  0.00  0.00     0.232 A 
ATOM      2  N   UNL d   1      60.055  -0.731  29.517  0.00  0.00    -0.204 NA
ATOM      3  C   UNL d   1      58.771  -1.104  29.538  0.00  0.00     0.141 A 
ATOM      4  N   UNL d   1      58.808  -0.313  29.799  0.00  0.00    -0.282 N 
ATOM      5  C   UNL d   1      59.608  -0.080  29.787  0.00  0.00     0.150 A 
ATOM      6 BR   UNL d   1      58.069  -1.551  29.467  0.00  0.00    -0.026 Br
ATOM      7  C   UNL d   1      59.936   0.676  30.004  0.00  0.00     0.041 C 
ENDROOT
BRANCH   4   8
ATOM      8  C   UNL d   1      58.220   0.226  30.047  0.00  0.00     0.082 C 
BRANCH   8   9
ATOM      9  C   UNL d   1      57.928   0.219  30.822  0.00  0.00     0.018 A 
ATOM     10  C   UNL d   1      58.287   0.677  31.400  0.00  0.00     0.002 A 
ATOM     11  C   UNL d   1      58.010   0.682  32.176  0.00  0.00     0.000 A 
ATOM     12  C   UNL d   1      57.367   0.229  32.393  0.00  0.00     0.000 A 
ATOM     13  C   UNL d   1      56.990  -0.243  31.818  0.00  0.00     0.000 A 
ATOM     14  C   UNL d   1      57.250  -0.263  31.036  0.00  0.00     0.002 A 
ENDBRANCH   8   9
ENDBRANCH   4   8
BRANCH   1  15
ATOM     15  N   UNL d   1      59.744  -2.085  29.097  0.00  0.00    -0.093 N 
ATOM     16  O   UNL d   1      59.435  -2.807  29.373  0.00  0.00    -0.530 OA
ATOM     17  O   UNL d   1      60.297  -2.221  28.507  0.00  0.00    -0.530 OA
ENDBRANCH   1  15
TORSDOF 3
ENDMDL
