MODEL 1
REMARK VINA RESULT:      72.4      0.000      0.000
REMARK  4 active torsions:
REMARK  status: ('A' for Active; 'I' for Inactive)
REMARK    1  A    between atoms: C_10  and  C_3 
REMARK       I    between atoms: N_11  and  C_10 
REMARK    2  A    between atoms: C_15  and  N_11 
REMARK    3  A    between atoms: C_17  and  C_15 
REMARK    4  A    between atoms: O_25  and  C_18 
ROOT
ATOM      1  C   UNL d   1      59.449  49.339  50.688  0.00  0.00     0.071 A 
ATOM      2  C   UNL d   1      59.068  49.466  51.434  0.00  0.00     0.142 A 
ATOM      3  C   UNL d   1      60.256  49.235  50.823  0.00  0.00     0.086 A 
ATOM      4  C   UNL d   1      59.007  49.337  50.000  0.00  0.00     0.198 A 
ATOM      5  O   UNL d   1      59.641  49.440  52.028  0.00  0.00    -0.304 OA
ATOM      6  C   UNL d   1      60.367  49.298  51.640  0.00  0.00     0.105 A 
ATOM      7  C   UNL d   1      58.264  49.584  51.457  0.00  0.00     0.218 A 
ATOM      8  C   UNL d   1      58.191  49.458  50.026  0.00  0.00     0.042 A 
ATOM      9  C   UNL d   1      57.810  49.584  50.772  0.00  0.00     0.044 A 
ATOM     10  O   UNL d   1      59.379  49.214  49.272  0.00  0.00    -0.286 OA
ATOM     11  O   UNL d   1      57.892  49.708  52.185  0.00  0.00    -0.284 OA
ATOM     12  C   UNL d   1      61.097  49.229  52.024  0.00  0.00     0.027 C 
ATOM     13  C   UNL d   1      57.757  49.455  49.342  0.00  0.00     0.003 A 
ATOM     14  C   UNL d   1      57.013  49.702  50.799  0.00  0.00     0.003 A 
ATOM     15  C   UNL d   1      56.927  49.577  49.361  0.00  0.00     0.000 A 
ATOM     16  C   UNL d   1      56.546  49.703  50.107  0.00  0.00     0.000 A 
ENDROOT
BRANCH   3  17
ATOM     17  C   UNL d   1      60.855  49.095  50.263  0.00  0.00     0.281 C 
ATOM     18  N   UNL d   1      61.191  48.355  50.214  0.00  0.00    -0.206 NA
ATOM     19  O   UNL d   1      61.090  49.707  49.777  0.00  0.00    -0.265 OA
BRANCH  18  20
ATOM     20  C   UNL d   1      60.950  47.767  50.698  0.00  0.00     0.102 C 
BRANCH  20  21
ATOM     21  C   UNL d   1      61.114  46.987  50.489  0.00  0.00     0.019 A 
ATOM     22  C   UNL d   1      61.529  46.821  49.799  0.00  0.00     0.004 A 
ATOM     23  C   UNL d   1      61.700  46.056  49.577  0.00  0.00     0.024 A 
ATOM     24  C   UNL d   1      61.461  45.434  50.037  0.00  0.00     0.094 A 
ATOM     25  C   UNL d   1      61.037  45.590  50.742  0.00  0.00     0.024 A 
ATOM     26  C   UNL d   1      60.876  46.362  50.946  0.00  0.00     0.004 A 
BRANCH  24  27
ATOM     27  O   UNL d   1      61.649  44.659  49.787  0.00  0.00    -0.328 OA
ATOM     28  C   UNL d   1      61.283  44.358  49.138  0.00  0.00     0.181 C 
ENDBRANCH  24  27
ENDBRANCH  20  21
ENDBRANCH  18  20
ENDBRANCH   3  17
TORSDOF 4
ENDMDL
