MODEL 1
REMARK VINA RESULT:       0.8      0.000      0.000
REMARK  1 active torsions:
REMARK  status: ('A' for Active; 'I' for Inactive)
REMARK    1  A    between atoms: C_2  and  S_1 
ROOT
ATOM      1  C   UNL d   1      23.784  12.570  -1.446  0.00  0.00     0.107 A 
ATOM      2  C   UNL d   1      23.438  12.801  -2.158  0.00  0.00     0.014 A 
ATOM      3  C   UNL d   1      24.442  12.088  -1.442  0.00  0.00     0.014 A 
ATOM      4  C   UNL d   1      24.429  12.050  -2.858  0.00  0.00     0.058 A 
ATOM      5  C   UNL d   1      24.768  11.824  -2.158  0.00  0.00     0.012 A 
ATOM      6  C   UNL d   1      23.756  12.543  -2.874  0.00  0.00     0.012 A 
ATOM      7 CL   UNL d   1      24.766  11.779  -3.561  0.00  0.00    -0.082 Cl
ENDROOT
BRANCH   1   8
ATOM      8  S   UNL d   1      23.459  12.833  -0.735  0.00  0.00     0.302 S 
ATOM      9  O   UNL d   1      23.920  13.515  -0.785  0.00  0.00    -0.197 OA
ATOM     10  O   UNL d   1      23.005  12.160  -0.684  0.00  0.00    -0.197 OA
ATOM     11  N   UNL d   1      23.140  13.100  -0.027  0.00  0.00    -0.043 N 
ENDBRANCH   1   8
TORSDOF 1
ENDMDL
