MODEL 1
REMARK VINA RESULT:      -5.9      0.000      0.000
REMARK  0 active torsions:
REMARK  status: ('A' for Active; 'I' for Inactive)
ROOT
ATOM      1  N   UNL d   1      57.259  -1.067  31.097  0.00  0.00    -0.202 NA
ATOM      2  N   UNL d   1      57.337   0.556  31.334  0.00  0.00    -0.202 NA
ATOM      3  C   UNL d   1      57.757   0.215  30.716  0.00  0.00     0.337 A 
ATOM      4  C   UNL d   1      57.720  -0.603  30.594  0.00  0.00     0.337 A 
ATOM      5  C   UNL d   1      56.882   0.090  31.829  0.00  0.00     0.102 A 
ATOM      6  C   UNL d   1      56.845  -0.715  31.710  0.00  0.00     0.102 A 
ATOM      7  C   UNL d   1      56.387  -1.192  32.206  0.00  0.00     0.021 A 
ATOM      8  C   UNL d   1      56.462   0.444  32.449  0.00  0.00     0.021 A 
ATOM      9  C   UNL d   1      56.002  -0.036  32.948  0.00  0.00     0.002 A 
ATOM     10  C   UNL d   1      55.965  -0.848  32.828  0.00  0.00     0.002 A 
ATOM     11  O   UNL d   1      58.215   0.682  30.217  0.00  0.00    -0.260 OA
ATOM     12  O   UNL d   1      58.140  -0.948  29.975  0.00  0.00    -0.260 OA
ATOM     13  C   UNL d   1      55.506  -1.318  33.326  0.00  0.00     0.000 C 
ATOM     14  C   UNL d   1      55.585   0.310  33.562  0.00  0.00     0.000 C 
ENDROOT
TORSDOF 0
ENDMDL
MODEL 2
REMARK VINA RESULT:      -5.9      0.035      1.358
REMARK  0 active torsions:
REMARK  status: ('A' for Active; 'I' for Inactive)
ROOT
ATOM      1  N   UNL d   1      57.349   0.569  31.320  0.00  0.00    -0.202 NA
ATOM      2  N   UNL d   1      57.256  -1.055  31.085  0.00  0.00    -0.202 NA
ATOM      3  C   UNL d   1      57.724  -0.598  30.588  0.00  0.00     0.337 A 
ATOM      4  C   UNL d   1      57.773   0.221  30.705  0.00  0.00     0.337 A 
ATOM      5  C   UNL d   1      56.837  -0.703  31.694  0.00  0.00     0.102 A 
ATOM      6  C   UNL d   1      56.885   0.102  31.809  0.00  0.00     0.102 A 
ATOM      7  C   UNL d   1      56.465   0.464  32.423  0.00  0.00     0.021 A 
ATOM      8  C   UNL d   1      56.368  -1.173  32.189  0.00  0.00     0.021 A 
ATOM      9  C   UNL d   1      55.946  -0.809  32.806  0.00  0.00     0.002 A 
ATOM     10  C   UNL d   1      55.994   0.003  32.922  0.00  0.00     0.002 A 
ATOM     11  O   UNL d   1      58.145  -0.949  29.975  0.00  0.00    -0.260 OA
ATOM     12  O   UNL d   1      58.242   0.682  30.208  0.00  0.00    -0.260 OA
ATOM     13  C   UNL d   1      55.572   0.358  33.535  0.00  0.00     0.000 C 
ATOM     14  C   UNL d   1      55.481  -1.270  33.298  0.00  0.00     0.000 C 
ENDROOT
TORSDOF 0
ENDMDL
MODEL 3
REMARK VINA RESULT:      -4.8      1.743      3.157
REMARK  0 active torsions:
REMARK  status: ('A' for Active; 'I' for Inactive)
ROOT
ATOM      1  N   UNL d   1      56.442   0.321  32.396  0.00  0.00    -0.202 NA
ATOM      2  N   UNL d   1      56.504  -1.307  32.187  0.00  0.00    -0.202 NA
ATOM      3  C   UNL d   1      56.052  -0.992  32.797  0.00  0.00     0.337 A 
ATOM      4  C   UNL d   1      56.020  -0.172  32.905  0.00  0.00     0.337 A 
ATOM      5  C   UNL d   1      56.921  -0.812  31.686  0.00  0.00     0.102 A 
ATOM      6  C   UNL d   1      56.889  -0.005  31.792  0.00  0.00     0.102 A 
ATOM      7  C   UNL d   1      57.308   0.501  31.289  0.00  0.00     0.021 A 
ATOM      8  C   UNL d   1      57.373  -1.140  31.074  0.00  0.00     0.021 A 
ATOM      9  C   UNL d   1      57.794  -0.631  30.569  0.00  0.00     0.002 A 
ATOM     10  C   UNL d   1      57.762   0.183  30.676  0.00  0.00     0.002 A 
ATOM     11  O   UNL d   1      55.633  -1.488  33.301  0.00  0.00    -0.260 OA
ATOM     12  O   UNL d   1      55.568   0.147  33.516  0.00  0.00    -0.260 OA
ATOM     13  C   UNL d   1      58.182   0.682  30.171  0.00  0.00     0.000 C 
ATOM     14  C   UNL d   1      58.242  -0.951  29.963  0.00  0.00     0.000 C 
ENDROOT
TORSDOF 0
ENDMDL
MODEL 4
REMARK VINA RESULT:      -4.4      8.670      9.385
REMARK  0 active torsions:
REMARK  status: ('A' for Active; 'I' for Inactive)
ROOT
ATOM      1  N   UNL d   1      60.981  -6.972  36.139  0.00  0.00    -0.202 NA
ATOM      2  N   UNL d   1      59.357  -6.979  35.891  0.00  0.00    -0.202 NA
ATOM      3  C   UNL d   1      59.763  -6.264  35.905  0.00  0.00     0.337 A 
ATOM      4  C   UNL d   1      60.582  -6.259  36.029  0.00  0.00     0.337 A 
ATOM      5  C   UNL d   1      59.759  -7.683  36.000  0.00  0.00     0.102 A 
ATOM      6  C   UNL d   1      60.565  -7.677  36.123  0.00  0.00     0.102 A 
ATOM      7  C   UNL d   1      60.977  -8.386  36.234  0.00  0.00     0.021 A 
ATOM      8  C   UNL d   1      59.340  -8.398  35.984  0.00  0.00     0.021 A 
ATOM      9  C   UNL d   1      59.755  -9.109  36.096  0.00  0.00     0.002 A 
ATOM     10  C   UNL d   1      60.567  -9.103  36.220  0.00  0.00     0.002 A 
ATOM     11  O   UNL d   1      59.361  -5.556  35.795  0.00  0.00    -0.260 OA
ATOM     12  O   UNL d   1      60.992  -5.544  36.044  0.00  0.00    -0.260 OA
ATOM     13  C   UNL d   1      60.972  -9.813  36.330  0.00  0.00     0.000 C 
ATOM     14  C   UNL d   1      59.344  -9.817  36.081  0.00  0.00     0.000 C 
ENDROOT
TORSDOF 0
ENDMDL
MODEL 5
REMARK VINA RESULT:      -4.4      2.479      3.444
REMARK  0 active torsions:
REMARK  status: ('A' for Active; 'I' for Inactive)
ROOT
ATOM      1  N   UNL d   1      56.421   0.676  34.139  0.00  0.00    -0.202 NA
ATOM      2  N   UNL d   1      55.357   0.151  33.003  0.00  0.00    -0.202 NA
ATOM      3  C   UNL d   1      55.099   0.281  33.772  0.00  0.00     0.337 A 
ATOM      4  C   UNL d   1      55.634   0.546  34.346  0.00  0.00     0.337 A 
ATOM      5  C   UNL d   1      56.140   0.282  32.803  0.00  0.00     0.102 A 
ATOM      6  C   UNL d   1      56.666   0.543  33.369  0.00  0.00     0.102 A 
ATOM      7  C   UNL d   1      57.458   0.678  33.173  0.00  0.00     0.021 A 
ATOM      8  C   UNL d   1      56.390   0.148  32.025  0.00  0.00     0.021 A 
ATOM      9  C   UNL d   1      57.186   0.284  31.829  0.00  0.00     0.002 A 
ATOM     10  C   UNL d   1      57.717   0.547  32.400  0.00  0.00     0.002 A 
ATOM     11  O   UNL d   1      54.314   0.149  33.974  0.00  0.00    -0.260 OA
ATOM     12  O   UNL d   1      55.378   0.677  35.119  0.00  0.00    -0.260 OA
ATOM     13  C   UNL d   1      58.505   0.679  32.199  0.00  0.00     0.000 C 
ATOM     14  C   UNL d   1      57.437   0.153  31.061  0.00  0.00     0.000 C 
ENDROOT
TORSDOF 0
ENDMDL
MODEL 6
REMARK VINA RESULT:      -4.1      1.460      1.874
REMARK  0 active torsions:
REMARK  status: ('A' for Active; 'I' for Inactive)
ROOT
ATOM      1  N   UNL d   1      57.557   0.673  32.866  0.00  0.00    -0.202 NA
ATOM      2  N   UNL d   1      56.258   0.669  31.859  0.00  0.00    -0.202 NA
ATOM      3  C   UNL d   1      57.018   0.667  31.544  0.00  0.00     0.337 A 
ATOM      4  C   UNL d   1      57.673   0.669  32.049  0.00  0.00     0.337 A 
ATOM      5  C   UNL d   1      56.149   0.672  32.670  0.00  0.00     0.102 A 
ATOM      6  C   UNL d   1      56.795   0.674  33.167  0.00  0.00     0.102 A 
ATOM      7  C   UNL d   1      56.691   0.677  33.988  0.00  0.00     0.021 A 
ATOM      8  C   UNL d   1      55.380   0.673  32.977  0.00  0.00     0.021 A 
ATOM      9  C   UNL d   1      55.277   0.677  33.802  0.00  0.00     0.002 A 
ATOM     10  C   UNL d   1      55.928   0.679  34.303  0.00  0.00     0.002 A 
ATOM     11  O   UNL d   1      57.129   0.664  30.729  0.00  0.00    -0.260 OA
ATOM     12  O   UNL d   1      58.436   0.668  31.737  0.00  0.00    -0.260 OA
ATOM     13  C   UNL d   1      55.818   0.682  35.120  0.00  0.00     0.000 C 
ATOM     14  C   UNL d   1      54.518   0.678  34.109  0.00  0.00     0.000 C 
ENDROOT
TORSDOF 0
ENDMDL
MODEL 7
REMARK VINA RESULT:      -3.6      9.221      9.783
REMARK  0 active torsions:
REMARK  status: ('A' for Active; 'I' for Inactive)
ROOT
ATOM      1  N   UNL d   1      60.955  -8.349  35.007  0.00  0.00    -0.202 NA
ATOM      2  N   UNL d   1      59.315  -8.358  35.097  0.00  0.00    -0.202 NA
ATOM      3  C   UNL d   1      59.752  -7.990  35.687  0.00  0.00     0.337 A 
ATOM      4  C   UNL d   1      60.579  -7.984  35.644  0.00  0.00     0.337 A 
ATOM      5  C   UNL d   1      59.694  -8.719  34.468  0.00  0.00     0.102 A 
ATOM      6  C   UNL d   1      60.508  -8.713  34.425  0.00  0.00     0.102 A 
ATOM      7  C   UNL d   1      60.897  -9.076  33.792  0.00  0.00     0.021 A 
ATOM      8  C   UNL d   1      59.243  -9.088  33.878  0.00  0.00     0.021 A 
ATOM      9  C   UNL d   1      59.635  -9.452  33.242  0.00  0.00     0.002 A 
ATOM     10  C   UNL d   1      60.456  -9.446  33.200  0.00  0.00     0.002 A 
ATOM     11  O   UNL d   1      59.373  -7.627  36.319  0.00  0.00    -0.260 OA
ATOM     12  O   UNL d   1      61.021  -7.615  36.233  0.00  0.00    -0.260 OA
ATOM     13  C   UNL d   1      60.838  -9.810  32.566  0.00  0.00     0.000 C 
ATOM     14  C   UNL d   1      59.194  -9.818  32.658  0.00  0.00     0.000 C 
ENDROOT
TORSDOF 0
ENDMDL
MODEL 8
REMARK VINA RESULT:      -3.0      3.117      4.450
REMARK  0 active torsions:
REMARK  status: ('A' for Active; 'I' for Inactive)
ROOT
ATOM      1  N   UNL d   1      58.275  -1.175  29.464  0.00  0.00    -0.202 NA
ATOM      2  N   UNL d   1      59.818  -0.623  29.334  0.00  0.00    -0.202 NA
ATOM      3  C   UNL d   1      59.219  -0.108  29.561  0.00  0.00     0.337 A 
ATOM      4  C   UNL d   1      58.441  -0.383  29.628  0.00  0.00     0.337 A 
ATOM      5  C   UNL d   1      59.646  -1.407  29.173  0.00  0.00     0.102 A 
ATOM      6  C   UNL d   1      58.881  -1.678  29.238  0.00  0.00     0.102 A 
ATOM      7  C   UNL d   1      58.701  -2.470  29.077  0.00  0.00     0.021 A 
ATOM      8  C   UNL d   1      60.257  -1.918  28.944  0.00  0.00     0.021 A 
ATOM      9  C   UNL d   1      60.076  -2.713  28.783  0.00  0.00     0.002 A 
ATOM     10  C   UNL d   1      59.303  -2.987  28.849  0.00  0.00     0.002 A 
ATOM     11  O   UNL d   1      59.389   0.680  29.723  0.00  0.00    -0.260 OA
ATOM     12  O   UNL d   1      57.839   0.131  29.856  0.00  0.00    -0.260 OA
ATOM     13  C   UNL d   1      59.131  -3.776  28.687  0.00  0.00     0.000 C 
ATOM     14  C   UNL d   1      60.676  -3.222  28.556  0.00  0.00     0.000 C 
ENDROOT
TORSDOF 0
ENDMDL
