MODEL 1
REMARK VINA RESULT:      17.4      0.000      0.000
REMARK  0 active torsions:
REMARK  status: ('A' for Active; 'I' for Inactive)
ROOT
ATOM      1  N   UNL d   1      56.831  49.707  50.115  0.00  0.00    -0.248 N 
ATOM      2  C   UNL d   1      56.781  49.707  50.928  0.00  0.00     0.208 A 
ATOM      3  C   UNL d   1      57.591  49.708  49.731  0.00  0.00     0.268 A 
ATOM      4  C   UNL d   1      58.253  49.708  50.174  0.00  0.00     0.074 A 
ATOM      5  N   UNL d   1      57.490  49.707  51.373  0.00  0.00    -0.218 NA
ATOM      6  C   UNL d   1      58.203  49.707  50.992  0.00  0.00     0.088 A 
ATOM      7  S   UNL d   1      56.044  49.706  51.323  0.00  0.00    -0.038 SA
ATOM      8  O   UNL d   1      57.642  49.708  48.903  0.00  0.00    -0.267 OA
ATOM      9  C   UNL d   1      56.134  49.707  49.628  0.00  0.00     0.104 C 
ATOM     10  C   UNL d   1      59.003  49.708  49.804  0.00  0.00     0.006 A 
ATOM     11  C   UNL d   1      58.912  49.707  51.460  0.00  0.00     0.019 A 
ATOM     12  C   UNL d   1      59.694  49.708  50.257  0.00  0.00     0.000 A 
ATOM     13  C   UNL d   1      59.643  49.708  51.080  0.00  0.00     0.002 A 
ENDROOT
TORSDOF 0
ENDMDL
MODEL 2
REMARK VINA RESULT:      19.1      0.944      1.290
REMARK  0 active torsions:
REMARK  status: ('A' for Active; 'I' for Inactive)
ROOT
ATOM      1  N   UNL d   1      58.180  49.703  49.990  0.00  0.00    -0.248 N 
ATOM      2  C   UNL d   1      57.931  49.704  50.767  0.00  0.00     0.208 A 
ATOM      3  C   UNL d   1      59.011  49.703  49.806  0.00  0.00     0.268 A 
ATOM      4  C   UNL d   1      59.544  49.704  50.398  0.00  0.00     0.074 A 
ATOM      5  N   UNL d   1      58.509  49.705  51.373  0.00  0.00    -0.218 NA
ATOM      6  C   UNL d   1      59.294  49.706  51.179  0.00  0.00     0.088 A 
ATOM      7  S   UNL d   1      57.119  49.703  50.967  0.00  0.00    -0.038 SA
ATOM      8  O   UNL d   1      59.264  49.702  49.016  0.00  0.00    -0.267 OA
ATOM      9  C   UNL d   1      57.624  49.701  49.347  0.00  0.00     0.104 C 
ATOM     10  C   UNL d   1      60.362  49.705  50.224  0.00  0.00     0.006 A 
ATOM     11  C   UNL d   1      59.865  49.707  51.807  0.00  0.00     0.019 A 
ATOM     12  C   UNL d   1      60.919  49.706  50.834  0.00  0.00     0.000 A 
ATOM     13  C   UNL d   1      60.668  49.707  51.619  0.00  0.00     0.002 A 
ENDROOT
TORSDOF 0
ENDMDL
MODEL 3
REMARK VINA RESULT:      19.2      1.917      2.823
REMARK  0 active torsions:
REMARK  status: ('A' for Active; 'I' for Inactive)
ROOT
ATOM      1  N   UNL d   1      60.479  49.706  50.722  0.00  0.00    -0.248 N 
ATOM      2  C   UNL d   1      60.266  49.707  51.508  0.00  0.00     0.208 A 
ATOM      3  C   UNL d   1      59.881  49.706  50.116  0.00  0.00     0.268 A 
ATOM      4  C   UNL d   1      59.112  49.707  50.323  0.00  0.00     0.074 A 
ATOM      5  N   UNL d   1      59.452  49.708  51.704  0.00  0.00    -0.218 NA
ATOM      6  C   UNL d   1      58.898  49.707  51.115  0.00  0.00     0.088 A 
ATOM      7  S   UNL d   1      60.839  49.708  52.118  0.00  0.00    -0.038 SA
ATOM      8  O   UNL d   1      60.098  49.705  49.314  0.00  0.00    -0.267 OA
ATOM      9  C   UNL d   1      61.295  49.706  50.484  0.00  0.00     0.104 C 
ATOM     10  C   UNL d   1      58.520  49.706  49.733  0.00  0.00     0.006 A 
ATOM     11  C   UNL d   1      58.077  49.708  51.332  0.00  0.00     0.019 A 
ATOM     12  C   UNL d   1      57.721  49.707  49.942  0.00  0.00     0.000 A 
ATOM     13  C   UNL d   1      57.505  49.708  50.738  0.00  0.00     0.002 A 
ENDROOT
TORSDOF 0
ENDMDL
MODEL 4
REMARK VINA RESULT:      20.0      1.696      2.285
REMARK  0 active torsions:
REMARK  status: ('A' for Active; 'I' for Inactive)
ROOT
ATOM      1  N   UNL d   1      59.243  49.705  50.171  0.00  0.00    -0.248 N 
ATOM      2  C   UNL d   1      58.750  49.707  50.820  0.00  0.00     0.208 A 
ATOM      3  C   UNL d   1      60.088  49.704  50.274  0.00  0.00     0.268 A 
ATOM      4  C   UNL d   1      60.393  49.705  51.010  0.00  0.00     0.074 A 
ATOM      5  N   UNL d   1      59.092  49.707  51.584  0.00  0.00    -0.218 NA
ATOM      6  C   UNL d   1      59.897  49.706  51.663  0.00  0.00     0.088 A 
ATOM      7  S   UNL d   1      57.918  49.708  50.738  0.00  0.00    -0.038 SA
ATOM      8  O   UNL d   1      60.591  49.702  49.614  0.00  0.00    -0.267 OA
ATOM      9  C   UNL d   1      58.934  49.704  49.379  0.00  0.00     0.104 C 
ATOM     10  C   UNL d   1      61.222  49.703  51.119  0.00  0.00     0.006 A 
ATOM     11  C   UNL d   1      60.226  49.707  52.446  0.00  0.00     0.019 A 
ATOM     12  C   UNL d   1      61.544  49.704  51.880  0.00  0.00     0.000 A 
ATOM     13  C   UNL d   1      61.045  49.706  52.536  0.00  0.00     0.002 A 
ENDROOT
TORSDOF 0
ENDMDL
