MODEL 1
REMARK VINA RESULT:      -4.7      0.000      0.000
REMARK  6 active torsions:
REMARK  status: ('A' for Active; 'I' for Inactive)
REMARK    1  A    between atoms: C_2  and  C_1 
REMARK       I    between atoms: N_5  and  C_1 
REMARK    2  A    between atoms: C_4  and  C_2 
REMARK    3  A    between atoms: O_13  and  C_3 
REMARK    4  A    between atoms: C_9  and  C_4 
REMARK    5  A    between atoms: C_11  and  N_5 
REMARK    6  A    between atoms: O_14  and  C_6 
ROOT
ATOM      1  C   UNL d   1      57.826   0.049  30.281  0.00  0.00     0.005 C 
ENDROOT
BRANCH   1   2
ATOM      2  C   UNL d   1      57.860   0.158  31.100  0.00  0.00     0.062 C 
BRANCH   2   3
ATOM      3  C   UNL d   1      57.167   0.146  31.549  0.00  0.00     0.279 C 
ATOM      4  N   UNL d   1      57.182  -0.090  32.283  0.00  0.00    -0.208 NA
ATOM      5  O   UNL d   1      56.497   0.375  31.230  0.00  0.00    -0.265 OA
BRANCH   4   6
ATOM      6  C   UNL d   1      56.533  -0.101  32.704  0.00  0.00     0.085 A 
ATOM      7  C   UNL d   1      56.320   0.555  33.072  0.00  0.00     0.019 A 
ATOM      8  C   UNL d   1      55.673   0.553  33.495  0.00  0.00     0.002 A 
ATOM      9  C   UNL d   1      55.233  -0.111  33.550  0.00  0.00     0.000 A 
ATOM     10  C   UNL d   1      55.454  -0.765  33.177  0.00  0.00     0.002 A 
ATOM     11  C   UNL d   1      56.106  -0.765  32.750  0.00  0.00     0.019 A 
ENDBRANCH   4   6
ENDBRANCH   2   3
ENDBRANCH   1   2
BRANCH   1  12
ATOM     12  C   UNL d   1      58.521  -0.046  29.846  0.00  0.00     0.002 A 
ATOM     13  C   UNL d   1      58.673  -0.763  29.453  0.00  0.00     0.026 A 
ATOM     14  C   UNL d   1      59.368  -0.858  29.018  0.00  0.00     0.116 A 
ATOM     15  C   UNL d   1      59.910  -0.236  28.977  0.00  0.00     0.116 A 
ATOM     16  C   UNL d   1      59.761   0.479  29.368  0.00  0.00     0.026 A 
ATOM     17  C   UNL d   1      59.063   0.571  29.803  0.00  0.00     0.002 A 
BRANCH  14  18
ATOM     18  O   UNL d   1      59.516  -1.559  28.633  0.00  0.00    -0.326 OA
ATOM     19  C   UNL d   1      59.005  -2.201  28.736  0.00  0.00     0.181 C 
ENDBRANCH  14  18
BRANCH  15  20
ATOM     20  O   UNL d   1      60.611  -0.324  28.542  0.00  0.00    -0.326 OA
ATOM     21  C   UNL d   1      61.132   0.312  28.455  0.00  0.00     0.181 C 
ENDBRANCH  15  20
ENDBRANCH   1  12
TORSDOF 6
ENDMDL
MODEL 2
REMARK VINA RESULT:      -3.6      1.475      5.264
REMARK  6 active torsions:
REMARK  status: ('A' for Active; 'I' for Inactive)
REMARK    1  A    between atoms: C_2  and  C_1 
REMARK       I    between atoms: N_5  and  C_1 
REMARK    2  A    between atoms: C_4  and  C_2 
REMARK    3  A    between atoms: O_13  and  C_3 
REMARK    4  A    between atoms: C_9  and  C_4 
REMARK    5  A    between atoms: C_11  and  N_5 
REMARK    6  A    between atoms: O_14  and  C_6 
ROOT
ATOM      1  C   UNL d   1      56.827  -0.482  32.081  0.00  0.00     0.005 C 
ENDROOT
BRANCH   1   2
ATOM      2  C   UNL d   1      56.871  -0.035  31.387  0.00  0.00     0.062 C 
BRANCH   2   3
ATOM      3  C   UNL d   1      57.478  -0.171  30.844  0.00  0.00     0.279 C 
ATOM      4  N   UNL d   1      57.901   0.416  30.577  0.00  0.00    -0.208 NA
ATOM      5  O   UNL d   1      57.624  -0.894  30.601  0.00  0.00    -0.265 OA
BRANCH   4   6
ATOM      6  C   UNL d   1      58.470   0.289  30.068  0.00  0.00     0.085 A 
ATOM      7  C   UNL d   1      58.276   0.051  29.349  0.00  0.00     0.019 A 
ATOM      8  C   UNL d   1      58.838  -0.079  28.834  0.00  0.00     0.002 A 
ATOM      9  C   UNL d   1      59.601   0.030  29.039  0.00  0.00     0.000 A 
ATOM     10  C   UNL d   1      59.787   0.269  29.764  0.00  0.00     0.002 A 
ATOM     11  C   UNL d   1      59.222   0.400  30.284  0.00  0.00     0.019 A 
ENDBRANCH   4   6
ENDBRANCH   2   3
ENDBRANCH   1   2
BRANCH   1  12
ATOM     12  C   UNL d   1      56.418  -0.191  32.736  0.00  0.00     0.002 A 
ATOM     13  C   UNL d   1      56.836   0.099  33.395  0.00  0.00     0.026 A 
ATOM     14  C   UNL d   1      56.427   0.390  34.050  0.00  0.00     0.116 A 
ATOM     15  C   UNL d   1      55.601   0.391  34.046  0.00  0.00     0.116 A 
ATOM     16  C   UNL d   1      55.182   0.103  33.391  0.00  0.00     0.026 A 
ATOM     17  C   UNL d   1      55.596  -0.188  32.736  0.00  0.00     0.002 A 
BRANCH  14  18
ATOM     18  O   UNL d   1      56.836   0.673  34.694  0.00  0.00    -0.326 OA
ATOM     19  C   UNL d   1      57.663   0.682  34.685  0.00  0.00     0.181 C 
ENDBRANCH  14  18
BRANCH  15  20
ATOM     20  O   UNL d   1      55.183   0.682  34.701  0.00  0.00    -0.326 OA
ATOM     21  C   UNL d   1      54.366   0.569  34.758  0.00  0.00     0.181 C 
ENDBRANCH  15  20
ENDBRANCH   1  12
TORSDOF 6
ENDMDL
