MODEL 1
REMARK VINA RESULT:      68.8      0.000      0.000
REMARK  4 active torsions:
REMARK  status: ('A' for Active; 'I' for Inactive)
REMARK    1  A    between atoms: C_2  and  S_1 
REMARK    2  A    between atoms: N_3  and  S_1 
REMARK    3  A    between atoms: C_4  and  C_6 
REMARK       I    between atoms: N_5  and  C_4 
REMARK    4  A    between atoms: C_11  and  N_8 
ROOT
ATOM      1  C   UNL d   1     -56.282 -99.995 -44.339  0.00  0.00     0.104 A 
ATOM      2  C   UNL d   1     -55.261-100.969 -44.151  0.00  0.00     0.057 A 
ATOM      3  C   UNL d   1     -56.032-100.703 -44.010  0.00  0.00     0.018 A 
ATOM      4  C   UNL d   1     -55.777 -99.547 -44.807  0.00  0.00     0.012 A 
ATOM      5  C   UNL d   1     -54.750-100.524 -44.619  0.00  0.00     0.005 A 
ATOM      6  C   UNL d   1     -55.007 -99.813 -44.947  0.00  0.00     0.001 A 
ATOM      7  C   UNL d   1     -56.028 -98.838 -45.136  0.00  0.00     0.001 C 
ENDROOT
BRANCH   2   8
ATOM      8  C   UNL d   1     -54.995-101.680 -43.826  0.00  0.00     0.265 C 
ATOM      9  N   UNL d   1     -55.003-101.777 -43.007  0.00  0.00    -0.269 N 
ATOM     10  C   UNL d   1     -54.740-102.480 -42.681  0.00  0.00     0.102 A 
ATOM     11  C   UNL d   1     -55.277-101.162 -42.527  0.00  0.00     0.102 A 
ATOM     12  C   UNL d   1     -54.748-102.576 -41.861  0.00  0.00     0.100 A 
ATOM     13  N   UNL d   1     -55.021-101.966 -41.375  0.00  0.00    -0.301 N 
ATOM     14  C   UNL d   1     -55.284-101.261 -41.710  0.00  0.00     0.100 A 
ATOM     15  O   UNL d   1     -54.727-102.280 -44.314  0.00  0.00    -0.267 OA
BRANCH  13  16
ATOM     16  C   UNL d   1     -55.029-102.062 -40.555  0.00  0.00     0.064 A 
ATOM     17  C   UNL d   1     -55.346-102.751 -40.225  0.00  0.00     0.020 A 
ATOM     18  C   UNL d   1     -55.354-102.846 -39.406  0.00  0.00     0.031 A 
ATOM     19  C   UNL d   1     -55.048-102.261 -38.913  0.00  0.00     0.140 A 
ATOM     20  C   UNL d   1     -54.728-101.567 -39.250  0.00  0.00     0.031 A 
ATOM     21  F   UNL d   1     -55.056-102.356 -38.094  0.00  0.00    -0.204 F 
ATOM     22  C   UNL d   1     -54.720-101.471 -40.070  0.00  0.00     0.020 A 
ENDBRANCH  13  16
ENDBRANCH   2   8
BRANCH   1  23
ATOM     23  S   UNL d   1     -57.052 -99.729 -44.199  0.00  0.00     0.271 S 
ATOM     24  O   UNL d   1     -57.353-100.394 -44.587  0.00  0.00    -0.200 OA
ATOM     25  O   UNL d   1     -56.706 -98.963 -43.752  0.00  0.00    -0.200 OA
BRANCH  23  26
ATOM     26  N   UNL d   1     -57.795 -99.414 -44.030  0.00  0.00    -0.229 N 
ATOM     27  C   UNL d   1     -58.259 -99.128 -44.646  0.00  0.00     0.092 A 
ATOM     28  C   UNL d   1     -59.007 -98.810 -44.480  0.00  0.00     0.020 A 
ATOM     29  C   UNL d   1     -59.271 -98.787 -43.702  0.00  0.00     0.003 A 
ATOM     30  C   UNL d   1     -58.807 -99.072 -43.096  0.00  0.00     0.020 A 
ATOM     31  C   UNL d   1     -58.071 -99.385 -43.255  0.00  0.00     0.092 A 
ENDBRANCH  23  26
ENDBRANCH   1  23
TORSDOF 4
ENDMDL
