MODEL 1
REMARK VINA RESULT:      89.9      0.000      0.000
REMARK  3 active torsions:
REMARK  status: ('A' for Active; 'I' for Inactive)
REMARK    1  A    between atoms: N_11  and  C_4 
REMARK    2  A    between atoms: C_18  and  N_15 
REMARK    3  A    between atoms: C_22  and  C_18 
ROOT
ATOM      1  N   UNL d   1     -55.149-101.643 -42.293  0.00  0.00    -0.195 N 
ATOM      2  C   UNL d   1     -55.174-101.175 -42.952  0.00  0.00     0.168 A 
ATOM      3  C   UNL d   1     -55.340-101.488 -43.668  0.00  0.00     0.073 A 
ATOM      4  C   UNL d   1     -54.981-101.313 -41.587  0.00  0.00     0.153 A 
ATOM      5  N   UNL d   1     -55.458-102.740 -43.060  0.00  0.00    -0.143 NA
ATOM      6  C   UNL d   1     -55.482-102.272 -43.720  0.00  0.00     0.185 A 
ATOM      7  N   UNL d   1     -55.030-100.389 -42.889  0.00  0.00    -0.227 NA
ATOM      8  C   UNL d   1     -55.365-101.024 -44.321  0.00  0.00     0.007 A 
ATOM      9  N   UNL d   1     -55.653-102.603 -44.438  0.00  0.00    -0.225 NA
ATOM     10  C   UNL d   1     -54.838-100.536 -41.519  0.00  0.00     0.057 A 
ATOM     11  C   UNL d   1     -55.532-101.337 -45.037  0.00  0.00     0.019 A 
ATOM     12  C   UNL d   1     -54.862-100.068 -42.178  0.00  0.00     0.086 A 
ATOM     13  C   UNL d   1     -55.677-102.134 -45.098  0.00  0.00     0.083 A 
ATOM     14  C   UNL d   1     -55.220-100.235 -44.255  0.00  0.00     0.000 C 
ATOM     15  C   UNL d   1     -54.712 -99.251 -42.109  0.00  0.00     0.021 C 
ATOM     16  C   UNL d   1     -55.844-102.452 -45.806  0.00  0.00     0.021 C 
ENDROOT
BRANCH   4  17
ATOM     17  N   UNL d   1     -54.957-101.804 -40.910  0.00  0.00    -0.286 N 
ATOM     18  C   UNL d   1     -55.240-101.304 -40.320  0.00  0.00     0.101 A 
ATOM     19  C   UNL d   1     -55.304-101.593 -39.535  0.00  0.00     0.100 A 
ATOM     20  N   UNL d   1     -55.086-102.376 -39.346  0.00  0.00    -0.300 N 
ATOM     21  C   UNL d   1     -54.799-102.877 -39.954  0.00  0.00     0.100 A 
ATOM     22  C   UNL d   1     -54.734-102.594 -40.739  0.00  0.00     0.101 A 
BRANCH  20  23
ATOM     23  C   UNL d   1     -55.151-102.655 -38.569  0.00  0.00     0.080 C 
BRANCH  23  24
ATOM     24  C   UNL d   1     -55.043-102.133 -37.923  0.00  0.00     0.018 A 
ATOM     25  C   UNL d   1     -54.823-101.350 -38.067  0.00  0.00     0.002 A 
ATOM     26  C   UNL d   1     -54.712-100.819 -37.433  0.00  0.00     0.000 A 
ATOM     27  C   UNL d   1     -54.824-101.083 -36.648  0.00  0.00     0.000 A 
ATOM     28  C   UNL d   1     -55.048-101.877 -36.505  0.00  0.00     0.000 A 
ATOM     29  C   UNL d   1     -55.156-102.396 -37.147  0.00  0.00     0.002 A 
ENDBRANCH  23  24
ENDBRANCH  20  23
ENDBRANCH   4  17
TORSDOF 3
ENDMDL
