MODEL 1
REMARK VINA RESULT:      -4.7      0.000      0.000
REMARK  5 active torsions:
REMARK  status: ('A' for Active; 'I' for Inactive)
REMARK    1  A    between atoms: S_6  and  C_2 
REMARK    2  A    between atoms: C_11  and  S_6 
REMARK    3  A    between atoms: C_7  and  C_11 
REMARK       I    between atoms: N_8  and  C_7 
REMARK    4  A    between atoms: C_13  and  N_8 
REMARK    5  A    between atoms: C_14  and  C_13 
ROOT
ATOM      1  S   UNL d   1      58.388  -0.688  29.615  0.00  0.00    -0.080 SA
ENDROOT
BRANCH   1   2
ATOM      2  C   UNL d   1      59.091  -0.985  29.302  0.00  0.00     0.049 A 
ATOM      3  C   UNL d   1      59.789  -0.566  29.190  0.00  0.00     0.087 A 
ATOM      4  N   UNL d   1      60.353  -1.086  28.859  0.00  0.00    -0.302 N 
ATOM      5  C   UNL d   1      59.988  -1.829  28.771  0.00  0.00     0.065 A 
ATOM      6  C   UNL d   1      61.129  -0.897  28.657  0.00  0.00     0.100 C 
ATOM      7  C   UNL d   1      59.211  -1.768  29.043  0.00  0.00     0.024 A 
ATOM      8  C   UNL d   1      60.276  -2.543  28.476  0.00  0.00     0.018 A 
ATOM      9  C   UNL d   1      58.719  -2.430  29.019  0.00  0.00     0.002 A 
ATOM     10  C   UNL d   1      58.999  -3.142  28.728  0.00  0.00     0.000 A 
ATOM     11  C   UNL d   1      59.776  -3.203  28.455  0.00  0.00     0.002 A 
ENDBRANCH   1   2
BRANCH   1  12
ATOM     12  C   UNL d   1      58.413  -0.201  30.285  0.00  0.00     0.098 C 
BRANCH  12  13
ATOM     13  C   UNL d   1      57.711   0.101  30.601  0.00  0.00     0.286 C 
ATOM     14  N   UNL d   1      57.437  -0.181  31.325  0.00  0.00    -0.204 NA
ATOM     15  O   UNL d   1      57.290   0.679  30.194  0.00  0.00    -0.265 OA
BRANCH  14  16
ATOM     16  C   UNL d   1      56.735   0.120  31.642  0.00  0.00     0.127 C 
BRANCH  16  17
ATOM     17  C   UNL d   1      56.362  -0.275  32.245  0.00  0.00     0.119 A 
ATOM     18  O   UNL d   1      56.322  -1.093  32.345  0.00  0.00    -0.304 OA
ATOM     19  C   UNL d   1      55.885  -1.250  33.037  0.00  0.00     0.123 A 
ATOM     20  C   UNL d   1      55.656  -0.527  33.360  0.00  0.00     0.029 A 
ATOM     21  C   UNL d   1      55.948   0.068  32.875  0.00  0.00     0.028 A 
ENDBRANCH  16  17
ENDBRANCH  14  16
ENDBRANCH  12  13
ENDBRANCH   1  12
TORSDOF 5
ENDMDL
MODEL 2
REMARK VINA RESULT:      -4.5      1.524      5.285
REMARK  5 active torsions:
REMARK  status: ('A' for Active; 'I' for Inactive)
REMARK    1  A    between atoms: S_6  and  C_2 
REMARK    2  A    between atoms: C_11  and  S_6 
REMARK    3  A    between atoms: C_7  and  C_11 
REMARK       I    between atoms: N_8  and  C_7 
REMARK    4  A    between atoms: C_13  and  N_8 
REMARK    5  A    between atoms: C_14  and  C_13 
ROOT
ATOM      1  S   UNL d   1      56.986   0.358  31.841  0.00  0.00    -0.080 SA
ENDROOT
BRANCH   1   2
ATOM      2  C   UNL d   1      56.947   0.455  32.659  0.00  0.00     0.049 A 
ATOM      3  C   UNL d   1      57.585   0.509  33.173  0.00  0.00     0.087 A 
ATOM      4  N   UNL d   1      57.287   0.604  33.948  0.00  0.00    -0.302 N 
ATOM      5  C   UNL d   1      56.456   0.606  33.897  0.00  0.00     0.065 A 
ATOM      6  C   UNL d   1      57.735   0.680  34.635  0.00  0.00     0.100 C 
ATOM      7  C   UNL d   1      56.246   0.515  33.104  0.00  0.00     0.024 A 
ATOM      8  C   UNL d   1      55.878   0.681  34.481  0.00  0.00     0.018 A 
ATOM      9  C   UNL d   1      55.448   0.499  32.895  0.00  0.00     0.002 A 
ATOM     10  C   UNL d   1      54.869   0.572  33.470  0.00  0.00     0.000 A 
ATOM     11  C   UNL d   1      55.079   0.664  34.263  0.00  0.00     0.002 A 
ENDBRANCH   1   2
BRANCH   1  12
ATOM     12  C   UNL d   1      57.718   0.415  31.456  0.00  0.00     0.098 C 
BRANCH  12  13
ATOM     13  C   UNL d   1      57.763   0.303  30.638  0.00  0.00     0.286 C 
ATOM     14  N   UNL d   1      58.349  -0.186  30.327  0.00  0.00    -0.204 NA
ATOM     15  O   UNL d   1      57.226   0.677  30.139  0.00  0.00    -0.265 OA
BRANCH  14  16
ATOM     16  C   UNL d   1      58.395  -0.299  29.509  0.00  0.00     0.127 C 
BRANCH  16  17
ATOM     17  C   UNL d   1      58.946  -0.809  29.202  0.00  0.00     0.119 A 
ATOM     18  O   UNL d   1      59.710  -0.617  28.956  0.00  0.00    -0.304 OA
ATOM     19  C   UNL d   1      60.078  -1.312  28.681  0.00  0.00     0.123 A 
ATOM     20  C   UNL d   1      59.538  -1.931  28.758  0.00  0.00     0.029 A 
ATOM     21  C   UNL d   1      58.847  -1.623  29.077  0.00  0.00     0.028 A 
ENDBRANCH  16  17
ENDBRANCH  14  16
ENDBRANCH  12  13
ENDBRANCH   1  12
TORSDOF 5
ENDMDL
MODEL 3
REMARK VINA RESULT:      -4.4      1.130      1.709
REMARK  5 active torsions:
REMARK  status: ('A' for Active; 'I' for Inactive)
REMARK    1  A    between atoms: S_6  and  C_2 
REMARK    2  A    between atoms: C_11  and  S_6 
REMARK    3  A    between atoms: C_7  and  C_11 
REMARK       I    between atoms: N_8  and  C_7 
REMARK    4  A    between atoms: C_13  and  N_8 
REMARK    5  A    between atoms: C_14  and  C_13 
ROOT
ATOM      1  S   UNL d   1      57.622  -1.108  30.690  0.00  0.00    -0.080 SA
ENDROOT
BRANCH   1   2
ATOM      2  C   UNL d   1      58.187  -0.820  30.162  0.00  0.00     0.049 A 
ATOM      3  C   UNL d   1      58.416  -0.037  30.074  0.00  0.00     0.087 A 
ATOM      4  N   UNL d   1      59.001  -0.002  29.478  0.00  0.00    -0.302 N 
ATOM      5  C   UNL d   1      59.125  -0.778  29.204  0.00  0.00     0.065 A 
ATOM      6  C   UNL d   1      59.384   0.677  29.211  0.00  0.00     0.100 C 
ATOM      7  C   UNL d   1      58.624  -1.283  29.624  0.00  0.00     0.024 A 
ATOM      8  C   UNL d   1      59.632  -1.074  28.625  0.00  0.00     0.018 A 
ATOM      9  C   UNL d   1      58.634  -2.092  29.462  0.00  0.00     0.002 A 
ATOM     10  C   UNL d   1      59.136  -2.392  28.889  0.00  0.00     0.000 A 
ATOM     11  C   UNL d   1      59.636  -1.887  28.468  0.00  0.00     0.002 A 
ENDBRANCH   1   2
BRANCH   1  12
ATOM     12  C   UNL d   1      57.192  -0.577  31.158  0.00  0.00     0.098 C 
BRANCH  12  13
ATOM     13  C   UNL d   1      56.705  -0.862  31.762  0.00  0.00     0.286 C 
ATOM     14  N   UNL d   1      56.330  -0.330  32.267  0.00  0.00    -0.204 NA
ATOM     15  O   UNL d   1      56.595  -1.672  31.857  0.00  0.00    -0.265 OA
BRANCH  14  16
ATOM     16  C   UNL d   1      55.842  -0.614  32.872  0.00  0.00     0.127 C 
BRANCH  16  17
ATOM     17  C   UNL d   1      55.592  -0.112  33.458  0.00  0.00     0.119 A 
ATOM     18  O   UNL d   1      54.829   0.184  33.558  0.00  0.00    -0.304 OA
ATOM     19  C   UNL d   1      54.826   0.676  34.230  0.00  0.00     0.123 A 
ATOM     20  C   UNL d   1      55.589   0.681  34.542  0.00  0.00     0.029 A 
ATOM     21  C   UNL d   1      56.056   0.199  34.070  0.00  0.00     0.028 A 
ENDBRANCH  16  17
ENDBRANCH  14  16
ENDBRANCH  12  13
ENDBRANCH   1  12
TORSDOF 5
ENDMDL
MODEL 4
REMARK VINA RESULT:      -2.8      8.485      9.763
REMARK  5 active torsions:
REMARK  status: ('A' for Active; 'I' for Inactive)
REMARK    1  A    between atoms: S_6  and  C_2 
REMARK    2  A    between atoms: C_11  and  S_6 
REMARK    3  A    between atoms: C_7  and  C_11 
REMARK       I    between atoms: N_8  and  C_7 
REMARK    4  A    between atoms: C_13  and  N_8 
REMARK    5  A    between atoms: C_14  and  C_13 
ROOT
ATOM      1  S   UNL d   1      58.953  -8.981  33.943  0.00  0.00    -0.080 SA
ENDROOT
BRANCH   1   2
ATOM      2  C   UNL d   1      59.460  -8.948  34.593  0.00  0.00     0.049 A 
ATOM      3  C   UNL d   1      59.981  -9.535  34.833  0.00  0.00     0.087 A 
ATOM      4  N   UNL d   1      60.381  -9.265  35.515  0.00  0.00    -0.302 N 
ATOM      5  C   UNL d   1      60.095  -8.502  35.687  0.00  0.00     0.065 A 
ATOM      6  C   UNL d   1      60.954  -9.678  35.939  0.00  0.00     0.100 C 
ATOM      7  C   UNL d   1      59.528  -8.306  35.120  0.00  0.00     0.024 A 
ATOM      8  C   UNL d   1      60.287  -7.974  36.290  0.00  0.00     0.018 A 
ATOM      9  C   UNL d   1      59.151  -7.573  35.159  0.00  0.00     0.002 A 
ATOM     10  C   UNL d   1      59.338  -7.044  35.755  0.00  0.00     0.000 A 
ATOM     11  C   UNL d   1      59.905  -7.240  36.323  0.00  0.00     0.002 A 
ENDBRANCH   1   2
BRANCH   1  12
ATOM     12  C   UNL d   1      58.760  -9.715  33.611  0.00  0.00     0.098 C 
BRANCH  12  13
ATOM     13  C   UNL d   1      58.208  -9.757  32.997  0.00  0.00     0.286 C 
ATOM     14  N   UNL d   1      58.471  -9.776  32.216  0.00  0.00    -0.204 NA
ATOM     15  O   UNL d   1      57.403  -9.779  33.165  0.00  0.00    -0.265 OA
BRANCH  14  16
ATOM     16  C   UNL d   1      57.920  -9.818  31.601  0.00  0.00     0.127 C 
BRANCH  16  17
ATOM     17  C   UNL d   1      58.170  -9.758  30.830  0.00  0.00     0.119 A 
ATOM     18  O   UNL d   1      58.950  -9.784  30.564  0.00  0.00    -0.304 OA
ATOM     19  C   UNL d   1      58.945  -9.702  29.735  0.00  0.00     0.123 A 
ATOM     20  C   UNL d   1      58.160  -9.626  29.494  0.00  0.00     0.029 A 
ATOM     21  C   UNL d   1      57.687  -9.661  30.164  0.00  0.00     0.028 A 
ENDBRANCH  16  17
ENDBRANCH  14  16
ENDBRANCH  12  13
ENDBRANCH   1  12
TORSDOF 5
ENDMDL
