MODEL 1
REMARK VINA RESULT:      18.5      0.000      0.000
REMARK  6 active torsions:
REMARK  status: ('A' for Active; 'I' for Inactive)
REMARK    1  A    between atoms: C_4  and  N_1 
REMARK    2  A    between atoms: C_7  and  C_3 
REMARK    3  A    between atoms: N_13  and  C_4 
REMARK    4  A    between atoms: C_16  and  N_13 
REMARK    5  A    between atoms: C_20  and  C_16 
REMARK    6  A    between atoms: C_17  and  C_20 
ROOT
ATOM      1  N   UNL d   1      45.940 -17.837  43.071  0.00  0.00    -0.281 N 
ATOM      2  C   UNL d   1      46.316 -18.901  42.213  0.00  0.00     0.080 A 
ATOM      3  C   UNL d   1      46.137 -18.625  42.963  0.00  0.00     0.084 A 
ATOM      4  N   UNL d   1      46.298 -18.390  41.571  0.00  0.00    -0.301 N 
ATOM      5  C   UNL d   1      45.922 -17.321  42.423  0.00  0.00     0.101 A 
ATOM      6  C   UNL d   1      46.529 -19.650  41.938  0.00  0.00     0.021 A 
ATOM      7  C   UNL d   1      46.500 -18.816  40.893  0.00  0.00     0.080 A 
ATOM      8  C   UNL d   1      46.103 -17.605  41.674  0.00  0.00     0.100 A 
ATOM      9  C   UNL d   1      46.644 -19.597  41.116  0.00  0.00     0.021 A 
ENDROOT
BRANCH   1  10
ATOM     10  C   UNL d   1      45.758 -17.549  43.825  0.00  0.00     0.184 C 
ATOM     11  S   UNL d   1      45.179 -17.923  44.266  0.00  0.00    -0.040 SA
BRANCH  10  12
ATOM     12  N   UNL d   1      46.152 -16.898  44.127  0.00  0.00    -0.330 N 
ATOM     13  H   UNL d   1      46.976 -16.861  44.091  0.00  0.00     0.168 HD
BRANCH  12  14
ATOM     14  C   UNL d   1      45.728 -16.281  44.465  0.00  0.00     0.074 C 
BRANCH  14  15
ATOM     15  C   UNL d   1      46.079 -15.580  44.602  0.00  0.00     0.018 C 
BRANCH  15  16
ATOM     16  C   UNL d   1      45.756 -14.833  44.455  0.00  0.00     0.002 A 
ATOM     17  C   UNL d   1      45.068 -14.597  44.861  0.00  0.00     0.000 A 
ATOM     18  C   UNL d   1      44.743 -13.852  44.716  0.00  0.00     0.000 A 
ATOM     19  C   UNL d   1      45.100 -13.342  44.169  0.00  0.00     0.000 A 
ATOM     20  C   UNL d   1      45.787 -13.577  43.762  0.00  0.00     0.000 A 
ATOM     21  C   UNL d   1      46.108 -14.326  43.912  0.00  0.00     0.000 A 
ENDBRANCH  15  16
ENDBRANCH  14  15
ENDBRANCH  12  14
ENDBRANCH  10  12
ENDBRANCH   1  10
BRANCH   3  22
ATOM     22  C   UNL d   1      46.154 -19.137  43.610  0.00  0.00     0.037 A 
ATOM     23  C   UNL d   1      46.635 -18.969  44.258  0.00  0.00     0.100 A 
ATOM     24  N   UNL d   1      46.646 -19.483  44.898  0.00  0.00    -0.242 NA
ATOM     25  C   UNL d   1      46.193 -20.154  44.903  0.00  0.00     0.099 A 
ATOM     26  C   UNL d   1      45.708 -20.329  44.255  0.00  0.00     0.021 A 
ATOM     27  C   UNL d   1      45.690 -19.817  43.608  0.00  0.00     0.005 A 
ENDBRANCH   3  22
TORSDOF 6
ENDMDL
