MODEL 1
REMARK VINA RESULT:      35.1      0.000      0.000
REMARK  3 active torsions:
REMARK  status: ('A' for Active; 'I' for Inactive)
REMARK    1  A    between atoms: C_2  and  S_1 
REMARK    2  A    between atoms: N_3  and  S_1 
REMARK    3  A    between atoms: C_8  and  N_3 
ROOT
ATOM      1  S   UNL d   1      13.551  12.451  -2.381  0.00  0.00     0.327 S 
ATOM      2  O   UNL d   1      13.080  11.779  -2.504  0.00  0.00    -0.186 OA
ATOM      3  O   UNL d   1      14.019  13.119  -2.259  0.00  0.00    -0.186 OA
ENDROOT
BRANCH   1   4
ATOM      4  C   UNL d   1      13.663  12.229  -1.595  0.00  0.00     0.116 A 
ATOM      5  C   UNL d   1      14.421  12.217  -1.274  0.00  0.00     0.013 A 
ATOM      6  C   UNL d   1      14.535  11.992  -0.480  0.00  0.00     0.001 A 
ATOM      7  C   UNL d   1      15.076  12.426  -1.732  0.00  0.00     0.001 A 
ATOM      8  C   UNL d   1      15.293  11.980  -0.159  0.00  0.00     0.000 A 
ATOM      9  C   UNL d   1      13.890  11.781  -0.014  0.00  0.00     0.000 A 
ATOM     10  C   UNL d   1      15.938  12.191  -0.625  0.00  0.00     0.000 A 
ATOM     11  C   UNL d   1      15.835  12.414  -1.412  0.00  0.00     0.000 A 
ATOM     12  C   UNL d   1      13.127  11.793  -0.335  0.00  0.00     0.001 A 
ATOM     13  C   UNL d   1      13.013  12.017  -1.129  0.00  0.00     0.014 A 
ENDBRANCH   1   4
BRANCH   1  14
ATOM     14  N   UNL d   1      13.438  12.673  -3.167  0.00  0.00    -0.318 NA
BRANCH  14  15
ATOM     15  C   UNL d   1      13.326  12.896  -3.954  0.00  0.00     0.141 A 
ATOM     16  C   UNL d   1      13.374  12.341  -4.551  0.00  0.00     0.028 A 
ATOM     17  C   UNL d   1      13.262  12.562  -5.330  0.00  0.00     0.101 A 
ATOM     18  C   UNL d   1      13.385  11.780  -5.563  0.00  0.00     0.029 C 
ATOM     19  C   UNL d   1      13.270  12.163  -6.055  0.00  0.00     0.029 C 
ATOM     20  N   UNL d   1      13.101  13.346  -5.517  0.00  0.00    -0.295 NA
ATOM     21  C   UNL d   1      13.051  13.910  -4.918  0.00  0.00     0.101 A 
ATOM     22  C   UNL d   1      13.164  13.687  -4.132  0.00  0.00     0.028 A 
ATOM     23  C   UNL d   1      12.930  14.689  -4.675  0.00  0.00     0.029 C 
ATOM     24  C   UNL d   1      12.885  14.622  -5.304  0.00  0.00     0.029 C 
ENDBRANCH  14  15
ENDBRANCH   1  14
TORSDOF 3
ENDMDL
