MODEL 1
REMARK VINA RESULT:      12.4      0.000      0.000
REMARK  2 active torsions:
REMARK  status: ('A' for Active; 'I' for Inactive)
REMARK    1  A    between atoms: C_4  and  C_1 
REMARK    2  A    between atoms: N_6  and  C_5 
ROOT
ATOM      1  C   UNL d   1      59.001  49.691  50.499  0.00  0.00     0.024 A 
ATOM      2  C   UNL d   1      57.408  49.699  50.062  0.00  0.00     0.064 A 
ATOM      3  C   UNL d   1      58.409  49.687  51.078  0.00  0.00     0.004 A 
ATOM      4  C   UNL d   1      58.794  49.698  49.701  0.00  0.00     0.004 A 
ATOM      5  C   UNL d   1      57.616  49.691  50.861  0.00  0.00     0.018 A 
ATOM      6  C   UNL d   1      57.994  49.702  49.481  0.00  0.00     0.018 A 
ENDROOT
BRANCH   1   7
ATOM      7  C   UNL d   1      59.794  49.687  50.714  0.00  0.00     0.111 A 
ATOM      8  N   UNL d   1      60.444  49.663  50.218  0.00  0.00    -0.237 NA
ATOM      9  C   UNL d   1      61.115  49.669  50.700  0.00  0.00     0.106 A 
ATOM     10  C   UNL d   1      60.881  49.696  51.464  0.00  0.00     0.058 A 
ATOM     11  S   UNL d   1      60.067  49.707  51.478  0.00  0.00    -0.066 SA
ENDBRANCH   1   7
BRANCH   2  12
ATOM     12  N   UNL d   1      56.606  49.702  49.869  0.00  0.00    -0.301 N 
ATOM     13  C   UNL d   1      56.053  49.703  50.475  0.00  0.00     0.100 C 
ATOM     14  C   UNL d   1      56.369  49.705  49.086  0.00  0.00     0.100 C 
ENDBRANCH   2  12
TORSDOF 2
ENDMDL
MODEL 2
REMARK VINA RESULT:      13.6      1.039      3.403
REMARK  2 active torsions:
REMARK  status: ('A' for Active; 'I' for Inactive)
REMARK    1  A    between atoms: C_4  and  C_1 
REMARK    2  A    between atoms: N_6  and  C_5 
ROOT
ATOM      1  C   UNL d   1      58.200  49.681  50.503  0.00  0.00     0.024 A 
ATOM      2  C   UNL d   1      59.787  49.678  50.963  0.00  0.00     0.064 A 
ATOM      3  C   UNL d   1      58.402  49.693  51.306  0.00  0.00     0.004 A 
ATOM      4  C   UNL d   1      58.794  49.667  49.931  0.00  0.00     0.004 A 
ATOM      5  C   UNL d   1      59.192  49.692  51.535  0.00  0.00     0.018 A 
ATOM      6  C   UNL d   1      59.591  49.666  50.162  0.00  0.00     0.018 A 
ENDROOT
BRANCH   1   7
ATOM      7  C   UNL d   1      57.412  49.683  50.272  0.00  0.00     0.111 A 
ATOM      8  N   UNL d   1      57.117  49.669  49.509  0.00  0.00    -0.237 NA
ATOM      9  C   UNL d   1      56.294  49.677  49.569  0.00  0.00     0.106 A 
ATOM     10  C   UNL d   1      56.094  49.695  50.343  0.00  0.00     0.058 A 
ATOM     11  S   UNL d   1      56.780  49.699  50.780  0.00  0.00    -0.066 SA
ENDBRANCH   1   7
BRANCH   2  12
ATOM     12  N   UNL d   1      60.572  49.677  51.218  0.00  0.00    -0.301 N 
ATOM     13  C   UNL d   1      61.171  49.656  50.659  0.00  0.00     0.100 C 
ATOM     14  C   UNL d   1      60.746  49.696  52.018  0.00  0.00     0.100 C 
ENDBRANCH   2  12
TORSDOF 2
ENDMDL
