MODEL 1
REMARK VINA RESULT:      -0.7      0.000      0.000
REMARK  5 active torsions:
REMARK  status: ('A' for Active; 'I' for Inactive)
REMARK    1  A    between atoms: S_10  and  C_5 
REMARK    2  A    between atoms: C_14  and  N_9 
REMARK    3  A    between atoms: C_17  and  S_10 
REMARK    4  A    between atoms: C_15  and  C_14 
REMARK    5  A    between atoms: C_19  and  C_17 
ROOT
ATOM      1  C   UNL d   1      60.025  -9.728  30.744  0.00  0.00     0.174 A 
ATOM      2  N   UNL d   1      60.397  -9.733  31.468  0.00  0.00    -0.203 NA
ATOM      3  C   UNL d   1      59.211  -9.758  30.877  0.00  0.00     0.159 A 
ATOM      4  N   UNL d   1      60.304  -9.701  29.976  0.00  0.00    -0.239 N 
ATOM      5  C   UNL d   1      59.808  -9.767  32.046  0.00  0.00     0.181 A 
ATOM      6  C   UNL d   1      59.790  -9.701  29.313  0.00  0.00     0.358 A 
ATOM      7  N   UNL d   1      58.976  -9.731  29.446  0.00  0.00    -0.152 NA
ATOM      8  C   UNL d   1      58.677  -9.760  30.242  0.00  0.00     0.302 A 
ATOM      9  N   UNL d   1      59.034  -9.785  31.754  0.00  0.00    -0.279 N 
ATOM     10  O   UNL d   1      60.067  -9.674  28.534  0.00  0.00    -0.244 OA
ATOM     11  O   UNL d   1      57.863  -9.790  30.375  0.00  0.00    -0.263 OA
ATOM     12  C   UNL d   1      61.118  -9.671  29.843  0.00  0.00     0.105 C 
ENDROOT
BRANCH   5  13
ATOM     13  S   UNL d   1      60.144  -9.773  32.788  0.00  0.00    -0.049 SA
BRANCH  13  14
ATOM     14  C   UNL d   1      60.862  -9.523  33.107  0.00  0.00     0.038 C 
BRANCH  14  15
ATOM     15  C   UNL d   1      60.885  -9.190  33.861  0.00  0.00     0.007 A 
ATOM     16  C   UNL d   1      60.767  -9.663  34.524  0.00  0.00     0.003 A 
ATOM     17  C   UNL d   1      60.790  -9.336  35.277  0.00  0.00     0.030 A 
ATOM     18  C   UNL d   1      60.932  -8.524  35.370  0.00  0.00     0.140 A 
ATOM     19  C   UNL d   1      61.051  -8.052  34.706  0.00  0.00     0.030 A 
ATOM     20  F   UNL d   1      60.956  -8.191  36.124  0.00  0.00    -0.204 F 
ATOM     21  C   UNL d   1      61.027  -8.385  33.952  0.00  0.00     0.003 A 
ENDBRANCH  14  15
ENDBRANCH  13  14
ENDBRANCH   5  13
BRANCH   9  22
ATOM     22  C   UNL d   1      58.312  -9.818  32.138  0.00  0.00     0.082 C 
BRANCH  22  23
ATOM     23  C   UNL d   1      58.020  -9.139  32.505  0.00  0.00     0.019 C 
ATOM     24  C   UNL d   1      57.388  -9.193  33.029  0.00  0.00     0.002 C 
ENDBRANCH  22  23
ENDBRANCH   9  22
TORSDOF 5
ENDMDL
MODEL 2
REMARK VINA RESULT:       0.0      9.956     11.001
REMARK  5 active torsions:
REMARK  status: ('A' for Active; 'I' for Inactive)
REMARK    1  A    between atoms: S_10  and  C_5 
REMARK    2  A    between atoms: C_14  and  N_9 
REMARK    3  A    between atoms: C_17  and  S_10 
REMARK    4  A    between atoms: C_15  and  C_14 
REMARK    5  A    between atoms: C_19  and  C_17 
ROOT
ATOM      1  C   UNL d   1      55.829   0.239  33.630  0.00  0.00     0.174 A 
ATOM      2  N   UNL d   1      56.128   0.199  32.874  0.00  0.00    -0.203 NA
ATOM      3  C   UNL d   1      56.452   0.421  34.140  0.00  0.00     0.159 A 
ATOM      4  N   UNL d   1      55.078   0.137  33.937  0.00  0.00    -0.239 N 
ATOM      5  C   UNL d   1      56.937   0.356  32.922  0.00  0.00     0.181 A 
ATOM      6  C   UNL d   1      54.916   0.211  34.756  0.00  0.00     0.358 A 
ATOM      7  N   UNL d   1      55.539   0.393  35.266  0.00  0.00    -0.152 NA
ATOM      8  C   UNL d   1      56.324   0.500  34.956  0.00  0.00     0.302 A 
ATOM      9  N   UNL d   1      57.218   0.506  33.685  0.00  0.00    -0.279 N 
ATOM     10  O   UNL d   1      54.157   0.110  35.073  0.00  0.00    -0.244 OA
ATOM     11  O   UNL d   1      56.947   0.682  35.465  0.00  0.00    -0.263 OA
ATOM     12  C   UNL d   1      54.455  -0.044  33.428  0.00  0.00     0.105 C 
ENDROOT
BRANCH   5  13
ATOM     13  S   UNL d   1      57.272   0.325  32.180  0.00  0.00    -0.049 SA
BRANCH  13  14
ATOM     14  C   UNL d   1      56.984   0.251  31.411  0.00  0.00     0.038 C 
BRANCH  14  15
ATOM     15  C   UNL d   1      57.490   0.023  30.800  0.00  0.00     0.007 A 
ATOM     16  C   UNL d   1      57.838   0.594  30.319  0.00  0.00     0.003 A 
ATOM     17  C   UNL d   1      58.342   0.371  29.710  0.00  0.00     0.030 A 
ATOM     18  C   UNL d   1      58.501  -0.433  29.578  0.00  0.00     0.140 A 
ATOM     19  C   UNL d   1      58.152  -1.002  30.060  0.00  0.00     0.030 A 
ATOM     20  F   UNL d   1      59.006  -0.660  28.968  0.00  0.00    -0.204 F 
ATOM     21  C   UNL d   1      57.646  -0.774  30.671  0.00  0.00     0.003 A 
ENDBRANCH  14  15
ENDBRANCH  13  14
ENDBRANCH   5  13
BRANCH   9  22
ATOM     22  C   UNL d   1      57.969   0.682  33.960  0.00  0.00     0.082 C 
BRANCH  22  23
ATOM     23  C   UNL d   1      58.602   0.682  33.429  0.00  0.00     0.019 C 
ATOM     24  C   UNL d   1      59.374   0.668  33.710  0.00  0.00     0.002 C 
ENDBRANCH  22  23
ENDBRANCH   9  22
TORSDOF 5
ENDMDL
MODEL 3
REMARK VINA RESULT:       0.4      8.968      9.864
REMARK  5 active torsions:
REMARK  status: ('A' for Active; 'I' for Inactive)
REMARK    1  A    between atoms: S_10  and  C_5 
REMARK    2  A    between atoms: C_14  and  N_9 
REMARK    3  A    between atoms: C_17  and  S_10 
REMARK    4  A    between atoms: C_15  and  C_14 
REMARK    5  A    between atoms: C_19  and  C_17 
ROOT
ATOM      1  C   UNL d   1      56.602  -0.829  32.099  0.00  0.00     0.174 A 
ATOM      2  N   UNL d   1      56.997  -0.967  31.400  0.00  0.00    -0.203 NA
ATOM      3  C   UNL d   1      56.984  -0.210  32.488  0.00  0.00     0.159 A 
ATOM      4  N   UNL d   1      55.947  -1.176  32.444  0.00  0.00    -0.239 N 
ATOM      5  C   UNL d   1      57.623  -0.429  31.362  0.00  0.00     0.181 A 
ATOM      6  C   UNL d   1      55.647  -0.923  33.186  0.00  0.00     0.358 A 
ATOM      7  N   UNL d   1      56.029  -0.304  33.575  0.00  0.00    -0.152 NA
ATOM      8  C   UNL d   1      56.711   0.063  33.223  0.00  0.00     0.302 A 
ATOM      9  N   UNL d   1      57.682   0.082  32.010  0.00  0.00    -0.279 N 
ATOM     10  O   UNL d   1      54.984  -1.270  33.540  0.00  0.00    -0.244 OA
ATOM     11  O   UNL d   1      57.093   0.682  33.612  0.00  0.00    -0.263 OA
ATOM     12  C   UNL d   1      55.566  -1.795  32.055  0.00  0.00     0.105 C 
ENDROOT
BRANCH   5  13
ATOM     13  S   UNL d   1      58.043  -0.537  30.673  0.00  0.00    -0.049 SA
BRANCH  13  14
ATOM     14  C   UNL d   1      57.919  -0.952  29.972  0.00  0.00     0.038 C 
BRANCH  14  15
ATOM     15  C   UNL d   1      58.551  -1.322  29.593  0.00  0.00     0.007 A 
ATOM     16  C   UNL d   1      58.579  -2.144  29.545  0.00  0.00     0.003 A 
ATOM     17  C   UNL d   1      59.207  -2.516  29.169  0.00  0.00     0.030 A 
ATOM     18  C   UNL d   1      59.816  -2.063  28.835  0.00  0.00     0.140 A 
ATOM     19  C   UNL d   1      59.787  -1.242  28.883  0.00  0.00     0.030 A 
ATOM     20  F   UNL d   1      60.449  -2.433  28.456  0.00  0.00    -0.204 F 
ATOM     21  C   UNL d   1      59.154  -0.871  29.262  0.00  0.00     0.003 A 
ENDBRANCH  14  15
ENDBRANCH  13  14
ENDBRANCH   5  13
BRANCH   9  22
ATOM     22  C   UNL d   1      58.214   0.681  32.179  0.00  0.00     0.082 C 
BRANCH  22  23
ATOM     23  C   UNL d   1      58.878   0.512  32.640  0.00  0.00     0.019 C 
ATOM     24  C   UNL d   1      59.631   0.676  32.353  0.00  0.00     0.002 C 
ENDBRANCH  22  23
ENDBRANCH   9  22
TORSDOF 5
ENDMDL
