MODEL 1
REMARK VINA RESULT:       1.3      0.000      0.000
REMARK  4 active torsions:
REMARK  status: ('A' for Active; 'I' for Inactive)
REMARK    1  A    between atoms: N_10  and  C_3 
REMARK    2  A    between atoms: C_13  and  C_5 
REMARK    3  A    between atoms: C_12  and  C_9 
REMARK    4  A    between atoms: C_19  and  N_11 
ROOT
ATOM      1  N   UNL d   1      30.806  18.171 -24.487  0.00  0.00    -0.196 N 
ATOM      2  C   UNL d   1      30.376  17.489 -24.301  0.00  0.00     0.167 A 
ATOM      3  C   UNL d   1      31.616  18.169 -24.392  0.00  0.00     0.152 A 
ATOM      4  N   UNL d   1      29.608  18.811 -24.850  0.00  0.00    -0.163 NA
ATOM      5  C   UNL d   1      29.576  17.473 -24.389  0.00  0.00     0.055 A 
ATOM      6  N   UNL d   1      30.767  16.822 -24.023  0.00  0.00    -0.231 NA
ATOM      7  C   UNL d   1      32.010  17.500 -24.113  0.00  0.00     0.052 A 
ATOM      8  C   UNL d   1      29.185  18.139 -24.667  0.00  0.00     0.104 A 
ATOM      9  C   UNL d   1      31.586  16.828 -23.929  0.00  0.00     0.063 A 
ATOM     10  C   UNL d   1      28.376  18.137 -24.760  0.00  0.00     0.023 C 
ENDROOT
BRANCH   3  11
ATOM     11  N   UNL d   1      32.059  18.873 -24.584  0.00  0.00    -0.286 N 
ATOM     12  C   UNL d   1      32.830  18.859 -24.926  0.00  0.00     0.101 A 
ATOM     13  C   UNL d   1      33.225  19.584 -25.097  0.00  0.00     0.100 A 
ATOM     14  N   UNL d   1      32.852  20.331 -24.928  0.00  0.00    -0.300 N 
ATOM     15  C   UNL d   1      32.081  20.336 -24.586  0.00  0.00     0.100 A 
ATOM     16  C   UNL d   1      31.676  19.603 -24.411  0.00  0.00     0.101 A 
BRANCH  14  17
ATOM     17  C   UNL d   1      33.241  21.061 -25.096  0.00  0.00     0.080 C 
ATOM     18  C   UNL d   1      33.239  21.672 -24.510  0.00  0.00     0.021 C 
ENDBRANCH  14  17
ENDBRANCH   3  11
BRANCH   9  19
ATOM     19  C   UNL d   1      31.989  16.135 -23.641  0.00  0.00     0.036 C 
ATOM     20  C   UNL d   1      32.388  15.453 -23.351  0.00  0.00     0.006 C 
ATOM     21  C   UNL d   1      32.154  15.489 -24.172  0.00  0.00     0.006 C 
ATOM     22  C   UNL d   1      32.221  16.100 -22.825  0.00  0.00     0.006 C 
ENDBRANCH   9  19
BRANCH   5  23
ATOM     23  C   UNL d   1      29.150  16.797 -24.204  0.00  0.00     0.004 A 
ATOM     24  C   UNL d   1      28.832  16.716 -23.456  0.00  0.00     0.000 A 
ATOM     25  C   UNL d   1      28.402  16.033 -23.269  0.00  0.00     0.000 A 
ATOM     26  C   UNL d   1      28.303  15.453 -23.836  0.00  0.00     0.000 A 
ATOM     27  C   UNL d   1      28.628  15.547 -24.583  0.00  0.00     0.000 A 
ATOM     28  C   UNL d   1      29.051  16.219 -24.767  0.00  0.00     0.000 A 
ENDBRANCH   5  23
TORSDOF 4
ENDMDL
MODEL 2
REMARK VINA RESULT:       2.5      3.024      6.066
REMARK  4 active torsions:
REMARK  status: ('A' for Active; 'I' for Inactive)
REMARK    1  A    between atoms: N_10  and  C_3 
REMARK    2  A    between atoms: C_13  and  C_5 
REMARK    3  A    between atoms: C_12  and  C_9 
REMARK    4  A    between atoms: C_19  and  N_11 
ROOT
ATOM      1  N   UNL d   1      32.753  20.796 -22.204  0.00  0.00    -0.196 N 
ATOM      2  C   UNL d   1      32.683  21.522 -21.813  0.00  0.00     0.167 A 
ATOM      3  C   UNL d   1      32.800  20.786 -23.018  0.00  0.00     0.152 A 
ATOM      4  N   UNL d   1      32.728  20.139 -20.961  0.00  0.00    -0.163 NA
ATOM      5  C   UNL d   1      32.636  21.551 -21.009  0.00  0.00     0.055 A 
ATOM      6  N   UNL d   1      32.661  22.219 -22.246  0.00  0.00    -0.231 NA
ATOM      7  C   UNL d   1      32.777  21.486 -23.454  0.00  0.00     0.052 A 
ATOM      8  C   UNL d   1      32.659  20.854 -20.576  0.00  0.00     0.104 A 
ATOM      9  C   UNL d   1      32.708  22.201 -23.069  0.00  0.00     0.063 A 
ATOM     10  C   UNL d   1      32.612  20.869 -19.764  0.00  0.00     0.023 C 
ENDROOT
BRANCH   3  11
ATOM     11  N   UNL d   1      32.872  20.036 -23.421  0.00  0.00    -0.286 N 
ATOM     12  C   UNL d   1      33.029  19.965 -24.247  0.00  0.00     0.101 A 
ATOM     13  C   UNL d   1      33.091  19.200 -24.596  0.00  0.00     0.100 A 
ATOM     14  N   UNL d   1      32.996  18.499 -24.123  0.00  0.00    -0.300 N 
ATOM     15  C   UNL d   1      32.839  18.580 -23.298  0.00  0.00     0.100 A 
ATOM     16  C   UNL d   1      32.775  19.353 -22.938  0.00  0.00     0.101 A 
BRANCH  14  17
ATOM     17  C   UNL d   1      33.057  17.730 -24.465  0.00  0.00     0.080 C 
ATOM     18  C   UNL d   1      32.391  17.208 -24.423  0.00  0.00     0.021 C 
ENDBRANCH  14  17
ENDBRANCH   3  11
BRANCH   9  19
ATOM     19  C   UNL d   1      32.685  22.926 -23.516  0.00  0.00     0.036 C 
ATOM     20  C   UNL d   1      32.658  23.644 -23.954  0.00  0.00     0.006 C 
ATOM     21  C   UNL d   1      33.241  23.051 -24.150  0.00  0.00     0.006 C 
ATOM     22  C   UNL d   1      32.105  23.514 -23.320  0.00  0.00     0.006 C 
ENDBRANCH   9  19
BRANCH   5  23
ATOM     23  C   UNL d   1      32.567  22.270 -20.622  0.00  0.00     0.004 A 
ATOM     24  C   UNL d   1      33.240  22.703 -20.455  0.00  0.00     0.000 A 
ATOM     25  C   UNL d   1      33.170  23.429 -20.064  0.00  0.00     0.000 A 
ATOM     26  C   UNL d   1      32.429  23.701 -19.852  0.00  0.00     0.000 A 
ATOM     27  C   UNL d   1      31.762  23.258 -20.025  0.00  0.00     0.000 A 
ATOM     28  C   UNL d   1      31.831  22.542 -20.410  0.00  0.00     0.000 A 
ENDBRANCH   5  23
TORSDOF 4
ENDMDL
MODEL 3
REMARK VINA RESULT:       3.3      4.053      6.286
REMARK  4 active torsions:
REMARK  status: ('A' for Active; 'I' for Inactive)
REMARK    1  A    between atoms: N_10  and  C_3 
REMARK    2  A    between atoms: C_13  and  C_5 
REMARK    3  A    between atoms: C_12  and  C_9 
REMARK    4  A    between atoms: C_19  and  N_11 
ROOT
ATOM      1  N   UNL d   1      32.607  21.622 -20.991  0.00  0.00    -0.196 N 
ATOM      2  C   UNL d   1      32.613  21.321 -21.762  0.00  0.00     0.167 A 
ATOM      3  C   UNL d   1      32.558  22.428 -20.880  0.00  0.00     0.152 A 
ATOM      4  N   UNL d   1      32.698  20.311 -20.491  0.00  0.00    -0.163 NA
ATOM      5  C   UNL d   1      32.661  20.527 -21.890  0.00  0.00     0.055 A 
ATOM      6  N   UNL d   1      32.570  21.834 -22.402  0.00  0.00    -0.231 NA
ATOM      7  C   UNL d   1      32.515  22.944 -21.522  0.00  0.00     0.052 A 
ATOM      8  C   UNL d   1      32.704  20.014 -21.250  0.00  0.00     0.104 A 
ATOM      9  C   UNL d   1      32.521  22.648 -22.281  0.00  0.00     0.063 A 
ATOM     10  C   UNL d   1      32.752  19.210 -21.366  0.00  0.00     0.023 C 
ENDROOT
BRANCH   3  11
ATOM     11  N   UNL d   1      32.553  22.739 -20.084  0.00  0.00    -0.286 N 
ATOM     12  C   UNL d   1      33.229  22.745 -19.581  0.00  0.00     0.101 A 
ATOM     13  C   UNL d   1      33.169  23.064 -18.804  0.00  0.00     0.100 A 
ATOM     14  N   UNL d   1      32.431  23.381 -18.521  0.00  0.00    -0.300 N 
ATOM     15  C   UNL d   1      31.759  23.371 -19.031  0.00  0.00     0.100 A 
ATOM     16  C   UNL d   1      31.815  23.048 -19.821  0.00  0.00     0.101 A 
BRANCH  14  17
ATOM     17  C   UNL d   1      32.364  23.702 -17.744  0.00  0.00     0.080 C 
ATOM     18  C   UNL d   1      32.468  23.191 -17.077  0.00  0.00     0.021 C 
ENDBRANCH  14  17
ENDBRANCH   3  11
BRANCH   9  19
ATOM     19  C   UNL d   1      32.476  23.177 -22.947  0.00  0.00     0.036 C 
ATOM     20  C   UNL d   1      32.427  23.702 -23.603  0.00  0.00     0.006 C 
ATOM     21  C   UNL d   1      33.153  23.276 -23.456  0.00  0.00     0.006 C 
ATOM     22  C   UNL d   1      31.755  23.600 -23.092  0.00  0.00     0.006 C 
ENDBRANCH   9  19
BRANCH   5  23
ATOM     23  C   UNL d   1      32.666  20.228 -22.654  0.00  0.00     0.004 A 
ATOM     24  C   UNL d   1      32.119  19.660 -22.866  0.00  0.00     0.000 A 
ATOM     25  C   UNL d   1      32.125  19.358 -23.637  0.00  0.00     0.000 A 
ATOM     26  C   UNL d   1      32.678  19.635 -24.173  0.00  0.00     0.000 A 
ATOM     27  C   UNL d   1      33.221  20.206 -23.947  0.00  0.00     0.000 A 
ATOM     28  C   UNL d   1      33.215  20.502 -23.187  0.00  0.00     0.000 A 
ENDBRANCH   5  23
TORSDOF 4
ENDMDL
