MODEL 1
REMARK VINA RESULT:      29.8      0.000      0.000
REMARK  3 active torsions:
REMARK  status: ('A' for Active; 'I' for Inactive)
REMARK    1  A    between atoms: N_5  and  C_2 
REMARK    2  A    between atoms: C_8  and  C_3 
REMARK       I    between atoms: C_7  and  N_5 
REMARK    3  A    between atoms: C_10  and  C_7 
ROOT
ATOM      1  N   UNL d   1     -57.082 -99.771 -44.903  0.00  0.00    -0.200 NA
ATOM      2  C   UNL d   1     -56.265 -99.685 -44.870  0.00  0.00     0.216 A 
ATOM      3  C   UNL d   1     -57.417 -99.192 -44.404  0.00  0.00     0.172 A 
ATOM      4  N   UNL d   1     -56.788 -98.760 -44.073  0.00  0.00    -0.187 NA
ATOM      5  S   UNL d   1     -56.081 -99.072 -44.367  0.00  0.00     0.054 SA
ENDROOT
BRANCH   2   6
ATOM      6  N   UNL d   1     -55.707-100.153 -45.286  0.00  0.00    -0.181 NA
ATOM      7  C   UNL d   1     -55.258-100.721 -44.899  0.00  0.00     0.281 C 
ATOM      8  O   UNL d   1     -54.714-101.172 -45.323  0.00  0.00    -0.265 OA
BRANCH   7   9
ATOM      9  C   UNL d   1     -55.352-100.837 -44.089  0.00  0.00     0.058 C 
ATOM     10  C   UNL d   1     -55.199-100.223 -43.560  0.00  0.00     0.005 C 
ATOM     11  C   UNL d   1     -55.601-101.571 -43.807  0.00  0.00     0.005 C 
ENDBRANCH   7   9
ENDBRANCH   2   6
BRANCH   3  12
ATOM     12  C   UNL d   1     -58.214 -99.048 -44.246  0.00  0.00     0.036 A 
ATOM     13  C   UNL d   1     -58.475 -98.958 -43.462  0.00  0.00     0.003 A 
ATOM     14  C   UNL d   1     -59.271 -98.814 -43.304  0.00  0.00     0.000 A 
ATOM     15  C   UNL d   1     -59.816 -98.757 -43.929  0.00  0.00     0.000 A 
ATOM     16  C   UNL d   1     -59.555 -98.847 -44.713  0.00  0.00     0.000 A 
ATOM     17  C   UNL d   1     -58.758 -98.991 -44.871  0.00  0.00     0.003 A 
ENDBRANCH   3  12
TORSDOF 3
ENDMDL
MODEL 2
REMARK VINA RESULT:      32.0      6.335      7.314
REMARK  3 active torsions:
REMARK  status: ('A' for Active; 'I' for Inactive)
REMARK    1  A    between atoms: N_5  and  C_2 
REMARK    2  A    between atoms: C_8  and  C_3 
REMARK       I    between atoms: C_7  and  N_5 
REMARK    3  A    between atoms: C_10  and  C_7 
ROOT
ATOM      1  N   UNL d   1     -55.978-102.815 -38.385  0.00  0.00    -0.200 NA
ATOM      2  C   UNL d   1     -55.522-102.759 -39.068  0.00  0.00     0.216 A 
ATOM      3  C   UNL d   1     -55.479-102.657 -37.735  0.00  0.00     0.172 A 
ATOM      4  N   UNL d   1     -54.720-102.505 -38.040  0.00  0.00    -0.187 NA
ATOM      5  S   UNL d   1     -54.758-102.570 -38.863  0.00  0.00     0.054 SA
ENDROOT
BRANCH   2   6
ATOM      6  N   UNL d   1     -55.798-102.876 -39.850  0.00  0.00    -0.181 NA
ATOM      7  C   UNL d   1     -55.548-102.393 -40.465  0.00  0.00     0.281 C 
ATOM      8  O   UNL d   1     -55.829-102.522 -41.229  0.00  0.00    -0.265 OA
BRANCH   7   9
ATOM      9  C   UNL d   1     -55.016-101.781 -40.316  0.00  0.00     0.058 C 
ATOM     10  C   UNL d   1     -54.786-101.609 -39.543  0.00  0.00     0.005 C 
ATOM     11  C   UNL d   1     -54.715-101.339 -40.943  0.00  0.00     0.005 C 
ENDBRANCH   7   9
ENDBRANCH   2   6
BRANCH   3  12
ATOM     12  C   UNL d   1     -55.668-102.644 -36.933  0.00  0.00     0.036 A 
ATOM     13  C   UNL d   1     -56.449-102.496 -36.689  0.00  0.00     0.003 A 
ATOM     14  C   UNL d   1     -56.638-102.483 -35.887  0.00  0.00     0.000 A 
ATOM     15  C   UNL d   1     -56.048-102.619 -35.318  0.00  0.00     0.000 A 
ATOM     16  C   UNL d   1     -55.267-102.767 -35.561  0.00  0.00     0.000 A 
ATOM     17  C   UNL d   1     -55.078-102.779 -36.364  0.00  0.00     0.003 A 
ENDBRANCH   3  12
TORSDOF 3
ENDMDL
