MODEL 1
REMARK VINA RESULT:      -8.6      0.000      0.000
REMARK  6 active torsions:
REMARK  status: ('A' for Active; 'I' for Inactive)
REMARK       I    between atoms: C_2  and  N_1 
REMARK    1  A    between atoms: C_15  and  C_2 
REMARK    2  A    between atoms: C_3  and  C_4 
REMARK    3  A    between atoms: C_9  and  O_14 
REMARK    4  A    between atoms: O_14  and  C_21 
REMARK    5  A    between atoms: C_22  and  C_15 
REMARK    6  A    between atoms: C_21  and  C_22 
ROOT
ATOM      1  O   UNL d   1      51.415  34.036  52.438  0.00  0.00    -0.305 OA
ENDROOT
BRANCH   1   2
ATOM      2  C   UNL d   1      52.051  33.771  52.885  0.00  0.00     0.100 A 
ATOM      3  C   UNL d   1      52.553  34.311  53.262  0.00  0.00     0.024 A 
ATOM      4  C   UNL d   1      53.190  34.058  53.710  0.00  0.00    -0.002 A 
ATOM      5  C   UNL d   1      53.339  33.239  53.790  0.00  0.00    -0.023 A 
ATOM      6  C   UNL d   1      52.847  32.696  53.420  0.00  0.00    -0.002 A 
ATOM      7  C   UNL d   1      52.199  32.951  52.965  0.00  0.00     0.024 A 
BRANCH   5   8
ATOM      8  C   UNL d   1      53.977  32.982  54.239  0.00  0.00     0.019 C 
ATOM      9  C   UNL d   1      54.685  32.777  53.876  0.00  0.00     0.004 C 
ATOM     10  C   UNL d   1      53.907  32.929  55.063  0.00  0.00     0.004 C 
ATOM     11  C   UNL d   1      54.246  32.964  53.457  0.00  0.00     0.004 C 
ENDBRANCH   5   8
ENDBRANCH   1   2
BRANCH   1  12
ATOM     12  C   UNL d   1      50.706  34.239  52.818  0.00  0.00     0.123 C 
BRANCH  12  13
ATOM     13  C   UNL d   1      50.045  34.438  52.368  0.00  0.00     0.032 C 
BRANCH  13  14
ATOM     14  C   UNL d   1      49.443  34.885  52.704  0.00  0.00     0.063 C 
BRANCH  14  15
ATOM     15  C   UNL d   1      48.795  35.107  52.241  0.00  0.00     0.265 C 
ATOM     16  N   UNL d   1      48.234  35.638  52.542  0.00  0.00    -0.268 N 
ATOM     17  C   UNL d   1      47.584  35.867  52.089  0.00  0.00     0.110 A 
ATOM     18  C   UNL d   1      48.330  35.946  53.314  0.00  0.00     0.110 A 
ATOM     19  C   UNL d   1      47.035  36.391  52.391  0.00  0.00     0.142 A 
ATOM     20  O   UNL d   1      47.131  36.699  53.163  0.00  0.00    -0.300 OA
ATOM     21  C   UNL d   1      47.773  36.472  53.607  0.00  0.00     0.142 A 
ATOM     22  O   UNL d   1      48.699  34.802  51.476  0.00  0.00    -0.267 OA
ENDBRANCH  14  15
ENDBRANCH  13  14
ENDBRANCH  12  13
ENDBRANCH   1  12
TORSDOF 6
ENDMDL
MODEL 2
REMARK VINA RESULT:      -7.2      0.906      1.318
REMARK  6 active torsions:
REMARK  status: ('A' for Active; 'I' for Inactive)
REMARK       I    between atoms: C_2  and  N_1 
REMARK    1  A    between atoms: C_15  and  C_2 
REMARK    2  A    between atoms: C_3  and  C_4 
REMARK    3  A    between atoms: C_9  and  O_14 
REMARK    4  A    between atoms: O_14  and  C_21 
REMARK    5  A    between atoms: C_22  and  C_15 
REMARK    6  A    between atoms: C_21  and  C_22 
ROOT
ATOM      1  O   UNL d   1      51.384  34.674  53.229  0.00  0.00    -0.305 OA
ENDROOT
BRANCH   1   2
ATOM      2  C   UNL d   1      51.944  34.077  53.288  0.00  0.00     0.100 A 
ATOM      3  C   UNL d   1      52.351  33.952  54.000  0.00  0.00     0.024 A 
ATOM      4  C   UNL d   1      52.912  33.360  54.070  0.00  0.00    -0.002 A 
ATOM      5  C   UNL d   1      53.080  32.869  53.413  0.00  0.00    -0.023 A 
ATOM      6  C   UNL d   1      52.682  32.986  52.705  0.00  0.00    -0.002 A 
ATOM      7  C   UNL d   1      52.113  33.586  52.631  0.00  0.00     0.024 A 
BRANCH   5   8
ATOM      8  C   UNL d   1      53.643  32.275  53.481  0.00  0.00     0.019 C 
ATOM      9  C   UNL d   1      53.424  31.487  53.412  0.00  0.00     0.004 C 
ATOM     10  C   UNL d   1      54.436  32.472  53.620  0.00  0.00     0.004 C 
ATOM     11  C   UNL d   1      52.929  31.879  53.347  0.00  0.00     0.004 C 
ENDBRANCH   5   8
ENDBRANCH   1   2
BRANCH   1  12
ATOM     12  C   UNL d   1      50.610  34.485  52.999  0.00  0.00     0.123 C 
BRANCH  12  13
ATOM     13  C   UNL d   1      49.998  35.014  53.158  0.00  0.00     0.032 C 
BRANCH  13  14
ATOM     14  C   UNL d   1      49.312  34.990  52.704  0.00  0.00     0.063 C 
BRANCH  14  15
ATOM     15  C   UNL d   1      48.682  35.490  52.895  0.00  0.00     0.265 C 
ATOM     16  N   UNL d   1      48.052  35.582  52.365  0.00  0.00    -0.268 N 
ATOM     17  C   UNL d   1      47.418  36.077  52.543  0.00  0.00     0.110 A 
ATOM     18  C   UNL d   1      48.060  35.165  51.639  0.00  0.00     0.110 A 
ATOM     19  C   UNL d   1      46.799  36.164  52.017  0.00  0.00     0.142 A 
ATOM     20  O   UNL d   1      46.807  35.747  51.291  0.00  0.00    -0.300 OA
ATOM     21  C   UNL d   1      47.434  35.258  51.117  0.00  0.00     0.142 A 
ATOM     22  O   UNL d   1      48.674  35.903  53.613  0.00  0.00    -0.267 OA
ENDBRANCH  14  15
ENDBRANCH  13  14
ENDBRANCH  12  13
ENDBRANCH   1  12
TORSDOF 6
ENDMDL
MODEL 3
REMARK VINA RESULT:      -6.7      1.600      5.743
REMARK  6 active torsions:
REMARK  status: ('A' for Active; 'I' for Inactive)
REMARK       I    between atoms: C_2  and  N_1 
REMARK    1  A    between atoms: C_15  and  C_2 
REMARK    2  A    between atoms: C_3  and  C_4 
REMARK    3  A    between atoms: C_9  and  O_14 
REMARK    4  A    between atoms: O_14  and  C_21 
REMARK    5  A    between atoms: C_22  and  C_15 
REMARK    6  A    between atoms: C_21  and  C_22 
ROOT
ATOM      1  O   UNL d   1      50.098  34.460  51.975  0.00  0.00    -0.305 OA
ENDROOT
BRANCH   1   2
ATOM      2  C   UNL d   1      49.370  34.833  52.045  0.00  0.00     0.100 A 
ATOM      3  C   UNL d   1      48.841  34.843  51.407  0.00  0.00     0.024 A 
ATOM      4  C   UNL d   1      48.112  35.212  51.465  0.00  0.00    -0.002 A 
ATOM      5  C   UNL d   1      47.894  35.586  52.181  0.00  0.00    -0.023 A 
ATOM      6  C   UNL d   1      48.411  35.581  52.818  0.00  0.00    -0.002 A 
ATOM      7  C   UNL d   1      49.152  35.207  52.761  0.00  0.00     0.024 A 
BRANCH   5   8
ATOM      8  C   UNL d   1      47.163  35.956  52.242  0.00  0.00     0.019 C 
ATOM      9  C   UNL d   1      47.105  36.709  52.564  0.00  0.00     0.004 C 
ATOM     10  C   UNL d   1      46.481  35.568  51.976  0.00  0.00     0.004 C 
ATOM     11  C   UNL d   1      47.703  36.498  52.555  0.00  0.00     0.004 C 
ENDBRANCH   5   8
ENDBRANCH   1   2
BRANCH   1  12
ATOM     12  C   UNL d   1      50.520  34.259  52.660  0.00  0.00     0.123 C 
BRANCH  12  13
ATOM     13  C   UNL d   1      51.192  33.785  52.599  0.00  0.00     0.032 C 
BRANCH  13  14
ATOM     14  C   UNL d   1      51.776  33.831  53.177  0.00  0.00     0.063 C 
BRANCH  14  15
ATOM     15  C   UNL d   1      52.413  33.306  53.153  0.00  0.00     0.265 C 
ATOM     16  N   UNL d   1      53.035  33.384  53.695  0.00  0.00    -0.268 N 
ATOM     17  C   UNL d   1      53.676  32.866  53.680  0.00  0.00     0.110 A 
ATOM     18  C   UNL d   1      53.011  33.997  54.264  0.00  0.00     0.110 A 
ATOM     19  C   UNL d   1      54.286  32.948  54.217  0.00  0.00     0.142 A 
ATOM     20  O   UNL d   1      54.262  33.561  54.786  0.00  0.00    -0.300 OA
ATOM     21  C   UNL d   1      53.629  34.071  54.798  0.00  0.00     0.142 A 
ATOM     22  O   UNL d   1      52.437  32.698  52.589  0.00  0.00    -0.267 OA
ENDBRANCH  14  15
ENDBRANCH  13  14
ENDBRANCH  12  13
ENDBRANCH   1  12
TORSDOF 6
ENDMDL
