MODEL 1
REMARK VINA RESULT:      -2.3      0.000      0.000
REMARK  2 active torsions:
REMARK  status: ('A' for Active; 'I' for Inactive)
REMARK    1  A    between atoms: C_10  and  C_5 
REMARK    2  A    between atoms: O_22  and  C_15 
ROOT
ATOM      1  C   UNL d   1      31.350  15.992 -23.558  0.00  0.00     0.120 A 
ATOM      2  C   UNL d   1      31.796  16.673 -23.687  0.00  0.00     0.058 A 
ATOM      3  N   UNL d   1      31.828  15.453 -23.158  0.00  0.00    -0.195 NA
ATOM      4  S   UNL d   1      30.575  15.951 -23.818  0.00  0.00    -0.072 SA
ATOM      5  C   UNL d   1      31.466  17.311 -24.076  0.00  0.00     0.005 A 
ATOM      6  C   UNL d   1      30.243  16.589 -24.208  0.00  0.00     0.009 A 
ATOM      7  C   UNL d   1      30.688  17.274 -24.339  0.00  0.00    -0.015 A 
ATOM      8  C   UNL d   1      32.571  15.799 -23.038  0.00  0.00     0.311 A 
ATOM      9  S   UNL d   1      32.546  16.561 -23.370  0.00  0.00    -0.024 SA
ATOM     10  C   UNL d   1      30.351  17.917 -24.732  0.00  0.00     0.045 A 
ATOM     11  C   UNL d   1      29.463  16.549 -24.470  0.00  0.00     0.050 A 
ATOM     12  C   UNL d   1      30.077  17.097 -24.483  0.00  0.00     0.018 A 
ATOM     13  O   UNL d   1      33.223  15.457 -22.659  0.00  0.00    -0.258 OA
ATOM     14  C   UNL d   1      29.571  17.876 -24.995  0.00  0.00    -0.026 A 
ATOM     15  C   UNL d   1      29.126  17.191 -24.864  0.00  0.00    -0.026 A 
ENDROOT
BRANCH   5  16
ATOM     16  C   UNL d   1      31.906  17.987 -24.204  0.00  0.00     0.002 A 
ATOM     17  C   UNL d   1      32.062  18.500 -23.586  0.00  0.00     0.028 A 
ATOM     18  C   UNL d   1      32.505  19.181 -23.713  0.00  0.00     0.133 A 
ATOM     19  C   UNL d   1      32.796  19.352 -24.470  0.00  0.00     0.218 A 
ATOM     20  C   UNL d   1      32.636  18.830 -25.097  0.00  0.00     0.044 A 
ATOM     21  O   UNL d   1      33.240  20.034 -24.603  0.00  0.00    -0.284 OA
ATOM     22  C   UNL d   1      32.194  18.151 -24.966  0.00  0.00     0.003 A 
BRANCH  18  23
ATOM     23  O   UNL d   1      32.662  19.698 -23.089  0.00  0.00    -0.325 OA
ATOM     24  C   UNL d   1      33.094  19.438 -22.434  0.00  0.00     0.181 C 
ENDBRANCH  18  23
ENDBRANCH   5  16
TORSDOF 2
ENDMDL
MODEL 2
REMARK VINA RESULT:      -2.3      1.264      2.355
REMARK  2 active torsions:
REMARK  status: ('A' for Active; 'I' for Inactive)
REMARK    1  A    between atoms: C_10  and  C_5 
REMARK    2  A    between atoms: O_22  and  C_15 
ROOT
ATOM      1  C   UNL d   1      30.453  16.693 -24.226  0.00  0.00     0.120 A 
ATOM      2  C   UNL d   1      30.851  17.407 -24.339  0.00  0.00     0.058 A 
ATOM      3  N   UNL d   1      29.673  16.801 -24.469  0.00  0.00    -0.195 NA
ATOM      4  S   UNL d   1      30.848  16.044 -23.921  0.00  0.00    -0.072 SA
ATOM      5  C   UNL d   1      31.642  17.469 -24.145  0.00  0.00     0.005 A 
ATOM      6  C   UNL d   1      31.640  16.105 -23.727  0.00  0.00     0.009 A 
ATOM      7  C   UNL d   1      32.042  16.819 -23.838  0.00  0.00    -0.015 A 
ATOM      8  C   UNL d   1      29.586  17.582 -24.732  0.00  0.00     0.311 A 
ATOM      9  S   UNL d   1      30.324  17.956 -24.649  0.00  0.00    -0.024 SA
ATOM     10  C   UNL d   1      32.842  16.879 -23.642  0.00  0.00     0.045 A 
ATOM     11  C   UNL d   1      32.038  15.453 -23.420  0.00  0.00     0.050 A 
ATOM     12  C   UNL d   1      32.216  16.233 -23.612  0.00  0.00     0.018 A 
ATOM     13  O   UNL d   1      28.896  17.934 -25.025  0.00  0.00    -0.258 OA
ATOM     14  C   UNL d   1      33.240  16.226 -23.335  0.00  0.00    -0.026 A 
ATOM     15  C   UNL d   1      32.838  15.512 -23.223  0.00  0.00    -0.026 A 
ENDROOT
BRANCH   5  16
ATOM     16  C   UNL d   1      32.038  18.175 -24.255  0.00  0.00     0.002 A 
ATOM     17  C   UNL d   1      32.074  18.725 -23.651  0.00  0.00     0.028 A 
ATOM     18  C   UNL d   1      32.472  19.436 -23.760  0.00  0.00     0.133 A 
ATOM     19  C   UNL d   1      32.840  19.599 -24.484  0.00  0.00     0.218 A 
ATOM     20  C   UNL d   1      32.803  19.040 -25.097  0.00  0.00     0.044 A 
ATOM     21  O   UNL d   1      33.240  20.311 -24.598  0.00  0.00    -0.284 OA
ATOM     22  C   UNL d   1      32.405  18.330 -24.985  0.00  0.00     0.003 A 
BRANCH  18  23
ATOM     23  O   UNL d   1      32.507  19.991 -23.149  0.00  0.00    -0.325 OA
ATOM     24  C   UNL d   1      32.916  19.816 -22.453  0.00  0.00     0.181 C 
ENDBRANCH  18  23
ENDBRANCH   5  16
TORSDOF 2
ENDMDL
MODEL 3
REMARK VINA RESULT:      -0.2      1.916      3.359
REMARK  2 active torsions:
REMARK  status: ('A' for Active; 'I' for Inactive)
REMARK    1  A    between atoms: C_10  and  C_5 
REMARK    2  A    between atoms: O_22  and  C_15 
ROOT
ATOM      1  C   UNL d   1      32.694  18.034 -23.792  0.00  0.00     0.120 A 
ATOM      2  C   UNL d   1      31.871  18.007 -23.851  0.00  0.00     0.058 A 
ATOM      3  N   UNL d   1      32.895  18.747 -23.431  0.00  0.00    -0.195 NA
ATOM      4  S   UNL d   1      33.148  17.413 -24.072  0.00  0.00    -0.072 SA
ATOM      5  C   UNL d   1      31.507  17.359 -24.190  0.00  0.00     0.005 A 
ATOM      6  C   UNL d   1      32.784  16.764 -24.412  0.00  0.00     0.009 A 
ATOM      7  C   UNL d   1      31.960  16.734 -24.472  0.00  0.00    -0.015 A 
ATOM      8  C   UNL d   1      32.198  19.163 -23.265  0.00  0.00     0.311 A 
ATOM      9  S   UNL d   1      31.561  18.697 -23.529  0.00  0.00    -0.024 SA
ATOM     10  C   UNL d   1      31.594  16.078 -24.815  0.00  0.00     0.045 A 
ATOM     11  C   UNL d   1      33.241  16.139 -24.694  0.00  0.00     0.050 A 
ATOM     12  C   UNL d   1      32.441  16.329 -24.644  0.00  0.00     0.018 A 
ATOM     13  O   UNL d   1      32.136  19.905 -22.903  0.00  0.00    -0.258 OA
ATOM     14  C   UNL d   1      32.051  15.453 -25.097  0.00  0.00    -0.026 A 
ATOM     15  C   UNL d   1      32.875  15.483 -25.036  0.00  0.00    -0.026 A 
ENDROOT
BRANCH   5  16
ATOM     16  C   UNL d   1      30.693  17.330 -24.249  0.00  0.00     0.002 A 
ATOM     17  C   UNL d   1      30.250  16.968 -23.664  0.00  0.00     0.028 A 
ATOM     18  C   UNL d   1      29.431  16.937 -23.721  0.00  0.00     0.133 A 
ATOM     19  C   UNL d   1      29.048  17.274 -24.374  0.00  0.00     0.218 A 
ATOM     20  C   UNL d   1      29.498  17.642 -24.968  0.00  0.00     0.044 A 
ATOM     21  O   UNL d   1      28.226  17.246 -24.436  0.00  0.00    -0.284 OA
ATOM     22  C   UNL d   1      30.316  17.670 -24.907  0.00  0.00     0.003 A 
BRANCH  18  23
ATOM     23  O   UNL d   1      28.986  16.571 -23.130  0.00  0.00    -0.325 OA
ATOM     24  C   UNL d   1      29.145  15.790 -22.914  0.00  0.00     0.181 C 
ENDBRANCH  18  23
ENDBRANCH   5  16
TORSDOF 2
ENDMDL
