MODEL 1
REMARK VINA RESULT:      -5.1      0.000      0.000
REMARK  5 active torsions:
REMARK  status: ('A' for Active; 'I' for Inactive)
REMARK    1  A    between atoms: C_3  and  C_1 
REMARK    2  A    between atoms: C_6  and  C_1 
REMARK    3  A    between atoms: C_2  and  C_3 
REMARK       I    between atoms: N_4  and  C_2 
REMARK    4  A    between atoms: C_12  and  N_4 
REMARK    5  A    between atoms: N_7  and  C_5 
ROOT
ATOM      1  C   UNL d   1     -41.376-121.849 -51.730  0.00  0.00     0.328 C 
ATOM      2  N   UNL d   1     -41.546-122.195 -51.002  0.00  0.00    -0.365 NA
ATOM      3  O   UNL d   1     -41.283-121.031 -51.787  0.00  0.00    -0.251 OA
ENDROOT
BRANCH   1   4
ATOM      4  C   UNL d   1     -41.299-122.321 -52.400  0.00  0.00     0.076 C 
BRANCH   4   5
ATOM      5  C   UNL d   1     -41.730-122.142 -53.079  0.00  0.00     0.007 C 
BRANCH   5   6
ATOM      6  C   UNL d   1     -41.622-122.589 -53.767  0.00  0.00     0.011 A 
ATOM      7  C   UNL d   1     -41.908-122.308 -54.492  0.00  0.00     0.058 A 
ATOM      8 CL   UNL d   1     -42.300-121.584 -54.529  0.00  0.00    -0.082 Cl
ATOM      9  C   UNL d   1     -41.799-122.757 -55.181  0.00  0.00     0.011 A 
ATOM     10  C   UNL d   1     -41.406-123.483 -55.141  0.00  0.00     0.001 A 
ATOM     11  C   UNL d   1     -41.125-123.755 -54.415  0.00  0.00     0.000 A 
ATOM     12  C   UNL d   1     -41.231-123.312 -53.730  0.00  0.00     0.001 A 
ENDBRANCH   5   6
ENDBRANCH   4   5
ENDBRANCH   1   4
BRANCH   2  13
ATOM     13  C   UNL d   1     -41.716-122.541 -50.275  0.00  0.00     0.135 A 
ATOM     14  C   UNL d   1     -42.450-122.401 -49.920  0.00  0.00     0.034 A 
ATOM     15  C   UNL d   1     -42.620-122.746 -49.193  0.00  0.00     0.020 A 
ATOM     16  C   UNL d   1     -42.056-123.233 -48.820  0.00  0.00     0.064 A 
ATOM     17  C   UNL d   1     -41.327-123.369 -49.178  0.00  0.00     0.020 A 
ATOM     18  C   UNL d   1     -41.157-123.023 -49.906  0.00  0.00     0.034 A 
BRANCH  16  19
ATOM     19  N   UNL d   1     -42.231-123.580 -48.086  0.00  0.00    -0.301 N 
ATOM     20  C   UNL d   1     -43.006-123.817 -47.920  0.00  0.00     0.100 C 
ATOM     21  C   UNL d   1     -41.631-123.686 -47.529  0.00  0.00     0.100 C 
ENDBRANCH  16  19
ENDBRANCH   2  13
TORSDOF 5
ENDMDL
MODEL 2
REMARK VINA RESULT:      -4.2      1.817      5.203
REMARK  5 active torsions:
REMARK  status: ('A' for Active; 'I' for Inactive)
REMARK    1  A    between atoms: C_3  and  C_1 
REMARK    2  A    between atoms: C_6  and  C_1 
REMARK    3  A    between atoms: C_2  and  C_3 
REMARK       I    between atoms: N_4  and  C_2 
REMARK    4  A    between atoms: C_12  and  N_4 
REMARK    5  A    between atoms: N_7  and  C_5 
ROOT
ATOM      1  C   UNL d   1     -41.584-121.990 -51.313  0.00  0.00     0.328 C 
ATOM      2  N   UNL d   1     -41.690-122.042 -52.129  0.00  0.00    -0.365 NA
ATOM      3  O   UNL d   1     -41.123-121.385 -50.994  0.00  0.00    -0.251 OA
ENDROOT
BRANCH   1   4
ATOM      4  C   UNL d   1     -41.938-122.544 -50.818  0.00  0.00     0.076 C 
BRANCH   4   5
ATOM      5  C   UNL d   1     -41.739-122.565 -50.019  0.00  0.00     0.007 C 
BRANCH   5   6
ATOM      6  C   UNL d   1     -42.215-122.983 -49.486  0.00  0.00     0.011 A 
ATOM      7  C   UNL d   1     -41.912-123.202 -48.746  0.00  0.00     0.058 A 
ATOM      8 CL   UNL d   1     -41.139-123.004 -48.540  0.00  0.00    -0.082 Cl
ATOM      9  C   UNL d   1     -42.390-123.621 -48.212  0.00  0.00     0.011 A 
ATOM     10  C   UNL d   1     -43.165-123.817 -48.420  0.00  0.00     0.001 A 
ATOM     11  C   UNL d   1     -43.458-123.596 -49.159  0.00  0.00     0.000 A 
ATOM     12  C   UNL d   1     -42.987-123.180 -49.691  0.00  0.00     0.001 A 
ENDBRANCH   5   6
ENDBRANCH   4   5
ENDBRANCH   1   4
BRANCH   2  13
ATOM     13  C   UNL d   1     -41.796-122.094 -52.943  0.00  0.00     0.135 A 
ATOM     14  C   UNL d   1     -42.254-121.524 -53.330  0.00  0.00     0.034 A 
ATOM     15  C   UNL d   1     -42.361-121.576 -54.144  0.00  0.00     0.020 A 
ATOM     16  C   UNL d   1     -42.009-122.198 -54.572  0.00  0.00     0.064 A 
ATOM     17  C   UNL d   1     -41.554-122.762 -54.182  0.00  0.00     0.020 A 
ATOM     18  C   UNL d   1     -41.448-122.710 -53.367  0.00  0.00     0.034 A 
BRANCH  16  19
ATOM     19  N   UNL d   1     -42.118-122.247 -55.395  0.00  0.00    -0.301 N 
ATOM     20  C   UNL d   1     -41.585-121.868 -55.902  0.00  0.00     0.100 C 
ATOM     21  C   UNL d   1     -42.756-122.672 -55.699  0.00  0.00     0.100 C 
ENDBRANCH  16  19
ENDBRANCH   2  13
TORSDOF 5
ENDMDL
