MODEL 1
REMARK VINA RESULT:      -9.1      0.000      0.000
REMARK  5 active torsions:
REMARK  status: ('A' for Active; 'I' for Inactive)
REMARK    1  A    between atoms: C_12  and  S_1 
REMARK    2  A    between atoms: N_13  and  S_1 
REMARK    3  A    between atoms: C_2  and  N_6 
REMARK    4  A    between atoms: C_5  and  C_3 
REMARK       I    between atoms: N_6  and  C_8 
REMARK    5  A    between atoms: C_8  and  C_18 
ROOT
ATOM      1  N   UNL d   1      50.198  33.841  52.992  0.00  0.00    -0.183 NA
ATOM      2  C   UNL d   1      50.076  34.341  52.354  0.00  0.00     0.281 C 
ATOM      3  O   UNL d   1      50.699  34.489  51.827  0.00  0.00    -0.265 OA
ENDROOT
BRANCH   1   4
ATOM      4  C   UNL d   1      50.927  33.487  53.112  0.00  0.00     0.197 A 
ATOM      5  N   UNL d   1      51.554  33.802  53.545  0.00  0.00    -0.218 NA
ATOM      6  C   UNL d   1      52.177  33.260  53.519  0.00  0.00     0.113 A 
ATOM      7  C   UNL d   1      51.937  32.610  53.070  0.00  0.00     0.059 A 
ATOM      8  S   UNL d   1      51.167  32.754  52.821  0.00  0.00    -0.046 SA
BRANCH   6   9
ATOM      9  C   UNL d   1      52.911  33.352  53.878  0.00  0.00     0.118 A 
ATOM     10  O   UNL d   1      53.091  33.505  54.627  0.00  0.00    -0.306 OA
ATOM     11  C   UNL d   1      53.860  33.560  54.796  0.00  0.00     0.100 A 
ATOM     12  C   UNL d   1      54.319  33.706  55.470  0.00  0.00     0.025 A 
ATOM     13  C   UNL d   1      54.236  33.426  54.062  0.00  0.00     0.025 A 
ATOM     14  C   UNL d   1      55.140  33.719  55.418  0.00  0.00     0.002 A 
ATOM     15  C   UNL d   1      55.525  33.586  54.687  0.00  0.00     0.000 A 
ATOM     16  C   UNL d   1      55.063  33.440  54.016  0.00  0.00     0.002 A 
ATOM     17  C   UNL d   1      53.645  33.298  53.501  0.00  0.00     0.028 A 
ENDBRANCH   6   9
ENDBRANCH   1   4
BRANCH   2  18
ATOM     18  C   UNL d   1      49.342  34.698  52.233  0.00  0.00     0.058 A 
ATOM     19  C   UNL d   1      48.946  34.595  51.517  0.00  0.00     0.005 A 
ATOM     20  C   UNL d   1      48.220  34.950  51.402  0.00  0.00     0.013 A 
ATOM     21  C   UNL d   1      47.878  35.414  52.004  0.00  0.00     0.104 A 
ATOM     22  C   UNL d   1      48.285  35.509  52.718  0.00  0.00     0.013 A 
ATOM     23  C   UNL d   1      49.009  35.154  52.830  0.00  0.00     0.005 A 
BRANCH  21  24
ATOM     24  S   UNL d   1      47.141  35.773  51.884  0.00  0.00     0.271 S 
ATOM     25  O   UNL d   1      46.881  35.099  51.495  0.00  0.00    -0.200 OA
ATOM     26  O   UNL d   1      47.404  36.450  52.276  0.00  0.00    -0.200 OA
BRANCH  24  27
ATOM     27  N   UNL d   1      46.409  36.128  51.765  0.00  0.00    -0.226 N 
ATOM     28  C   UNL d   1      46.148  36.708  52.284  0.00  0.00     0.111 C 
ATOM     29  C   UNL d   1      45.942  35.904  51.130  0.00  0.00     0.111 C 
ENDBRANCH  24  27
ENDBRANCH  21  24
ENDBRANCH   2  18
TORSDOF 5
ENDMDL
MODEL 2
REMARK VINA RESULT:      -9.0      1.368      1.999
REMARK  5 active torsions:
REMARK  status: ('A' for Active; 'I' for Inactive)
REMARK    1  A    between atoms: C_12  and  S_1 
REMARK    2  A    between atoms: N_13  and  S_1 
REMARK    3  A    between atoms: C_2  and  N_6 
REMARK    4  A    between atoms: C_5  and  C_3 
REMARK       I    between atoms: N_6  and  C_8 
REMARK    5  A    between atoms: C_8  and  C_18 
ROOT
ATOM      1  N   UNL d   1      50.332  34.468  52.888  0.00  0.00    -0.183 NA
ATOM      2  C   UNL d   1      49.904  34.486  52.189  0.00  0.00     0.281 C 
ATOM      3  O   UNL d   1      50.218  34.131  51.509  0.00  0.00    -0.265 OA
ENDROOT
BRANCH   1   4
ATOM      4  C   UNL d   1      51.064  34.102  52.919  0.00  0.00     0.197 A 
ATOM      5  N   UNL d   1      51.201  33.297  53.027  0.00  0.00    -0.218 NA
ATOM      6  C   UNL d   1      52.018  33.175  53.022  0.00  0.00     0.113 A 
ATOM      7  C   UNL d   1      52.388  33.904  52.910  0.00  0.00     0.059 A 
ATOM      8  S   UNL d   1      51.798  34.473  52.847  0.00  0.00    -0.046 SA
BRANCH   6   9
ATOM      9  C   UNL d   1      52.399  32.452  53.112  0.00  0.00     0.118 A 
ATOM     10  O   UNL d   1      52.181  31.734  52.879  0.00  0.00    -0.306 OA
ATOM     11  C   UNL d   1      52.677  31.146  53.054  0.00  0.00     0.100 A 
ATOM     12  C   UNL d   1      52.703  30.326  52.937  0.00  0.00     0.025 A 
ATOM     13  C   UNL d   1      53.304  31.526  53.454  0.00  0.00     0.025 A 
ATOM     14  C   UNL d   1      53.342  29.888  53.213  0.00  0.00     0.002 A 
ATOM     15  C   UNL d   1      53.975  30.259  53.615  0.00  0.00     0.000 A 
ATOM     16  C   UNL d   1      53.945  31.079  53.730  0.00  0.00     0.002 A 
ATOM     17  C   UNL d   1      53.126  32.330  53.486  0.00  0.00     0.028 A 
ENDBRANCH   6   9
ENDBRANCH   1   4
BRANCH   2  18
ATOM     18  C   UNL d   1      49.166  34.854  52.158  0.00  0.00     0.058 A 
ATOM     19  C   UNL d   1      48.862  35.229  52.826  0.00  0.00     0.005 A 
ATOM     20  C   UNL d   1      48.132  35.592  52.790  0.00  0.00     0.013 A 
ATOM     21  C   UNL d   1      47.693  35.584  52.082  0.00  0.00     0.104 A 
ATOM     22  C   UNL d   1      48.008  35.204  51.418  0.00  0.00     0.013 A 
ATOM     23  C   UNL d   1      48.737  34.843  51.457  0.00  0.00     0.005 A 
BRANCH  21  24
ATOM     24  S   UNL d   1      46.952  35.952  52.048  0.00  0.00     0.271 S 
ATOM     25  O   UNL d   1      47.302  36.665  52.254  0.00  0.00    -0.200 OA
ATOM     26  O   UNL d   1      46.600  35.234  51.841  0.00  0.00    -0.200 OA
BRANCH  24  27
ATOM     27  N   UNL d   1      46.216  36.319  52.014  0.00  0.00    -0.226 N 
ATOM     28  C   UNL d   1      45.779  36.293  51.320  0.00  0.00     0.111 C 
ATOM     29  C   UNL d   1      45.921  36.710  52.672  0.00  0.00     0.111 C 
ENDBRANCH  24  27
ENDBRANCH  21  24
ENDBRANCH   2  18
TORSDOF 5
ENDMDL
MODEL 3
REMARK VINA RESULT:      -8.5      1.197      6.701
REMARK  5 active torsions:
REMARK  status: ('A' for Active; 'I' for Inactive)
REMARK    1  A    between atoms: C_12  and  S_1 
REMARK    2  A    between atoms: N_13  and  S_1 
REMARK    3  A    between atoms: C_2  and  N_6 
REMARK    4  A    between atoms: C_5  and  C_3 
REMARK       I    between atoms: N_6  and  C_8 
REMARK    5  A    between atoms: C_8  and  C_18 
ROOT
ATOM      1  N   UNL d   1      50.295  34.302  52.610  0.00  0.00    -0.183 NA
ATOM      2  C   UNL d   1      51.045  34.236  52.285  0.00  0.00     0.281 C 
ATOM      3  O   UNL d   1      51.151  34.372  51.474  0.00  0.00    -0.265 OA
ENDROOT
BRANCH   1   4
ATOM      4  C   UNL d   1      49.653  34.499  52.141  0.00  0.00     0.197 A 
ATOM      5  N   UNL d   1      48.963  34.871  52.395  0.00  0.00    -0.218 NA
ATOM      6  C   UNL d   1      48.468  34.961  51.740  0.00  0.00     0.113 A 
ATOM      7  C   UNL d   1      48.851  34.646  51.081  0.00  0.00     0.059 A 
ATOM      8  S   UNL d   1      49.580  34.362  51.331  0.00  0.00    -0.046 SA
BRANCH   6   9
ATOM      9  C   UNL d   1      47.722  35.306  51.743  0.00  0.00     0.118 A 
ATOM     10  O   UNL d   1      47.089  35.146  51.306  0.00  0.00    -0.306 OA
ATOM     11  C   UNL d   1      46.449  35.584  51.447  0.00  0.00     0.100 A 
ATOM     12  C   UNL d   1      45.676  35.634  51.152  0.00  0.00     0.025 A 
ATOM     13  C   UNL d   1      46.691  36.101  52.058  0.00  0.00     0.025 A 
ATOM     14  C   UNL d   1      45.150  36.188  51.456  0.00  0.00     0.002 A 
ATOM     15  C   UNL d   1      45.383  36.710  52.067  0.00  0.00     0.000 A 
ATOM     16  C   UNL d   1      46.156  36.657  52.360  0.00  0.00     0.002 A 
ATOM     17  C   UNL d   1      47.476  35.924  52.235  0.00  0.00     0.028 A 
ENDBRANCH   6   9
ENDBRANCH   1   4
BRANCH   2  18
ATOM     18  C   UNL d   1      51.692  34.037  52.757  0.00  0.00     0.058 A 
ATOM     19  C   UNL d   1      52.214  34.623  53.010  0.00  0.00     0.005 A 
ATOM     20  C   UNL d   1      52.853  34.422  53.477  0.00  0.00     0.013 A 
ATOM     21  C   UNL d   1      52.980  33.628  53.697  0.00  0.00     0.104 A 
ATOM     22  C   UNL d   1      52.449  33.049  53.436  0.00  0.00     0.013 A 
ATOM     23  C   UNL d   1      51.813  33.254  52.971  0.00  0.00     0.005 A 
BRANCH  21  24
ATOM     24  S   UNL d   1      53.629  33.426  54.170  0.00  0.00     0.271 S 
ATOM     25  O   UNL d   1      53.221  33.686  54.833  0.00  0.00    -0.200 OA
ATOM     26  O   UNL d   1      54.039  33.165  53.502  0.00  0.00    -0.200 OA
BRANCH  24  27
ATOM     27  N   UNL d   1      54.273  33.226  54.641  0.00  0.00    -0.226 N 
ATOM     28  C   UNL d   1      55.033  33.412  54.393  0.00  0.00     0.111 C 
ATOM     29  C   UNL d   1      54.156  32.842  55.355  0.00  0.00     0.111 C 
ENDBRANCH  24  27
ENDBRANCH  21  24
ENDBRANCH   2  18
TORSDOF 5
ENDMDL
