MODEL 1
REMARK VINA RESULT:       9.7      0.000      0.000
REMARK  1 active torsions:
REMARK  status: ('A' for Active; 'I' for Inactive)
REMARK    1  A    between atoms: C_11  and  C_3 
ROOT
ATOM      1  C   UNL d   1      46.573 -19.039  41.817  0.00  0.00     0.052 A 
ATOM      2  C   UNL d   1      46.562 -19.561  41.165  0.00  0.00     0.115 A 
ATOM      3  C   UNL d   1      46.540 -19.479  42.507  0.00  0.00     0.011 A 
ATOM      4  C   UNL d   1      46.614 -18.190  41.681  0.00  0.00     0.139 A 
ATOM      5  N   UNL d   1      46.591 -19.243  40.365  0.00  0.00    -0.217 NA
ATOM      6  S   UNL d   1      46.522 -20.330  41.444  0.00  0.00    -0.067 SA
ATOM      7  C   UNL d   1      46.508 -20.278  42.284  0.00  0.00     0.037 A 
ATOM      8  N   UNL d   1      46.642 -17.904  40.908  0.00  0.00    -0.213 NA
ATOM      9  C   UNL d   1      46.630 -18.447  40.229  0.00  0.00     0.200 A 
ATOM     10  S   UNL d   1      46.627 -17.637  42.319  0.00  0.00    -0.057 SA
ENDROOT
BRANCH   3  11
ATOM     11  C   UNL d   1      46.522 -19.542  43.301  0.00  0.00     0.001 A 
ATOM     12  C   UNL d   1      46.413 -20.267  43.679  0.00  0.00     0.000 A 
ATOM     13  C   UNL d   1      46.396 -20.320  44.508  0.00  0.00     0.000 A 
ATOM     14  C   UNL d   1      46.491 -19.633  44.955  0.00  0.00     0.000 A 
ATOM     15  C   UNL d   1      46.600 -18.909  44.576  0.00  0.00     0.000 A 
ATOM     16  C   UNL d   1      46.614 -18.869  43.750  0.00  0.00     0.000 A 
ENDBRANCH   3  11
TORSDOF 1
ENDMDL
