MODEL 1
REMARK VINA RESULT:      -6.7      0.000      0.000
REMARK  4 active torsions:
REMARK  status: ('A' for Active; 'I' for Inactive)
REMARK    1  A    between atoms: N_6  and  C_1 
REMARK       I    between atoms: C_9  and  N_6 
REMARK    2  A    between atoms: C_15  and  C_9 
REMARK    3  A    between atoms: C_13  and  C_16 
REMARK    4  A    between atoms: C_19  and  C_13 
ROOT
ATOM      1  C   UNL d   1     -47.991  13.329  22.686  0.00  0.00     0.123 A 
ATOM      2  C   UNL d   1     -48.646  12.878  22.906  0.00  0.00     0.092 A 
ATOM      3  C   UNL d   1     -49.262  13.396  23.067  0.00  0.00     0.013 A 
ATOM      4  C   UNL d   1     -48.999  14.159  22.951  0.00  0.00     0.029 A 
ATOM      5  S   UNL d   1     -48.207  14.126  22.713  0.00  0.00    -0.070 SA
ATOM      6  C   UNL d   1     -49.508  14.803  23.073  0.00  0.00     0.104 A 
ATOM      7  N   UNL d   1     -50.283  14.670  23.314  0.00  0.00    -0.294 NA
ATOM      8  C   UNL d   1     -48.663  12.061  22.951  0.00  0.00     0.103 C 
ATOM      9  C   UNL d   1     -50.550  13.896  23.432  0.00  0.00     0.099 A 
ATOM     10  C   UNL d   1     -50.041  13.256  23.309  0.00  0.00    -0.004 A 
ATOM     11  N   UNL d   1     -48.686  11.250  22.998  0.00  0.00    -0.191 NA
ATOM     12  C   UNL d   1     -48.793  15.143  22.840  0.00  0.00     0.029 C 
ATOM     13  C   UNL d   1     -49.851  15.553  23.140  0.00  0.00     0.029 C 
ATOM     14  C   UNL d   1     -51.062  14.529  23.556  0.00  0.00     0.029 C 
ATOM     15  C   UNL d   1     -50.817  13.122  23.550  0.00  0.00     0.029 C 
ENDROOT
BRANCH   1  16
ATOM     16  N   UNL d   1     -47.245  13.040  22.475  0.00  0.00    -0.201 NA
ATOM     17  C   UNL d   1     -46.565  13.373  22.802  0.00  0.00     0.280 C 
ATOM     18  O   UNL d   1     -46.622  13.992  23.339  0.00  0.00    -0.265 OA
BRANCH  17  19
ATOM     19  C   UNL d   1     -45.830  13.088  22.594  0.00  0.00     0.058 A 
ATOM     20  C   UNL d   1     -45.522  12.422  22.972  0.00  0.00     0.005 A 
ATOM     21  C   UNL d   1     -44.776  12.133  22.761  0.00  0.00     0.003 A 
ATOM     22  C   UNL d   1     -44.338  12.509  22.172  0.00  0.00     0.039 A 
ATOM     23  C   UNL d   1     -44.647  13.166  21.802  0.00  0.00     0.003 A 
ATOM     24  C   UNL d   1     -45.393  13.455  22.013  0.00  0.00     0.005 A 
BRANCH  22  25
ATOM     25  C   UNL d   1     -43.596  12.218  21.964  0.00  0.00     0.196 C 
ATOM     26  O   UNL d   1     -43.390  11.449  22.153  0.00  0.00    -0.287 OA
BRANCH  25  27
ATOM     27  C   UNL d   1     -43.064  12.702  21.567  0.00  0.00     0.039 A 
ATOM     28  C   UNL d   1     -43.163  12.870  20.773  0.00  0.00     0.003 A 
ATOM     29  C   UNL d   1     -42.631  13.354  20.376  0.00  0.00     0.000 A 
ATOM     30  C   UNL d   1     -41.988  13.675  20.786  0.00  0.00     0.000 A 
ATOM     31  C   UNL d   1     -41.883  13.509  21.588  0.00  0.00     0.000 A 
ATOM     32  C   UNL d   1     -42.421  13.023  21.977  0.00  0.00     0.003 A 
ENDBRANCH  25  27
ENDBRANCH  22  25
ENDBRANCH  17  19
ENDBRANCH   1  16
TORSDOF 4
ENDMDL
MODEL 2
REMARK VINA RESULT:      -6.6      1.565      2.795
REMARK  4 active torsions:
REMARK  status: ('A' for Active; 'I' for Inactive)
REMARK    1  A    between atoms: N_6  and  C_1 
REMARK       I    between atoms: C_9  and  N_6 
REMARK    2  A    between atoms: C_15  and  C_9 
REMARK    3  A    between atoms: C_13  and  C_16 
REMARK    4  A    between atoms: C_19  and  C_13 
ROOT
ATOM      1  C   UNL d   1     -45.575  12.830  22.596  0.00  0.00     0.123 A 
ATOM      2  C   UNL d   1     -45.862  12.179  23.016  0.00  0.00     0.092 A 
ATOM      3  C   UNL d   1     -46.681  12.230  23.023  0.00  0.00     0.013 A 
ATOM      4  C   UNL d   1     -46.905  12.899  22.617  0.00  0.00     0.029 A 
ATOM      5  S   UNL d   1     -46.221  13.280  22.347  0.00  0.00    -0.070 SA
ATOM      6  C   UNL d   1     -47.708  13.094  22.534  0.00  0.00     0.104 A 
ATOM      7  N   UNL d   1     -48.281  12.605  22.865  0.00  0.00    -0.294 NA
ATOM      8  C   UNL d   1     -45.399  11.596  23.357  0.00  0.00     0.103 C 
ATOM      9  C   UNL d   1     -48.053  11.925  23.279  0.00  0.00     0.099 A 
ATOM     10  C   UNL d   1     -47.253  11.735  23.359  0.00  0.00    -0.004 A 
ATOM     11  N   UNL d   1     -44.945  11.014  23.698  0.00  0.00    -0.191 NA
ATOM     12  C   UNL d   1     -47.306  13.696  22.139  0.00  0.00     0.029 C 
ATOM     13  C   UNL d   1     -48.434  13.445  22.349  0.00  0.00     0.029 C 
ATOM     14  C   UNL d   1     -48.853  12.109  23.202  0.00  0.00     0.029 C 
ATOM     15  C   UNL d   1     -47.826  11.245  23.691  0.00  0.00     0.029 C 
ENDROOT
BRANCH   1  16
ATOM     16  N   UNL d   1     -44.780  13.006  22.448  0.00  0.00    -0.201 NA
ATOM     17  C   UNL d   1     -44.494  13.008  21.675  0.00  0.00     0.280 C 
ATOM     18  O   UNL d   1     -44.994  12.835  21.046  0.00  0.00    -0.265 OA
BRANCH  17  19
ATOM     19  C   UNL d   1     -43.711  13.182  21.529  0.00  0.00     0.058 A 
ATOM     20  C   UNL d   1     -43.185  12.580  21.323  0.00  0.00     0.005 A 
ATOM     21  C   UNL d   1     -42.390  12.757  21.175  0.00  0.00     0.003 A 
ATOM     22  C   UNL d   1     -42.122  13.535  21.233  0.00  0.00     0.039 A 
ATOM     23  C   UNL d   1     -42.645  14.125  21.437  0.00  0.00     0.003 A 
ATOM     24  C   UNL d   1     -43.440  13.948  21.585  0.00  0.00     0.005 A 
BRANCH  22  25
ATOM     25  C   UNL d   1     -41.330  13.706  21.085  0.00  0.00     0.196 C 
ATOM     26  O   UNL d   1     -40.745  13.385  21.559  0.00  0.00    -0.287 OA
BRANCH  25  27
ATOM     27  C   UNL d   1     -41.129  14.202  20.461  0.00  0.00     0.039 A 
ATOM     28  C   UNL d   1     -41.025  13.903  19.707  0.00  0.00     0.003 A 
ATOM     29  C   UNL d   1     -40.825  14.398  19.083  0.00  0.00     0.000 A 
ATOM     30  C   UNL d   1     -40.726  15.208  19.220  0.00  0.00     0.000 A 
ATOM     31  C   UNL d   1     -40.829  15.514  19.980  0.00  0.00     0.000 A 
ATOM     32  C   UNL d   1     -41.030  15.011  20.598  0.00  0.00     0.003 A 
ENDBRANCH  25  27
ENDBRANCH  22  25
ENDBRANCH  17  19
ENDBRANCH   1  16
TORSDOF 4
ENDMDL
MODEL 3
REMARK VINA RESULT:      -5.1      1.172      1.891
REMARK  4 active torsions:
REMARK  status: ('A' for Active; 'I' for Inactive)
REMARK    1  A    between atoms: N_6  and  C_1 
REMARK       I    between atoms: C_9  and  N_6 
REMARK    2  A    between atoms: C_15  and  C_9 
REMARK    3  A    between atoms: C_13  and  C_16 
REMARK    4  A    between atoms: C_19  and  C_13 
ROOT
ATOM      1  C   UNL d   1     -48.146  13.434  22.771  0.00  0.00     0.123 A 
ATOM      2  C   UNL d   1     -48.864  13.125  23.034  0.00  0.00     0.092 A 
ATOM      3  C   UNL d   1     -49.412  13.736  23.038  0.00  0.00     0.013 A 
ATOM      4  C   UNL d   1     -49.045  14.417  22.781  0.00  0.00     0.029 A 
ATOM      5  S   UNL d   1     -48.255  14.238  22.613  0.00  0.00    -0.070 SA
ATOM      6  C   UNL d   1     -49.467  15.129  22.728  0.00  0.00     0.104 A 
ATOM      7  N   UNL d   1     -50.263  15.147  22.936  0.00  0.00    -0.294 NA
ATOM      8  C   UNL d   1     -48.992  12.345  23.250  0.00  0.00     0.103 C 
ATOM      9  C   UNL d   1     -50.636  14.455  23.196  0.00  0.00     0.099 A 
ATOM     10  C   UNL d   1     -50.212  13.747  23.248  0.00  0.00    -0.004 A 
ATOM     11  N   UNL d   1     -49.125  11.573  23.465  0.00  0.00    -0.191 NA
ATOM     12  C   UNL d   1     -48.705  15.321  22.481  0.00  0.00     0.029 C 
ATOM     13  C   UNL d   1     -49.711  15.911  22.611  0.00  0.00     0.029 C 
ATOM     14  C   UNL d   1     -51.064  15.157  23.146  0.00  0.00     0.029 C 
ATOM     15  C   UNL d   1     -51.009  13.764  23.456  0.00  0.00     0.029 C 
ENDROOT
BRANCH   1  16
ATOM     16  N   UNL d   1     -47.436  13.018  22.679  0.00  0.00    -0.201 NA
ATOM     17  C   UNL d   1     -46.722  13.365  22.901  0.00  0.00     0.280 C 
ATOM     18  O   UNL d   1     -46.707  14.125  23.213  0.00  0.00    -0.265 OA
BRANCH  17  19
ATOM     19  C   UNL d   1     -46.023  12.955  22.811  0.00  0.00     0.058 A 
ATOM     20  C   UNL d   1     -45.510  13.143  22.192  0.00  0.00     0.005 A 
ATOM     21  C   UNL d   1     -44.800  12.726  22.101  0.00  0.00     0.003 A 
ATOM     22  C   UNL d   1     -44.605  12.122  22.627  0.00  0.00     0.039 A 
ATOM     23  C   UNL d   1     -45.115  11.940  23.236  0.00  0.00     0.003 A 
ATOM     24  C   UNL d   1     -45.824  12.357  23.327  0.00  0.00     0.005 A 
BRANCH  22  25
ATOM     25  C   UNL d   1     -43.898  11.709  22.533  0.00  0.00     0.196 C 
ATOM     26  O   UNL d   1     -43.308  12.012  22.053  0.00  0.00    -0.287 OA
BRANCH  25  27
ATOM     27  C   UNL d   1     -43.787  10.994  22.921  0.00  0.00     0.039 A 
ATOM     28  C   UNL d   1     -43.061  10.802  23.245  0.00  0.00     0.003 A 
ATOM     29  C   UNL d   1     -42.951  10.086  23.633  0.00  0.00     0.000 A 
ATOM     30  C   UNL d   1     -43.582   9.555  23.698  0.00  0.00     0.000 A 
ATOM     31  C   UNL d   1     -44.317   9.745  23.373  0.00  0.00     0.000 A 
ATOM     32  C   UNL d   1     -44.418  10.463  22.986  0.00  0.00     0.003 A 
ENDBRANCH  25  27
ENDBRANCH  22  25
ENDBRANCH  17  19
ENDBRANCH   1  16
TORSDOF 4
ENDMDL
MODEL 4
REMARK VINA RESULT:      -4.9      3.170      7.496
REMARK  4 active torsions:
REMARK  status: ('A' for Active; 'I' for Inactive)
REMARK    1  A    between atoms: N_6  and  C_1 
REMARK       I    between atoms: C_9  and  N_6 
REMARK    2  A    between atoms: C_15  and  C_9 
REMARK    3  A    between atoms: C_13  and  C_16 
REMARK    4  A    between atoms: C_19  and  C_13 
ROOT
ATOM      1  C   UNL d   1     -41.296  14.000  20.724  0.00  0.00     0.123 A 
ATOM      2  C   UNL d   1     -40.514  14.008  20.987  0.00  0.00     0.092 A 
ATOM      3  C   UNL d   1     -40.042  14.233  20.354  0.00  0.00     0.013 A 
ATOM      4  C   UNL d   1     -40.518  14.364  19.706  0.00  0.00     0.029 A 
ATOM      5  S   UNL d   1     -41.302  14.221  19.928  0.00  0.00    -0.070 SA
ATOM      6  C   UNL d   1     -40.189  14.600  18.981  0.00  0.00     0.104 A 
ATOM      7  N   UNL d   1     -39.375  14.702  18.918  0.00  0.00    -0.294 NA
ATOM      8  C   UNL d   1     -40.268  13.823  21.746  0.00  0.00     0.103 C 
ATOM      9  C   UNL d   1     -38.891  14.569  19.576  0.00  0.00     0.099 A 
ATOM     10  C   UNL d   1     -39.222  14.334  20.297  0.00  0.00    -0.004 A 
ATOM     11  N   UNL d   1     -40.018  13.640  22.497  0.00  0.00    -0.191 NA
ATOM     12  C   UNL d   1     -41.000  14.555  18.838  0.00  0.00     0.029 C 
ATOM     13  C   UNL d   1     -40.055  14.831  18.199  0.00  0.00     0.029 C 
ATOM     14  C   UNL d   1     -38.555  14.803  18.861  0.00  0.00     0.029 C 
ATOM     15  C   UNL d   1     -38.408  14.437  20.234  0.00  0.00     0.029 C 
ENDROOT
BRANCH   1  16
ATOM     16  N   UNL d   1     -41.963  13.805  21.175  0.00  0.00    -0.201 NA
ATOM     17  C   UNL d   1     -42.510  13.259  20.888  0.00  0.00     0.280 C 
ATOM     18  O   UNL d   1     -42.399  12.904  20.156  0.00  0.00    -0.265 OA
BRANCH  17  19
ATOM     19  C   UNL d   1     -43.166  13.067  21.332  0.00  0.00     0.058 A 
ATOM     20  C   UNL d   1     -43.202  12.343  21.727  0.00  0.00     0.005 A 
ATOM     21  C   UNL d   1     -43.869  12.149  22.178  0.00  0.00     0.003 A 
ATOM     22  C   UNL d   1     -44.499  12.678  22.233  0.00  0.00     0.039 A 
ATOM     23  C   UNL d   1     -44.458  13.391  21.842  0.00  0.00     0.003 A 
ATOM     24  C   UNL d   1     -43.792  13.586  21.391  0.00  0.00     0.005 A 
BRANCH  22  25
ATOM     25  C   UNL d   1     -45.160  12.481  22.683  0.00  0.00     0.196 C 
ATOM     26  O   UNL d   1     -45.139  11.831  23.180  0.00  0.00    -0.287 OA
BRANCH  25  27
ATOM     27  C   UNL d   1     -45.841  12.938  22.630  0.00  0.00     0.039 A 
ATOM     28  C   UNL d   1     -45.928  13.612  23.085  0.00  0.00     0.003 A 
ATOM     29  C   UNL d   1     -46.608  14.070  23.033  0.00  0.00     0.000 A 
ATOM     30  C   UNL d   1     -47.212  13.845  22.514  0.00  0.00     0.000 A 
ATOM     31  C   UNL d   1     -47.129  13.165  22.052  0.00  0.00     0.000 A 
ATOM     32  C   UNL d   1     -46.444  12.714  22.111  0.00  0.00     0.003 A 
ENDBRANCH  25  27
ENDBRANCH  22  25
ENDBRANCH  17  19
ENDBRANCH   1  16
TORSDOF 4
ENDMDL
