MODEL 1
REMARK VINA RESULT:       1.5      0.000      0.000
REMARK  6 active torsions:
REMARK  status: ('A' for Active; 'I' for Inactive)
REMARK    1  A    between atoms: S_13  and  C_3 
REMARK    2  A    between atoms: C_21  and  C_4 
REMARK       I    between atoms: N_7  and  C_10 
REMARK    3  A    between atoms: C_10  and  C_20 
REMARK    4  A    between atoms: C_20  and  S_13 
REMARK    5  A    between atoms: O_24  and  C_16 
REMARK    6  A    between atoms: O_25  and  C_17 
ROOT
ATOM      1  N   UNL d   1      32.154  19.196 -22.689  0.00  0.00    -0.272 N 
ATOM      2  C   UNL d   1      31.920  19.909 -22.290  0.00  0.00     0.271 C 
ATOM      3  C   UNL d   1      31.850  18.124 -23.569  0.00  0.00     0.020 A 
ATOM      4  C   UNL d   1      31.621  18.809 -23.186  0.00  0.00     0.083 A 
ATOM      5  C   UNL d   1      32.592  17.825 -23.462  0.00  0.00     0.005 A 
ATOM      6  C   UNL d   1      31.315  17.730 -24.072  0.00  0.00     0.028 A 
ATOM      7  C   UNL d   1      31.542  17.038 -24.460  0.00  0.00     0.116 A 
ATOM      8  C   UNL d   1      32.284  16.739 -24.353  0.00  0.00     0.116 A 
ATOM      9  C   UNL d   1      32.825  17.123 -23.854  0.00  0.00     0.026 A 
ATOM     10  C   UNL d   1      32.896  18.898 -22.582  0.00  0.00     0.083 A 
ATOM     11  O   UNL d   1      31.157  20.208 -22.405  0.00  0.00    -0.266 OA
ATOM     12  C   UNL d   1      33.131  18.202 -22.968  0.00  0.00     0.019 A 
ENDROOT
BRANCH   2  13
ATOM     13  C   UNL d   1      32.453  20.295 -21.792  0.00  0.00     0.099 C 
BRANCH  13  14
ATOM     14  S   UNL d   1      32.532  21.109 -21.839  0.00  0.00    -0.043 SA
BRANCH  14  15
ATOM     15  C   UNL d   1      32.721  21.551 -21.153  0.00  0.00     0.202 A 
ATOM     16  N   UNL d   1      32.899  22.336 -21.144  0.00  0.00    -0.263 N 
ATOM     17  C   UNL d   1      33.048  22.541 -20.365  0.00  0.00     0.202 A 
ATOM     18  C   UNL d   1      32.991  23.016 -21.604  0.00  0.00     0.074 A 
ATOM     19  N   UNL d   1      32.960  21.878 -19.899  0.00  0.00    -0.121 NA
ATOM     20  S   UNL d   1      33.233  23.348 -20.337  0.00  0.00    -0.046 SA
ATOM     21  N   UNL d   1      32.757  21.264 -20.396  0.00  0.00    -0.121 NA
ATOM     22  C   UNL d   1      33.197  23.643 -21.108  0.00  0.00     0.056 A 
BRANCH  18  23
ATOM     23  C   UNL d   1      32.893  23.055 -22.416  0.00  0.00     0.017 A 
ATOM     24  C   UNL d   1      32.433  23.669 -22.745  0.00  0.00     0.002 A 
ATOM     25  C   UNL d   1      32.340  23.701 -23.549  0.00  0.00     0.000 A 
ATOM     26  C   UNL d   1      32.684  23.149 -24.048  0.00  0.00     0.000 A 
ATOM     27  C   UNL d   1      33.141  22.540 -23.707  0.00  0.00     0.000 A 
ATOM     28  C   UNL d   1      33.237  22.503 -22.903  0.00  0.00     0.002 A 
ENDBRANCH  18  23
ENDBRANCH  14  15
ENDBRANCH  13  14
ENDBRANCH   2  13
BRANCH   7  29
ATOM     29  O   UNL d   1      30.999  16.662 -24.954  0.00  0.00    -0.326 OA
ATOM     30  C   UNL d   1      30.179  16.847 -24.887  0.00  0.00     0.181 C 
ENDBRANCH   7  29
BRANCH   8  31
ATOM     31  O   UNL d   1      32.521  16.050 -24.734  0.00  0.00    -0.326 OA
ATOM     32  C   UNL d   1      33.224  15.671 -24.483  0.00  0.00     0.181 C 
ENDBRANCH   8  31
TORSDOF 6
ENDMDL
MODEL 2
REMARK VINA RESULT:       2.7      1.144      2.016
REMARK  6 active torsions:
REMARK  status: ('A' for Active; 'I' for Inactive)
REMARK    1  A    between atoms: S_13  and  C_3 
REMARK    2  A    between atoms: C_21  and  C_4 
REMARK       I    between atoms: N_7  and  C_10 
REMARK    3  A    between atoms: C_10  and  C_20 
REMARK    4  A    between atoms: C_20  and  S_13 
REMARK    5  A    between atoms: O_24  and  C_16 
REMARK    6  A    between atoms: O_25  and  C_17 
ROOT
ATOM      1  N   UNL d   1      32.578  19.067 -22.861  0.00  0.00    -0.272 N 
ATOM      2  C   UNL d   1      32.574  19.805 -22.439  0.00  0.00     0.271 C 
ATOM      3  C   UNL d   1      31.922  17.867 -23.244  0.00  0.00     0.020 A 
ATOM      4  C   UNL d   1      31.915  18.577 -22.837  0.00  0.00     0.083 A 
ATOM      5  C   UNL d   1      32.573  17.646 -23.667  0.00  0.00     0.005 A 
ATOM      6  C   UNL d   1      31.255  17.369 -23.222  0.00  0.00     0.028 A 
ATOM      7  C   UNL d   1      31.258  16.652 -23.631  0.00  0.00     0.116 A 
ATOM      8  C   UNL d   1      31.909  16.431 -24.054  0.00  0.00     0.116 A 
ATOM      9  C   UNL d   1      32.579  16.920 -24.083  0.00  0.00     0.026 A 
ATOM     10  C   UNL d   1      33.229  18.846 -23.284  0.00  0.00     0.083 A 
ATOM     11  O   UNL d   1      31.903  20.024 -22.008  0.00  0.00    -0.266 OA
ATOM     12  C   UNL d   1      33.239  18.127 -23.698  0.00  0.00     0.019 A 
ENDROOT
BRANCH   2  13
ATOM     13  C   UNL d   1      33.238  20.295 -22.464  0.00  0.00     0.099 C 
BRANCH  13  14
ATOM     14  S   UNL d   1      33.200  21.044 -22.132  0.00  0.00    -0.043 SA
BRANCH  14  15
ATOM     15  C   UNL d   1      33.100  21.714 -22.623  0.00  0.00     0.202 A 
ATOM     16  N   UNL d   1      32.848  22.437 -22.372  0.00  0.00    -0.263 N 
ATOM     17  C   UNL d   1      32.830  22.927 -23.029  0.00  0.00     0.202 A 
ATOM     18  C   UNL d   1      32.602  22.881 -21.721  0.00  0.00     0.074 A 
ATOM     19  N   UNL d   1      33.071  22.501 -23.681  0.00  0.00    -0.121 NA
ATOM     20  S   UNL d   1      32.572  23.677 -22.789  0.00  0.00    -0.046 SA
ATOM     21  N   UNL d   1      33.238  21.745 -23.422  0.00  0.00    -0.121 NA
ATOM     22  C   UNL d   1      32.431  23.647 -21.975  0.00  0.00     0.056 A 
BRANCH  18  23
ATOM     23  C   UNL d   1      32.541  22.601 -20.955  0.00  0.00     0.017 A 
ATOM     24  C   UNL d   1      33.210  22.622 -20.455  0.00  0.00     0.002 A 
ATOM     25  C   UNL d   1      33.142  22.343 -19.698  0.00  0.00     0.000 A 
ATOM     26  C   UNL d   1      32.437  22.042 -19.407  0.00  0.00     0.000 A 
ATOM     27  C   UNL d   1      31.775  22.027 -19.916  0.00  0.00     0.000 A 
ATOM     28  C   UNL d   1      31.838  22.304 -20.675  0.00  0.00     0.002 A 
ENDBRANCH  18  23
ENDBRANCH  14  15
ENDBRANCH  13  14
ENDBRANCH   2  13
BRANCH   7  29
ATOM     29  O   UNL d   1      30.588  16.172 -23.598  0.00  0.00    -0.326 OA
ATOM     30  C   UNL d   1      29.927  16.413 -23.134  0.00  0.00     0.181 C 
ENDBRANCH   7  29
BRANCH   8  31
ATOM     31  O   UNL d   1      31.923  15.719 -24.466  0.00  0.00    -0.326 OA
ATOM     32  C   UNL d   1      32.645  15.461 -24.802  0.00  0.00     0.181 C 
ENDBRANCH   8  31
TORSDOF 6
ENDMDL
MODEL 3
REMARK VINA RESULT:       4.4      2.043      6.090
REMARK  6 active torsions:
REMARK  status: ('A' for Active; 'I' for Inactive)
REMARK    1  A    between atoms: S_13  and  C_3 
REMARK    2  A    between atoms: C_21  and  C_4 
REMARK       I    between atoms: N_7  and  C_10 
REMARK    3  A    between atoms: C_10  and  C_20 
REMARK    4  A    between atoms: C_20  and  S_13 
REMARK    5  A    between atoms: O_24  and  C_16 
REMARK    6  A    between atoms: O_25  and  C_17 
ROOT
ATOM      1  N   UNL d   1      32.769  20.065 -22.768  0.00  0.00    -0.272 N 
ATOM      2  C   UNL d   1      32.613  19.254 -22.970  0.00  0.00     0.271 C 
ATOM      3  C   UNL d   1      32.789  21.110 -21.807  0.00  0.00     0.020 A 
ATOM      4  C   UNL d   1      32.638  20.330 -21.998  0.00  0.00     0.083 A 
ATOM      5  C   UNL d   1      33.064  21.621 -22.368  0.00  0.00     0.005 A 
ATOM      6  C   UNL d   1      32.658  21.381 -21.031  0.00  0.00     0.028 A 
ATOM      7  C   UNL d   1      32.809  22.169 -20.834  0.00  0.00     0.116 A 
ATOM      8  C   UNL d   1      33.084  22.680 -21.395  0.00  0.00     0.116 A 
ATOM      9  C   UNL d   1      33.218  22.420 -22.172  0.00  0.00     0.026 A 
ATOM     10  C   UNL d   1      33.044  20.576 -23.329  0.00  0.00     0.083 A 
ATOM     11  O   UNL d   1      32.331  18.737 -22.389  0.00  0.00    -0.266 OA
ATOM     12  C   UNL d   1      33.198  21.368 -23.139  0.00  0.00     0.019 A 
ENDROOT
BRANCH   2  13
ATOM     13  C   UNL d   1      32.744  18.990 -23.741  0.00  0.00     0.099 C 
BRANCH  13  14
ATOM     14  S   UNL d   1      32.501  18.239 -23.958  0.00  0.00    -0.043 SA
BRANCH  14  15
ATOM     15  C   UNL d   1      31.788  18.137 -24.384  0.00  0.00     0.202 A 
ATOM     16  N   UNL d   1      31.425  17.430 -24.515  0.00  0.00    -0.263 N 
ATOM     17  C   UNL d   1      30.749  17.583 -24.952  0.00  0.00     0.202 A 
ATOM     18  C   UNL d   1      31.461  16.615 -24.386  0.00  0.00     0.074 A 
ATOM     19  N   UNL d   1      30.700  18.386 -25.087  0.00  0.00    -0.121 NA
ATOM     20  S   UNL d   1      30.362  16.865 -25.096  0.00  0.00    -0.046 SA
ATOM     21  N   UNL d   1      31.351  18.726 -24.730  0.00  0.00    -0.121 NA
ATOM     22  C   UNL d   1      30.805  16.263 -24.744  0.00  0.00     0.056 A 
BRANCH  18  23
ATOM     23  C   UNL d   1      32.051  16.228 -23.972  0.00  0.00     0.017 A 
ATOM     24  C   UNL d   1      32.029  16.220 -23.137  0.00  0.00     0.002 A 
ATOM     25  C   UNL d   1      32.616  15.835 -22.734  0.00  0.00     0.000 A 
ATOM     26  C   UNL d   1      33.230  15.453 -23.120  0.00  0.00     0.000 A 
ATOM     27  C   UNL d   1      33.240  15.467 -23.955  0.00  0.00     0.000 A 
ATOM     28  C   UNL d   1      32.656  15.852 -24.363  0.00  0.00     0.002 A 
ENDBRANCH  18  23
ENDBRANCH  14  15
ENDBRANCH  13  14
ENDBRANCH   2  13
BRANCH   7  29
ATOM     29  O   UNL d   1      32.674  22.419 -20.060  0.00  0.00    -0.326 OA
ATOM     30  C   UNL d   1      32.513  21.847 -19.461  0.00  0.00     0.181 C 
ENDBRANCH   7  29
BRANCH   8  31
ATOM     31  O   UNL d   1      33.238  23.466 -21.211  0.00  0.00    -0.326 OA
ATOM     32  C   UNL d   1      33.240  23.700 -20.407  0.00  0.00     0.181 C 
ENDBRANCH   8  31
TORSDOF 6
ENDMDL
