MODEL 1
REMARK VINA RESULT:     130.8      0.000      0.000
REMARK  3 active torsions:
REMARK  status: ('A' for Active; 'I' for Inactive)
REMARK    1  A    between atoms: C_2  and  C_1 
REMARK       I    between atoms: N_6  and  C_2 
REMARK    2  A    between atoms: C_7  and  N_6 
REMARK    3  A    between atoms: C_18  and  N_6 
ROOT
ATOM      1  C   UNL d   1      61.579  46.961  49.603  0.00  0.00     0.270 C 
ATOM      2  N   UNL d   1      60.992  47.328  50.639  0.00  0.00    -0.274 N 
ATOM      3  O   UNL d   1      61.764  47.575  49.131  0.00  0.00    -0.266 OA
ENDROOT
BRANCH   2   4
ATOM      4  C   UNL d   1      60.789  46.755  51.135  0.00  0.00     0.079 A 
ATOM      5  C   UNL d   1      61.187  46.535  51.772  0.00  0.00     0.116 A 
ATOM      6  S   UNL d   1      60.796  45.949  52.108  0.00  0.00     0.213 S 
ATOM      7  O   UNL d   1      60.406  45.363  52.444  0.00  0.00    -0.217 OA
ATOM      8  O   UNL d   1      61.419  46.060  52.557  0.00  0.00    -0.217 OA
ATOM      9  C   UNL d   1      60.160  45.811  51.677  0.00  0.00     0.100 A 
ATOM     10  C   UNL d   1      60.156  46.306  51.080  0.00  0.00     0.030 A 
ENDBRANCH   2   4
BRANCH   2  11
ATOM     11  C   UNL d   1      60.829  48.118  50.790  0.00  0.00     0.067 A 
ATOM     12  C   UNL d   1      60.157  48.453  50.475  0.00  0.00     0.018 A 
ATOM     13  C   UNL d   1      59.988  49.258  50.627  0.00  0.00     0.002 A 
ATOM     14  C   UNL d   1      60.497  49.705  51.090  0.00  0.00     0.000 A 
ATOM     15  C   UNL d   1      61.175  49.364  51.406  0.00  0.00     0.002 A 
ATOM     16  C   UNL d   1      61.348  48.574  51.262  0.00  0.00     0.018 A 
ENDBRANCH   2  11
BRANCH   1  17
ATOM     17  C   UNL d   1      61.753  46.175  49.431  0.00  0.00     0.120 A 
ATOM     18  C   UNL d   1      62.553  45.937  49.339  0.00  0.00     0.305 A 
ATOM     19  O   UNL d   1      62.729  45.147  49.166  0.00  0.00    -0.273 OA
ATOM     20  O   UNL d   1      63.157  46.492  49.423  0.00  0.00    -0.259 OA
ATOM     21  C   UNL d   1      62.117  44.598  49.085  0.00  0.00     0.103 A 
ATOM     22  C   UNL d   1      61.328  44.832  49.175  0.00  0.00     0.023 A 
ATOM     23  C   UNL d   1      62.302  43.808  48.911  0.00  0.00     0.025 A 
ATOM     24  C   UNL d   1      61.150  45.616  49.347  0.00  0.00     0.012 A 
ATOM     25  C   UNL d   1      60.723  44.277  49.092  0.00  0.00     0.002 A 
ATOM     26  C   UNL d   1      60.903  43.489  48.919  0.00  0.00     0.000 A 
ATOM     27  C   UNL d   1      61.692  43.255  48.829  0.00  0.00     0.002 A 
ENDBRANCH   1  17
TORSDOF 3
ENDMDL
