MODEL 1
REMARK VINA RESULT:      -3.3      0.000      0.000
REMARK  5 active torsions:
REMARK  status: ('A' for Active; 'I' for Inactive)
REMARK    1  A    between atoms: C_2  and  S_1 
REMARK    2  A    between atoms: N_4  and  S_1 
REMARK    3  A    between atoms: C_11  and  N_4 
REMARK    4  A    between atoms: O_14  and  C_5 
REMARK    5  A    between atoms: O_15  and  C_7 
ROOT
ATOM      1  C   UNL d   1     -41.525-122.376 -52.239  0.00  0.00     0.129 A 
ATOM      2  C   UNL d   1     -41.809-123.077 -51.906  0.00  0.00     0.040 A 
ATOM      3  C   UNL d   1     -41.408-121.719 -51.760  0.00  0.00     0.107 A 
ATOM      4  C   UNL d   1     -41.569-121.750 -50.956  0.00  0.00     0.034 A 
ATOM      5  C   UNL d   1     -41.973-123.115 -51.098  0.00  0.00     0.101 A 
ATOM      6  C   UNL d   1     -41.853-122.451 -50.624  0.00  0.00     0.059 A 
ATOM      7 BR   UNL d   1     -42.019-122.496 -49.812  0.00  0.00    -0.047 Br
ENDROOT
BRANCH   1   8
ATOM      8  S   UNL d   1     -41.364-122.345 -53.043  0.00  0.00     0.287 S 
ATOM      9  O   UNL d   1     -41.602-121.564 -53.072  0.00  0.00    -0.198 OA
ATOM     10  O   UNL d   1     -41.123-123.134 -53.018  0.00  0.00    -0.198 OA
BRANCH   8  11
ATOM     11  N   UNL d   1     -41.200-122.322 -53.851  0.00  0.00    -0.157 NA
BRANCH  11  12
ATOM     12  C   UNL d   1     -41.806-122.450 -54.397  0.00  0.00     0.113 A 
ATOM     13  C   UNL d   1     -42.308-121.838 -54.603  0.00  0.00     0.119 A 
ATOM     14  N   UNL d   1     -42.914-121.967 -55.148  0.00  0.00    -0.241 NA
ATOM     15  C   UNL d   1     -43.016-122.718 -55.490  0.00  0.00     0.099 A 
ATOM     16  C   UNL d   1     -42.504-123.331 -55.277  0.00  0.00     0.022 A 
ATOM     17  C   UNL d   1     -41.898-123.203 -54.732  0.00  0.00     0.023 A 
ENDBRANCH  11  12
ENDBRANCH   8  11
ENDBRANCH   1   8
BRANCH   3  18
ATOM     18  O   UNL d   1     -41.124-121.017 -52.093  0.00  0.00    -0.327 OA
ATOM     19  C   UNL d   1     -41.129-120.320 -51.653  0.00  0.00     0.181 C 
ENDBRANCH   3  18
BRANCH   5  20
ATOM     20  O   UNL d   1     -42.257-123.817 -50.766  0.00  0.00    -0.328 OA
ATOM     21  C   UNL d   1     -42.769-123.790 -50.120  0.00  0.00     0.181 C 
ENDBRANCH   5  20
TORSDOF 5
ENDMDL
MODEL 2
REMARK VINA RESULT:      -2.7      2.044      3.711
REMARK  5 active torsions:
REMARK  status: ('A' for Active; 'I' for Inactive)
REMARK    1  A    between atoms: C_2  and  S_1 
REMARK    2  A    between atoms: N_4  and  S_1 
REMARK    3  A    between atoms: C_11  and  N_4 
REMARK    4  A    between atoms: O_14  and  C_5 
REMARK    5  A    between atoms: O_15  and  C_7 
ROOT
ATOM      1  C   UNL d   1     -41.395-122.653 -51.737  0.00  0.00     0.129 A 
ATOM      2  C   UNL d   1     -41.486-123.277 -52.270  0.00  0.00     0.040 A 
ATOM      3  C   UNL d   1     -41.264-121.894 -52.021  0.00  0.00     0.107 A 
ATOM      4  C   UNL d   1     -41.222-121.747 -52.827  0.00  0.00     0.034 A 
ATOM      5  C   UNL d   1     -41.445-123.138 -53.082  0.00  0.00     0.101 A 
ATOM      6  C   UNL d   1     -41.313-122.372 -53.360  0.00  0.00     0.059 A 
ATOM      7 BR   UNL d   1     -41.273-122.238 -54.178  0.00  0.00    -0.047 Br
ENDROOT
BRANCH   1   8
ATOM      8  S   UNL d   1     -41.437-122.800 -50.930  0.00  0.00     0.287 S 
ATOM      9  O   UNL d   1     -41.125-123.547 -51.038  0.00  0.00    -0.198 OA
ATOM     10  O   UNL d   1     -41.751-122.046 -50.816  0.00  0.00    -0.198 OA
BRANCH   8  11
ATOM     11  N   UNL d   1     -41.481-122.940 -50.118  0.00  0.00    -0.157 NA
BRANCH  11  12
ATOM     12  C   UNL d   1     -42.181-123.231 -49.790  0.00  0.00     0.113 A 
ATOM     13  C   UNL d   1     -42.770-123.526 -50.276  0.00  0.00     0.119 A 
ATOM     14  N   UNL d   1     -43.468-123.817 -49.947  0.00  0.00    -0.241 NA
ATOM     15  C   UNL d   1     -43.576-123.812 -49.123  0.00  0.00     0.099 A 
ATOM     16  C   UNL d   1     -42.976-123.513 -48.638  0.00  0.00     0.022 A 
ATOM     17  C   UNL d   1     -42.278-123.222 -48.967  0.00  0.00     0.023 A 
ENDBRANCH  11  12
ENDBRANCH   8  11
ENDBRANCH   1   8
BRANCH   3  18
ATOM     18  O   UNL d   1     -41.173-121.269 -51.487  0.00  0.00    -0.327 OA
ATOM     19  C   UNL d   1     -41.227-120.489 -51.751  0.00  0.00     0.181 C 
ENDBRANCH   3  18
BRANCH   5  20
ATOM     20  O   UNL d   1     -41.536-123.763 -53.616  0.00  0.00    -0.328 OA
ATOM     21  C   UNL d   1     -42.218-123.817 -54.076  0.00  0.00     0.181 C 
ENDBRANCH   5  20
TORSDOF 5
ENDMDL
MODEL 3
REMARK VINA RESULT:      -2.0      1.518      2.359
REMARK  5 active torsions:
REMARK  status: ('A' for Active; 'I' for Inactive)
REMARK    1  A    between atoms: C_2  and  S_1 
REMARK    2  A    between atoms: N_4  and  S_1 
REMARK    3  A    between atoms: C_11  and  N_4 
REMARK    4  A    between atoms: O_14  and  C_5 
REMARK    5  A    between atoms: O_15  and  C_7 
ROOT
ATOM      1  C   UNL d   1     -42.202-122.953 -50.627  0.00  0.00     0.129 A 
ATOM      2  C   UNL d   1     -42.930-122.600 -50.792  0.00  0.00     0.040 A 
ATOM      3  C   UNL d   1     -42.024-123.173 -49.856  0.00  0.00     0.107 A 
ATOM      4  C   UNL d   1     -42.560-123.047 -49.248  0.00  0.00     0.034 A 
ATOM      5  C   UNL d   1     -43.474-122.471 -50.186  0.00  0.00     0.101 A 
ATOM      6  C   UNL d   1     -43.289-122.695 -49.413  0.00  0.00     0.059 A 
ATOM      7 BR   UNL d   1     -43.840-122.561 -48.808  0.00  0.00    -0.047 Br
ENDROOT
BRANCH   1   8
ATOM      8  S   UNL d   1     -41.665-123.079 -51.235  0.00  0.00     0.287 S 
ATOM      9  O   UNL d   1     -41.998-123.808 -51.393  0.00  0.00    -0.198 OA
ATOM     10  O   UNL d   1     -41.326-122.343 -51.079  0.00  0.00    -0.198 OA
BRANCH   8  11
ATOM     11  N   UNL d   1     -41.123-123.199 -51.846  0.00  0.00    -0.157 NA
BRANCH  11  12
ATOM     12  C   UNL d   1     -41.338-123.032 -52.625  0.00  0.00     0.113 A 
ATOM     13  C   UNL d   1     -41.369-122.257 -52.885  0.00  0.00     0.119 A 
ATOM     14  N   UNL d   1     -41.585-122.091 -53.663  0.00  0.00    -0.241 NA
ATOM     15  C   UNL d   1     -41.771-122.710 -54.187  0.00  0.00     0.099 A 
ATOM     16  C   UNL d   1     -41.738-123.491 -53.916  0.00  0.00     0.022 A 
ATOM     17  C   UNL d   1     -41.522-123.657 -53.138  0.00  0.00     0.023 A 
ENDBRANCH  11  12
ENDBRANCH   8  11
ENDBRANCH   1   8
BRANCH   3  18
ATOM     18  O   UNL d   1     -41.295-123.526 -49.691  0.00  0.00    -0.327 OA
ATOM     19  C   UNL d   1     -41.125-123.785 -48.926  0.00  0.00     0.181 C 
ENDBRANCH   3  18
BRANCH   5  20
ATOM     20  O   UNL d   1     -44.204-122.118 -50.351  0.00  0.00    -0.328 OA
ATOM     21  C   UNL d   1     -44.278-121.604 -50.992  0.00  0.00     0.181 C 
ENDBRANCH   5  20
TORSDOF 5
ENDMDL
MODEL 4
REMARK VINA RESULT:      -0.8      2.163      3.366
REMARK  5 active torsions:
REMARK  status: ('A' for Active; 'I' for Inactive)
REMARK    1  A    between atoms: C_2  and  S_1 
REMARK    2  A    between atoms: N_4  and  S_1 
REMARK    3  A    between atoms: C_11  and  N_4 
REMARK    4  A    between atoms: O_14  and  C_5 
REMARK    5  A    between atoms: O_15  and  C_7 
ROOT
ATOM      1  C   UNL d   1     -42.605-122.859 -49.625  0.00  0.00     0.129 A 
ATOM      2  C   UNL d   1     -41.953-122.560 -49.216  0.00  0.00     0.040 A 
ATOM      3  C   UNL d   1     -43.076-123.431 -49.273  0.00  0.00     0.107 A 
ATOM      4  C   UNL d   1     -42.907-123.711 -48.520  0.00  0.00     0.034 A 
ATOM      5  C   UNL d   1     -41.776-122.837 -48.459  0.00  0.00     0.101 A 
ATOM      6  C   UNL d   1     -42.254-123.412 -48.111  0.00  0.00     0.059 A 
ATOM      7 BR   UNL d   1     -42.072-123.686 -47.350  0.00  0.00    -0.047 Br
ENDROOT
BRANCH   1   8
ATOM      8  S   UNL d   1     -42.775-122.579 -50.378  0.00  0.00     0.287 S 
ATOM      9  O   UNL d   1     -42.390-123.217 -50.714  0.00  0.00    -0.198 OA
ATOM     10  O   UNL d   1     -43.164-121.934 -50.043  0.00  0.00    -0.198 OA
BRANCH   8  11
ATOM     11  N   UNL d   1     -42.949-122.292 -51.132  0.00  0.00    -0.157 NA
BRANCH  11  12
ATOM     12  C   UNL d   1     -42.341-122.009 -51.613  0.00  0.00     0.113 A 
ATOM     13  C   UNL d   1     -41.891-121.369 -51.374  0.00  0.00     0.119 A 
ATOM     14  N   UNL d   1     -41.284-121.088 -51.856  0.00  0.00    -0.241 NA
ATOM     15  C   UNL d   1     -41.126-121.453 -52.586  0.00  0.00     0.099 A 
ATOM     16  C   UNL d   1     -41.584-122.100 -52.821  0.00  0.00     0.022 A 
ATOM     17  C   UNL d   1     -42.192-122.382 -52.339  0.00  0.00     0.023 A 
ENDBRANCH  11  12
ENDBRANCH   8  11
ENDBRANCH   1   8
BRANCH   3  18
ATOM     18  O   UNL d   1     -43.730-123.730 -49.682  0.00  0.00    -0.327 OA
ATOM     19  C   UNL d   1     -44.456-123.811 -49.298  0.00  0.00     0.181 C 
ENDBRANCH   3  18
BRANCH   5  20
ATOM     20  O   UNL d   1     -41.123-122.538 -48.050  0.00  0.00    -0.328 OA
ATOM     21  C   UNL d   1     -41.233-122.084 -47.370  0.00  0.00     0.181 C 
ENDBRANCH   5  20
TORSDOF 5
ENDMDL
