MODEL 1
REMARK VINA RESULT:      59.1      0.000      0.000
REMARK  5 active torsions:
REMARK  status: ('A' for Active; 'I' for Inactive)
REMARK    1  A    between atoms: N_2  and  S_1 
REMARK    2  A    between atoms: C_5  and  S_1 
REMARK    3  A    between atoms: S_8  and  C_3 
REMARK    4  A    between atoms: C_18  and  S_8 
REMARK    5  A    between atoms: C_17  and  C_18 
ROOT
ATOM      1  N   UNL d   1     -50.370  25.838  33.508  0.00  0.00    -0.208 N 
ATOM      2  C   UNL d   1     -49.639  26.067  33.837  0.00  0.00     0.189 A 
ATOM      3  N   UNL d   1     -49.137  25.407  33.837  0.00  0.00    -0.219 NA
ATOM      4  C   UNL d   1     -50.316  25.030  33.306  0.00  0.00     0.114 A 
ATOM      5  C   UNL d   1     -49.558  24.770  33.509  0.00  0.00     0.121 A 
ENDROOT
BRANCH   1   6
ATOM      6  S   UNL d   1     -51.031  26.330  33.403  0.00  0.00     0.273 S 
ATOM      7  O   UNL d   1     -51.512  27.000  33.309  0.00  0.00    -0.200 OA
ATOM      8  O   UNL d   1     -50.516  26.968  33.425  0.00  0.00    -0.200 OA
BRANCH   6   9
ATOM      9  C   UNL d   1     -51.567  25.698  33.379  0.00  0.00     0.104 A 
ATOM     10  C   UNL d   1     -51.278  24.927  33.337  0.00  0.00     0.014 A 
ATOM     11  C   UNL d   1     -51.820  24.303  33.313  0.00  0.00     0.012 A 
ATOM     12  C   UNL d   1     -52.631  24.450  33.331  0.00  0.00     0.058 A 
ATOM     13  C   UNL d   1     -52.914  25.223  33.374  0.00  0.00     0.012 A 
ATOM     14 CL   UNL d   1     -53.167  23.819  33.307  0.00  0.00    -0.082 Cl
ATOM     15  C   UNL d   1     -52.368  25.849  33.397  0.00  0.00     0.014 A 
ENDBRANCH   6   9
ENDBRANCH   1   6
BRANCH   2  16
ATOM     16  S   UNL d   1     -49.447  26.829  34.116  0.00  0.00    -0.049 SA
BRANCH  16  17
ATOM     17  C   UNL d   1     -48.739  26.950  34.526  0.00  0.00     0.038 C 
BRANCH  17  18
ATOM     18  C   UNL d   1     -48.610  27.661  34.916  0.00  0.00     0.007 A 
ATOM     19  C   UNL d   1     -48.159  28.260  34.568  0.00  0.00     0.013 A 
ATOM     20  C   UNL d   1     -48.032  28.970  34.961  0.00  0.00     0.068 A 
ATOM     21 CL   UNL d   1     -47.581  29.552  34.597  0.00  0.00    -0.082 Cl
ATOM     22  C   UNL d   1     -48.358  29.083  35.709  0.00  0.00     0.068 A 
ATOM     23  C   UNL d   1     -48.805  28.503  36.067  0.00  0.00     0.012 A 
ATOM     24 CL   UNL d   1     -48.225  29.799  36.098  0.00  0.00    -0.082 Cl
ATOM     25  C   UNL d   1     -48.934  27.782  35.668  0.00  0.00     0.001 A 
ENDBRANCH  17  18
ENDBRANCH  16  17
ENDBRANCH   2  16
TORSDOF 5
ENDMDL
MODEL 2
REMARK VINA RESULT:      60.3      2.465      3.178
REMARK  5 active torsions:
REMARK  status: ('A' for Active; 'I' for Inactive)
REMARK    1  A    between atoms: N_2  and  S_1 
REMARK    2  A    between atoms: C_5  and  S_1 
REMARK    3  A    between atoms: S_8  and  C_3 
REMARK    4  A    between atoms: C_18  and  S_8 
REMARK    5  A    between atoms: C_17  and  C_18 
ROOT
ATOM      1  N   UNL d   1     -50.792  26.557  33.917  0.00  0.00    -0.208 N 
ATOM      2  C   UNL d   1     -50.597  26.657  34.721  0.00  0.00     0.189 A 
ATOM      3  N   UNL d   1     -49.773  26.737  34.780  0.00  0.00    -0.219 NA
ATOM      4  C   UNL d   1     -50.083  26.577  33.478  0.00  0.00     0.114 A 
ATOM      5  C   UNL d   1     -49.460  26.687  34.012  0.00  0.00     0.121 A 
ENDROOT
BRANCH   1   6
ATOM      6  S   UNL d   1     -51.558  26.457  33.612  0.00  0.00     0.273 S 
ATOM      7  O   UNL d   1     -52.327  26.609  33.339  0.00  0.00    -0.200 OA
ATOM      8  O   UNL d   1     -51.653  27.269  33.680  0.00  0.00    -0.200 OA
BRANCH   6   9
ATOM      9  C   UNL d   1     -51.481  25.636  33.537  0.00  0.00     0.104 A 
ATOM     10  C   UNL d   1     -52.149  25.159  33.618  0.00  0.00     0.014 A 
ATOM     11  C   UNL d   1     -52.063  24.341  33.541  0.00  0.00     0.012 A 
ATOM     12  C   UNL d   1     -51.323  24.009  33.386  0.00  0.00     0.058 A 
ATOM     13  C   UNL d   1     -50.659  24.490  33.306  0.00  0.00     0.012 A 
ATOM     14 CL   UNL d   1     -51.246  23.188  33.311  0.00  0.00    -0.082 Cl
ATOM     15  C   UNL d   1     -50.748  25.313  33.384  0.00  0.00     0.014 A 
ENDBRANCH   6   9
ENDBRANCH   1   6
BRANCH   2  16
ATOM     16  S   UNL d   1     -51.137  26.673  35.357  0.00  0.00    -0.049 SA
BRANCH  16  17
ATOM     17  C   UNL d   1     -50.899  26.970  36.091  0.00  0.00     0.038 C 
BRANCH  17  18
ATOM     18  C   UNL d   1     -51.211  26.651  36.780  0.00  0.00     0.007 A 
ATOM     19  C   UNL d   1     -51.879  26.164  36.757  0.00  0.00     0.013 A 
ATOM     20  C   UNL d   1     -52.189  25.846  37.448  0.00  0.00     0.068 A 
ATOM     21 CL   UNL d   1     -52.853  25.365  37.403  0.00  0.00    -0.082 Cl
ATOM     22  C   UNL d   1     -51.829  26.017  38.170  0.00  0.00     0.068 A 
ATOM     23  C   UNL d   1     -51.171  26.495  38.210  0.00  0.00     0.012 A 
ATOM     24 CL   UNL d   1     -52.147  25.694  38.860  0.00  0.00    -0.082 Cl
ATOM     25  C   UNL d   1     -50.856  26.818  37.508  0.00  0.00     0.001 A 
ENDBRANCH  17  18
ENDBRANCH  16  17
ENDBRANCH   2  16
TORSDOF 5
ENDMDL
