MODEL 1
REMARK VINA RESULT:      -3.3      0.000      0.000
REMARK  5 active torsions:
REMARK  status: ('A' for Active; 'I' for Inactive)
REMARK    1  A    between atoms: C_3  and  S_1 
REMARK    2  A    between atoms: N_2  and  C_4 
REMARK    3  A    between atoms: N_5  and  C_16 
REMARK    4  A    between atoms: C_11  and  N_5 
REMARK    5  A    between atoms: C_17  and  C_11 
ROOT
ATOM      1  N   UNL d   1      32.995  19.740 -22.766  0.00  0.00    -0.244 NA
ENDROOT
BRANCH   1   2
ATOM      2  C   UNL d   1      32.909  18.960 -23.036  0.00  0.00     0.082 A 
ATOM      3  C   UNL d   1      33.240  18.341 -22.625  0.00  0.00     0.020 A 
ATOM      4  C   UNL d   1      33.155  17.564 -22.891  0.00  0.00     0.015 A 
ATOM      5  C   UNL d   1      32.728  17.431 -23.583  0.00  0.00     0.107 A 
ATOM      6  C   UNL d   1      32.398  18.050 -23.994  0.00  0.00     0.015 A 
ATOM      7  C   UNL d   1      32.481  18.826 -23.729  0.00  0.00     0.020 A 
BRANCH   5   8
ATOM      8  S   UNL d   1      32.640  16.648 -23.857  0.00  0.00     0.302 S 
ATOM      9  O   UNL d   1      33.241  16.779 -24.415  0.00  0.00    -0.197 OA
ATOM     10  O   UNL d   1      32.561  15.873 -24.137  0.00  0.00    -0.197 OA
ATOM     11  N   UNL d   1      32.045  16.520 -23.305  0.00  0.00    -0.043 N 
ENDBRANCH   5   8
ENDBRANCH   1   2
BRANCH   1  12
ATOM     12  C   UNL d   1      32.935  19.914 -21.974  0.00  0.00     0.099 C 
BRANCH  12  13
ATOM     13  C   UNL d   1      32.831  20.692 -21.714  0.00  0.00     0.019 A 
ATOM     14  C   UNL d   1      32.309  20.826 -21.074  0.00  0.00     0.003 A 
ATOM     15  C   UNL d   1      32.204  21.605 -20.813  0.00  0.00     0.024 A 
ATOM     16  C   UNL d   1      32.608  22.244 -21.178  0.00  0.00     0.127 A 
ATOM     17  C   UNL d   1      33.111  22.092 -21.798  0.00  0.00     0.024 A 
ATOM     18  C   UNL d   1      33.235  21.331 -22.079  0.00  0.00     0.003 A 
BRANCH  16  19
ATOM     19  N   UNL d   1      32.514  23.024 -20.930  0.00  0.00    -0.114 N 
ATOM     20  O   UNL d   1      32.972  23.310 -20.292  0.00  0.00    -0.532 OA
ATOM     21  O   UNL d   1      31.968  23.515 -21.316  0.00  0.00    -0.532 OA
ENDBRANCH  16  19
ENDBRANCH  12  13
ENDBRANCH   1  12
TORSDOF 5
ENDMDL
MODEL 2
REMARK VINA RESULT:      -3.1      2.016      5.421
REMARK  5 active torsions:
REMARK  status: ('A' for Active; 'I' for Inactive)
REMARK    1  A    between atoms: C_3  and  S_1 
REMARK    2  A    between atoms: N_2  and  C_4 
REMARK    3  A    between atoms: N_5  and  C_16 
REMARK    4  A    between atoms: C_11  and  N_5 
REMARK    5  A    between atoms: C_17  and  C_11 
ROOT
ATOM      1  N   UNL d   1      32.576  20.569 -21.627  0.00  0.00    -0.244 NA
ENDROOT
BRANCH   1   2
ATOM      2  C   UNL d   1      32.641  21.204 -21.096  0.00  0.00     0.082 A 
ATOM      3  C   UNL d   1      32.188  21.872 -21.191  0.00  0.00     0.020 A 
ATOM      4  C   UNL d   1      32.252  22.503 -20.664  0.00  0.00     0.015 A 
ATOM      5  C   UNL d   1      32.786  22.441 -20.039  0.00  0.00     0.107 A 
ATOM      6  C   UNL d   1      33.240  21.773 -19.944  0.00  0.00     0.015 A 
ATOM      7  C   UNL d   1      33.177  21.141 -20.470  0.00  0.00     0.020 A 
BRANCH   5   8
ATOM      8  S   UNL d   1      32.855  23.077 -19.503  0.00  0.00     0.302 S 
ATOM      9  O   UNL d   1      33.114  22.550 -18.917  0.00  0.00    -0.197 OA
ATOM     10  O   UNL d   1      32.926  23.701 -18.963  0.00  0.00    -0.197 OA
ATOM     11  N   UNL d   1      32.598  23.597 -20.085  0.00  0.00    -0.043 N 
ENDBRANCH   5   8
ENDBRANCH   1   2
BRANCH   1  12
ATOM     12  C   UNL d   1      33.235  20.264 -21.991  0.00  0.00     0.099 C 
BRANCH  12  13
ATOM     13  C   UNL d   1      33.172  19.671 -22.564  0.00  0.00     0.019 A 
ATOM     14  C   UNL d   1      33.238  19.890 -23.369  0.00  0.00     0.003 A 
ATOM     15  C   UNL d   1      33.175  19.296 -23.942  0.00  0.00     0.024 A 
ATOM     16  C   UNL d   1      33.047  18.495 -23.725  0.00  0.00     0.127 A 
ATOM     17  C   UNL d   1      32.986  18.303 -22.938  0.00  0.00     0.024 A 
ATOM     18  C   UNL d   1      33.044  18.869 -22.347  0.00  0.00     0.003 A 
BRANCH  16  19
ATOM     19  N   UNL d   1      32.982  17.893 -24.284  0.00  0.00    -0.114 N 
ATOM     20  O   UNL d   1      33.241  17.122 -24.090  0.00  0.00    -0.532 OA
ATOM     21  O   UNL d   1      32.660  18.059 -25.031  0.00  0.00    -0.532 OA
ENDBRANCH  16  19
ENDBRANCH  12  13
ENDBRANCH   1  12
TORSDOF 5
ENDMDL
MODEL 3
REMARK VINA RESULT:      -1.9      1.602      5.330
REMARK  5 active torsions:
REMARK  status: ('A' for Active; 'I' for Inactive)
REMARK    1  A    between atoms: C_3  and  S_1 
REMARK    2  A    between atoms: N_2  and  C_4 
REMARK    3  A    between atoms: N_5  and  C_16 
REMARK    4  A    between atoms: C_11  and  N_5 
REMARK    5  A    between atoms: C_17  and  C_11 
ROOT
ATOM      1  N   UNL d   1      32.994  19.833 -21.845  0.00  0.00    -0.244 NA
ENDROOT
BRANCH   1   2
ATOM      2  C   UNL d   1      32.896  20.613 -21.579  0.00  0.00     0.082 A 
ATOM      3  C   UNL d   1      33.235  21.234 -21.980  0.00  0.00     0.020 A 
ATOM      4  C   UNL d   1      33.138  22.010 -21.717  0.00  0.00     0.015 A 
ATOM      5  C   UNL d   1      32.689  22.141 -21.038  0.00  0.00     0.107 A 
ATOM      6  C   UNL d   1      32.350  21.520 -20.637  0.00  0.00     0.015 A 
ATOM      7  C   UNL d   1      32.446  20.744 -20.900  0.00  0.00     0.020 A 
BRANCH   5   8
ATOM      8  S   UNL d   1      32.588  22.924 -20.768  0.00  0.00     0.302 S 
ATOM      9  O   UNL d   1      32.075  23.073 -21.403  0.00  0.00    -0.197 OA
ATOM     10  O   UNL d   1      32.480  23.703 -20.508  0.00  0.00    -0.197 OA
ATOM     11  N   UNL d   1      33.096  22.774 -20.139  0.00  0.00    -0.043 N 
ENDBRANCH   5   8
ENDBRANCH   1   2
BRANCH   1  12
ATOM     12  C   UNL d   1      33.076  19.673 -22.638  0.00  0.00     0.099 C 
BRANCH  12  13
ATOM     13  C   UNL d   1      32.952  18.912 -22.936  0.00  0.00     0.019 A 
ATOM     14  C   UNL d   1      32.530  18.833 -23.654  0.00  0.00     0.003 A 
ATOM     15  C   UNL d   1      32.405  18.071 -23.953  0.00  0.00     0.024 A 
ATOM     16  C   UNL d   1      32.694  17.394 -23.548  0.00  0.00     0.127 A 
ATOM     17  C   UNL d   1      33.102  17.492 -22.853  0.00  0.00     0.024 A 
ATOM     18  C   UNL d   1      33.241  18.234 -22.532  0.00  0.00     0.003 A 
BRANCH  16  19
ATOM     19  N   UNL d   1      32.578  16.629 -23.833  0.00  0.00    -0.114 N 
ATOM     20  O   UNL d   1      33.073  16.337 -24.440  0.00  0.00    -0.532 OA
ATOM     21  O   UNL d   1      31.973  16.159 -23.513  0.00  0.00    -0.532 OA
ENDBRANCH  16  19
ENDBRANCH  12  13
ENDBRANCH   1  12
TORSDOF 5
ENDMDL
MODEL 4
REMARK VINA RESULT:      -0.7      4.095      5.862
REMARK  5 active torsions:
REMARK  status: ('A' for Active; 'I' for Inactive)
REMARK    1  A    between atoms: C_3  and  S_1 
REMARK    2  A    between atoms: N_2  and  C_4 
REMARK    3  A    between atoms: N_5  and  C_16 
REMARK    4  A    between atoms: C_11  and  N_5 
REMARK    5  A    between atoms: C_17  and  C_11 
ROOT
ATOM      1  N   UNL d   1      32.400  22.552 -20.518  0.00  0.00    -0.244 NA
ENDROOT
BRANCH   1   2
ATOM      2  C   UNL d   1      32.510  22.666 -19.704  0.00  0.00     0.082 A 
ATOM      3  C   UNL d   1      32.394  23.398 -19.369  0.00  0.00     0.020 A 
ATOM      4  C   UNL d   1      32.504  23.514 -18.559  0.00  0.00     0.015 A 
ATOM      5  C   UNL d   1      32.733  22.870 -18.098  0.00  0.00     0.107 A 
ATOM      6  C   UNL d   1      32.848  22.138 -18.433  0.00  0.00     0.015 A 
ATOM      7  C   UNL d   1      32.740  22.022 -19.242  0.00  0.00     0.020 A 
BRANCH   5   8
ATOM      8  S   UNL d   1      32.844  22.982 -17.279  0.00  0.00     0.302 S 
ATOM      9  O   UNL d   1      33.241  22.254 -17.238  0.00  0.00    -0.197 OA
ATOM     10  O   UNL d   1      32.961  23.082 -16.465  0.00  0.00    -0.197 OA
ATOM     11  N   UNL d   1      32.452  23.702 -17.321  0.00  0.00    -0.043 N 
ENDBRANCH   5   8
ENDBRANCH   1   2
BRANCH   1  12
ATOM     12  C   UNL d   1      32.392  23.185 -21.029  0.00  0.00     0.099 C 
BRANCH  12  13
ATOM     13  C   UNL d   1      32.555  23.087 -21.834  0.00  0.00     0.019 A 
ATOM     14  C   UNL d   1      32.336  23.702 -22.357  0.00  0.00     0.003 A 
ATOM     15  C   UNL d   1      32.498  23.605 -23.163  0.00  0.00     0.024 A 
ATOM     16  C   UNL d   1      32.872  22.910 -23.450  0.00  0.00     0.127 A 
ATOM     17  C   UNL d   1      33.077  22.325 -22.925  0.00  0.00     0.024 A 
ATOM     18  C   UNL d   1      32.929  22.392 -22.121  0.00  0.00     0.003 A 
BRANCH  16  19
ATOM     19  N   UNL d   1      33.040  22.798 -24.249  0.00  0.00    -0.114 N 
ATOM     20  O   UNL d   1      33.230  23.458 -24.725  0.00  0.00    -0.532 OA
ATOM     21  O   UNL d   1      33.019  22.033 -24.570  0.00  0.00    -0.532 OA
ENDBRANCH  16  19
ENDBRANCH  12  13
ENDBRANCH   1  12
TORSDOF 5
ENDMDL
