MODEL 1
REMARK VINA RESULT:      52.4      0.000      0.000
REMARK  4 active torsions:
REMARK  status: ('A' for Active; 'I' for Inactive)
REMARK    1  A    between atoms: C_10  and  N_1 
REMARK    2  A    between atoms: C_14  and  C_10 
REMARK    3  A    between atoms: O_16  and  C_12 
REMARK    4  A    between atoms: C_19  and  O_16 
ROOT
ATOM      1  N   UNL d   1     -56.388 -99.132 -44.330  0.00  0.00    -0.260 N 
ATOM      2  C   UNL d   1     -57.036 -99.186 -43.867  0.00  0.00     0.174 A 
ATOM      3  C   UNL d   1     -56.253 -99.006 -45.109  0.00  0.00     0.348 A 
ATOM      4  O   UNL d   1     -57.827 -99.138 -43.988  0.00  0.00    -0.314 OA
ATOM      5  N   UNL d   1     -56.714 -98.883 -45.742  0.00  0.00    -0.216 NA
ATOM      6  C   UNL d   1     -57.508 -98.834 -45.867  0.00  0.00     0.137 A 
ATOM      7  C   UNL d   1     -56.938 -99.002 -44.989  0.00  0.00     0.079 A 
ATOM      8  C   UNL d   1     -58.286 -99.014 -44.633  0.00  0.00     0.116 A 
ATOM      9  C   UNL d   1     -58.152 -98.889 -45.404  0.00  0.00     0.025 A 
ATOM     10  O   UNL d   1     -55.481 -99.003 -45.285  0.00  0.00    -0.245 OA
ATOM     11  C   UNL d   1     -59.041 -99.034 -44.357  0.00  0.00     0.122 A 
ATOM     12  C   UNL d   1     -57.013 -99.320 -43.074  0.00  0.00     0.055 C 
ATOM     13  C   UNL d   1     -58.763 -98.783 -45.911  0.00  0.00    -0.000 A 
ATOM     14  C   UNL d   1     -59.514 -98.803 -45.634  0.00  0.00     0.002 A 
ATOM     15  C   UNL d   1     -59.654 -98.928 -44.855  0.00  0.00     0.027 A 
ENDROOT
BRANCH   1  16
ATOM     16  C   UNL d   1     -55.603 -99.201 -44.079  0.00  0.00     0.082 C 
BRANCH  16  17
ATOM     17  C   UNL d   1     -55.353 -99.902 -43.706  0.00  0.00     0.017 A 
ATOM     18  C   UNL d   1     -55.476-100.634 -44.076  0.00  0.00     0.002 A 
ATOM     19  C   UNL d   1     -55.226-101.335 -43.702  0.00  0.00     0.000 A 
ATOM     20  C   UNL d   1     -54.854-101.300 -42.959  0.00  0.00     0.000 A 
ATOM     21  C   UNL d   1     -54.734-100.560 -42.594  0.00  0.00     0.000 A 
ATOM     22  C   UNL d   1     -54.983 -99.868 -42.966  0.00  0.00     0.002 A 
ENDBRANCH  16  17
ENDBRANCH   1  16
BRANCH  11  23
ATOM     23  O   UNL d   1     -59.181 -99.164 -43.553  0.00  0.00    -0.303 OA
BRANCH  23  24
ATOM     24  C   UNL d   1     -59.851 -98.842 -43.195  0.00  0.00     0.123 C 
ATOM     25  C   UNL d   1     -59.907 -98.828 -42.366  0.00  0.00     0.029 C 
ENDBRANCH  23  24
ENDBRANCH  11  23
TORSDOF 4
ENDMDL
