MODEL 1
REMARK VINA RESULT:      -7.3      0.000      0.000
REMARK  4 active torsions:
REMARK  status: ('A' for Active; 'I' for Inactive)
REMARK    1  A    between atoms: N_2  and  C_1 
REMARK    2  A    between atoms: N_3  and  C_1 
REMARK       I    between atoms: C_4  and  N_2 
REMARK    3  A    between atoms: C_5  and  N_3 
REMARK    4  A    between atoms: C_9  and  C_4 
ROOT
ATOM      1  C   UNL d   1      53.098  32.696  53.639  0.00  0.00     0.276 C 
ATOM      2  S   UNL d   1      53.353  31.987  53.303  0.00  0.00    -0.023 SA
ENDROOT
BRANCH   1   3
ATOM      3  N   UNL d   1      53.507  33.011  54.281  0.00  0.00    -0.168 NA
ATOM      4  C   UNL d   1      54.334  33.033  54.285  0.00  0.00     0.282 C 
ATOM      5  O   UNL d   1      54.749  32.733  53.637  0.00  0.00    -0.265 OA
BRANCH   4   6
ATOM      6  C   UNL d   1      54.741  33.350  54.930  0.00  0.00     0.058 C 
ATOM      7  C   UNL d   1      54.496  33.176  55.686  0.00  0.00     0.005 C 
ATOM      8  C   UNL d   1      55.391  33.839  54.801  0.00  0.00     0.005 C 
ENDBRANCH   4   6
ENDBRANCH   1   3
BRANCH   1   9
ATOM      9  N   UNL d   1      52.436  33.090  53.336  0.00  0.00    -0.353 NA
BRANCH   9  10
ATOM     10  C   UNL d   1      51.779  33.482  53.037  0.00  0.00     0.216 A 
ATOM     11  N   UNL d   1      51.046  33.397  53.413  0.00  0.00    -0.215 NA
ATOM     12  C   UNL d   1      50.388  33.791  53.112  0.00  0.00     0.102 A 
ATOM     13  C   UNL d   1      50.463  34.265  52.439  0.00  0.00     0.021 A 
ATOM     14  C   UNL d   1      51.186  34.347  52.070  0.00  0.00     0.006 A 
ATOM     15  C   UNL d   1      51.854  33.958  52.362  0.00  0.00     0.052 A 
ENDBRANCH   9  10
ENDBRANCH   1   9
TORSDOF 4
ENDMDL
MODEL 2
REMARK VINA RESULT:      -7.2      1.975      3.106
REMARK  4 active torsions:
REMARK  status: ('A' for Active; 'I' for Inactive)
REMARK    1  A    between atoms: N_2  and  C_1 
REMARK    2  A    between atoms: N_3  and  C_1 
REMARK       I    between atoms: C_4  and  N_2 
REMARK    3  A    between atoms: C_5  and  N_3 
REMARK    4  A    between atoms: C_9  and  C_4 
ROOT
ATOM      1  C   UNL d   1      53.850  32.912  54.132  0.00  0.00     0.276 C 
ATOM      2  S   UNL d   1      54.431  33.005  54.711  0.00  0.00    -0.023 SA
ENDROOT
BRANCH   1   3
ATOM      3  N   UNL d   1      53.497  33.579  53.801  0.00  0.00    -0.168 NA
ATOM      4  C   UNL d   1      53.272  34.218  54.276  0.00  0.00     0.282 C 
ATOM      5  O   UNL d   1      53.406  34.181  55.090  0.00  0.00    -0.265 OA
BRANCH   4   6
ATOM      6  C   UNL d   1      52.918  34.884  53.941  0.00  0.00     0.058 C 
ATOM      7  C   UNL d   1      52.946  35.595  54.334  0.00  0.00     0.005 C 
ATOM      8  C   UNL d   1      52.541  34.821  53.211  0.00  0.00     0.005 C 
ENDBRANCH   4   6
ENDBRANCH   1   3
BRANCH   1   9
ATOM      9  N   UNL d   1      53.622  32.156  53.884  0.00  0.00    -0.353 NA
BRANCH   9  10
ATOM     10  C   UNL d   1      53.394  31.407  53.636  0.00  0.00     0.216 A 
ATOM     11  N   UNL d   1      52.858  31.328  53.010  0.00  0.00    -0.215 NA
ATOM     12  C   UNL d   1      52.631  30.575  52.764  0.00  0.00     0.102 A 
ATOM     13  C   UNL d   1      52.937  29.907  53.141  0.00  0.00     0.021 A 
ATOM     14  C   UNL d   1      53.465  29.987  53.758  0.00  0.00     0.006 A 
ATOM     15  C   UNL d   1      53.702  30.735  54.015  0.00  0.00     0.052 A 
ENDBRANCH   9  10
ENDBRANCH   1   9
TORSDOF 4
ENDMDL
MODEL 3
REMARK VINA RESULT:      -7.1      1.591      2.249
REMARK  4 active torsions:
REMARK  status: ('A' for Active; 'I' for Inactive)
REMARK    1  A    between atoms: N_2  and  C_1 
REMARK    2  A    between atoms: N_3  and  C_1 
REMARK       I    between atoms: C_4  and  N_2 
REMARK    3  A    between atoms: C_5  and  N_3 
REMARK    4  A    between atoms: C_9  and  C_4 
ROOT
ATOM      1  C   UNL d   1      53.125  32.262  53.256  0.00  0.00     0.276 C 
ATOM      2  S   UNL d   1      53.842  32.542  53.553  0.00  0.00    -0.023 SA
ENDROOT
BRANCH   1   3
ATOM      3  N   UNL d   1      53.035  31.458  53.103  0.00  0.00    -0.168 NA
ATOM      4  C   UNL d   1      53.312  30.892  53.639  0.00  0.00     0.282 C 
ATOM      5  O   UNL d   1      53.683  31.142  54.334  0.00  0.00    -0.265 OA
BRANCH   4   6
ATOM      6  C   UNL d   1      53.220  30.086  53.483  0.00  0.00     0.058 C 
ATOM      7  C   UNL d   1      52.988  29.844  52.742  0.00  0.00     0.005 C 
ATOM      8  C   UNL d   1      53.365  29.537  54.080  0.00  0.00     0.005 C 
ENDBRANCH   4   6
ENDBRANCH   1   3
BRANCH   1   9
ATOM      9  N   UNL d   1      52.498  32.784  53.113  0.00  0.00    -0.353 NA
BRANCH   9  10
ATOM     10  C   UNL d   1      51.876  33.301  52.969  0.00  0.00     0.216 A 
ATOM     11  N   UNL d   1      51.189  33.252  53.429  0.00  0.00    -0.215 NA
ATOM     12  C   UNL d   1      50.567  33.771  53.283  0.00  0.00     0.102 A 
ATOM     13  C   UNL d   1      50.631  34.335  52.682  0.00  0.00     0.021 A 
ATOM     14  C   UNL d   1      51.309  34.381  52.230  0.00  0.00     0.006 A 
ATOM     15  C   UNL d   1      51.941  33.867  52.365  0.00  0.00     0.052 A 
ENDBRANCH   9  10
ENDBRANCH   1   9
TORSDOF 4
ENDMDL
MODEL 4
REMARK VINA RESULT:      -7.0      2.196      3.793
REMARK  4 active torsions:
REMARK  status: ('A' for Active; 'I' for Inactive)
REMARK    1  A    between atoms: N_2  and  C_1 
REMARK    2  A    between atoms: N_3  and  C_1 
REMARK       I    between atoms: C_4  and  N_2 
REMARK    3  A    between atoms: C_5  and  N_3 
REMARK    4  A    between atoms: C_9  and  C_4 
ROOT
ATOM      1  C   UNL d   1      53.198  31.921  53.577  0.00  0.00     0.276 C 
ATOM      2  S   UNL d   1      52.726  32.226  52.973  0.00  0.00    -0.023 SA
ENDROOT
BRANCH   1   3
ATOM      3  N   UNL d   1      53.134  31.125  53.780  0.00  0.00    -0.168 NA
ATOM      4  C   UNL d   1      53.011  30.550  53.197  0.00  0.00     0.282 C 
ATOM      5  O   UNL d   1      52.953  30.782  52.407  0.00  0.00    -0.265 OA
BRANCH   4   6
ATOM      6  C   UNL d   1      52.948  29.753  53.403  0.00  0.00     0.058 C 
ATOM      7  C   UNL d   1      52.476  29.259  52.961  0.00  0.00     0.005 C 
ATOM      8  C   UNL d   1      53.363  29.466  54.055  0.00  0.00     0.005 C 
ENDBRANCH   4   6
ENDBRANCH   1   3
BRANCH   1   9
ATOM      9  N   UNL d   1      53.732  32.408  53.980  0.00  0.00    -0.353 NA
BRANCH   9  10
ATOM     10  C   UNL d   1      54.264  32.891  54.380  0.00  0.00     0.216 A 
ATOM     11  N   UNL d   1      54.906  33.218  53.972  0.00  0.00    -0.215 NA
ATOM     12  C   UNL d   1      55.437  33.702  54.376  0.00  0.00     0.102 A 
ATOM     13  C   UNL d   1      55.327  33.856  55.180  0.00  0.00     0.021 A 
ATOM     14  C   UNL d   1      54.693  33.531  55.580  0.00  0.00     0.006 A 
ATOM     15  C   UNL d   1      54.153  33.045  55.188  0.00  0.00     0.052 A 
ENDBRANCH   9  10
ENDBRANCH   1   9
TORSDOF 4
ENDMDL
MODEL 5
REMARK VINA RESULT:      -6.9      1.157      3.731
REMARK  4 active torsions:
REMARK  status: ('A' for Active; 'I' for Inactive)
REMARK    1  A    between atoms: N_2  and  C_1 
REMARK    2  A    between atoms: N_3  and  C_1 
REMARK       I    between atoms: C_4  and  N_2 
REMARK    3  A    between atoms: C_5  and  N_3 
REMARK    4  A    between atoms: C_9  and  C_4 
ROOT
ATOM      1  C   UNL d   1      52.666  32.774  53.195  0.00  0.00     0.276 C 
ATOM      2  S   UNL d   1      52.482  31.988  53.026  0.00  0.00    -0.023 SA
ENDROOT
BRANCH   1   3
ATOM      3  N   UNL d   1      52.236  33.378  52.836  0.00  0.00    -0.168 NA
ATOM      4  C   UNL d   1      51.413  33.414  52.913  0.00  0.00     0.282 C 
ATOM      5  O   UNL d   1      51.024  32.835  53.357  0.00  0.00    -0.265 OA
BRANCH   4   6
ATOM      6  C   UNL d   1      50.984  34.021  52.553  0.00  0.00     0.058 C 
ATOM      7  C   UNL d   1      51.189  34.269  51.806  0.00  0.00     0.005 C 
ATOM      8  C   UNL d   1      50.353  34.367  52.953  0.00  0.00     0.005 C 
ENDBRANCH   4   6
ENDBRANCH   1   3
BRANCH   1   9
ATOM      9  N   UNL d   1      53.279  32.959  53.719  0.00  0.00    -0.353 NA
BRANCH   9  10
ATOM     10  C   UNL d   1      53.888  33.143  54.240  0.00  0.00     0.216 A 
ATOM     11  N   UNL d   1      53.771  33.053  55.054  0.00  0.00    -0.215 NA
ATOM     12  C   UNL d   1      54.383  33.238  55.574  0.00  0.00     0.102 A 
ATOM     13  C   UNL d   1      55.106  33.510  55.281  0.00  0.00     0.021 A 
ATOM     14  C   UNL d   1      55.219  33.597  54.477  0.00  0.00     0.006 A 
ATOM     15  C   UNL d   1      54.614  33.416  53.945  0.00  0.00     0.052 A 
ENDBRANCH   9  10
ENDBRANCH   1   9
TORSDOF 4
ENDMDL
