MODEL 1
REMARK VINA RESULT:      -5.5      0.000      0.000
REMARK  6 active torsions:
REMARK  status: ('A' for Active; 'I' for Inactive)
REMARK    1  A    between atoms: N_6  and  C_1 
REMARK    2  A    between atoms: C_3  and  N_6 
REMARK    3  A    between atoms: N_4  and  C_3 
REMARK       I    between atoms: C_9  and  N_4 
REMARK    4  A    between atoms: C_12  and  C_9 
REMARK    5  A    between atoms: C_10  and  C_13 
REMARK    6  A    between atoms: C_16  and  C_10 
ROOT
ATOM      1  N   UNL d   1     -44.275  13.449  21.771  0.00  0.00    -0.179 NA
ATOM      2  C   UNL d   1     -43.608  13.034  21.618  0.00  0.00     0.281 C 
ATOM      3  O   UNL d   1     -43.619  12.194  21.697  0.00  0.00    -0.265 OA
ENDROOT
BRANCH   2   4
ATOM      4  C   UNL d   1     -42.905  13.386  21.385  0.00  0.00     0.058 A 
ATOM      5  C   UNL d   1     -42.842  14.202  21.283  0.00  0.00     0.005 A 
ATOM      6  C   UNL d   1     -42.170  14.539  21.061  0.00  0.00     0.003 A 
ATOM      7  C   UNL d   1     -41.493  14.092  20.918  0.00  0.00     0.039 A 
ATOM      8  C   UNL d   1     -41.551  13.274  21.019  0.00  0.00     0.003 A 
ATOM      9  C   UNL d   1     -42.223  12.937  21.242  0.00  0.00     0.005 A 
BRANCH   7  10
ATOM     10  C   UNL d   1     -40.789  14.445  20.685  0.00  0.00     0.196 C 
ATOM     11  O   UNL d   1     -40.167  14.570  21.215  0.00  0.00    -0.287 OA
BRANCH  10  12
ATOM     12  C   UNL d   1     -40.664  14.695  19.903  0.00  0.00     0.039 A 
ATOM     13  C   UNL d   1     -40.527  14.185  19.325  0.00  0.00     0.003 A 
ATOM     14  C   UNL d   1     -40.403  14.437  18.551  0.00  0.00     0.000 A 
ATOM     15  C   UNL d   1     -40.429  15.250  18.409  0.00  0.00     0.000 A 
ATOM     16  C   UNL d   1     -40.567  15.760  18.987  0.00  0.00     0.000 A 
ATOM     17  C   UNL d   1     -40.692  15.510  19.769  0.00  0.00     0.003 A 
ENDBRANCH  10  12
ENDBRANCH   7  10
ENDBRANCH   2   4
BRANCH   1  18
ATOM     18  C   UNL d   1     -44.927  13.072  21.991  0.00  0.00     0.225 C 
ATOM     19  S   UNL d   1     -45.281  12.516  21.531  0.00  0.00    -0.037 SA
BRANCH  18  20
ATOM     20  N   UNL d   1     -45.286  13.245  22.739  0.00  0.00    -0.192 NA
BRANCH  20  21
ATOM     21  C   UNL d   1     -46.034  13.598  22.742  0.00  0.00     0.196 A 
ATOM     22  N   UNL d   1     -46.227  14.334  22.507  0.00  0.00    -0.221 NA
ATOM     23  C   UNL d   1     -47.033  14.405  22.624  0.00  0.00     0.090 A 
ATOM     24  C   UNL d   1     -47.560  15.027  22.490  0.00  0.00     0.020 A 
ATOM     25  C   UNL d   1     -47.292  13.681  22.934  0.00  0.00     0.050 A 
ATOM     26  C   UNL d   1     -48.359  14.901  22.677  0.00  0.00     0.002 A 
ATOM     27  C   UNL d   1     -48.618  14.177  22.987  0.00  0.00     0.001 A 
ATOM     28  C   UNL d   1     -48.075  13.586  23.107  0.00  0.00     0.008 A 
ATOM     29  S   UNL d   1     -46.630  13.203  22.992  0.00  0.00    -0.047 SA
ENDBRANCH  20  21
ENDBRANCH  18  20
ENDBRANCH   1  18
TORSDOF 6
ENDMDL
MODEL 2
REMARK VINA RESULT:      -5.3      1.800      6.236
REMARK  6 active torsions:
REMARK  status: ('A' for Active; 'I' for Inactive)
REMARK    1  A    between atoms: N_6  and  C_1 
REMARK    2  A    between atoms: C_3  and  N_6 
REMARK    3  A    between atoms: N_4  and  C_3 
REMARK       I    between atoms: C_9  and  N_4 
REMARK    4  A    between atoms: C_12  and  C_9 
REMARK    5  A    between atoms: C_10  and  C_13 
REMARK    6  A    between atoms: C_16  and  C_10 
ROOT
ATOM      1  N   UNL d   1     -43.749  13.135  21.676  0.00  0.00    -0.179 NA
ATOM      2  C   UNL d   1     -44.237  12.625  22.052  0.00  0.00     0.281 C 
ATOM      3  O   UNL d   1     -43.950  11.860  22.261  0.00  0.00    -0.265 OA
ENDROOT
BRANCH   2   4
ATOM      4  C   UNL d   1     -45.011  12.809  22.249  0.00  0.00     0.058 A 
ATOM      5  C   UNL d   1     -45.422  13.416  21.871  0.00  0.00     0.005 A 
ATOM      6  C   UNL d   1     -46.162  13.592  22.059  0.00  0.00     0.003 A 
ATOM      7  C   UNL d   1     -46.566  13.177  22.643  0.00  0.00     0.039 A 
ATOM      8  C   UNL d   1     -46.160  12.567  23.026  0.00  0.00     0.003 A 
ATOM      9  C   UNL d   1     -45.419  12.392  22.838  0.00  0.00     0.005 A 
BRANCH   7  10
ATOM     10  C   UNL d   1     -47.342  13.361  22.840  0.00  0.00     0.196 C 
ATOM     11  O   UNL d   1     -47.526  13.974  23.363  0.00  0.00    -0.287 OA
BRANCH  10  12
ATOM     12  C   UNL d   1     -47.985  12.939  22.524  0.00  0.00     0.039 A 
ATOM     13  C   UNL d   1     -48.229  12.265  22.838  0.00  0.00     0.003 A 
ATOM     14  C   UNL d   1     -48.866  11.851  22.522  0.00  0.00     0.000 A 
ATOM     15  C   UNL d   1     -49.237  12.175  21.859  0.00  0.00     0.000 A 
ATOM     16  C   UNL d   1     -48.993  12.850  21.546  0.00  0.00     0.000 A 
ATOM     17  C   UNL d   1     -48.351  13.271  21.861  0.00  0.00     0.003 A 
ENDBRANCH  10  12
ENDBRANCH   7  10
ENDBRANCH   2   4
BRANCH   1  18
ATOM     18  C   UNL d   1     -43.013  12.919  21.506  0.00  0.00     0.225 C 
ATOM     19  S   UNL d   1     -42.574  12.458  21.998  0.00  0.00    -0.037 SA
BRANCH  18  20
ATOM     20  N   UNL d   1     -42.652  13.171  20.783  0.00  0.00    -0.192 NA
BRANCH  20  21
ATOM     21  C   UNL d   1     -42.095  13.782  20.815  0.00  0.00     0.196 A 
ATOM     22  N   UNL d   1     -42.218  14.544  21.005  0.00  0.00    -0.221 NA
ATOM     23  C   UNL d   1     -41.489  14.912  20.953  0.00  0.00     0.090 A 
ATOM     24  C   UNL d   1     -41.251  15.692  21.081  0.00  0.00     0.020 A 
ATOM     25  C   UNL d   1     -40.946  14.328  20.725  0.00  0.00     0.050 A 
ATOM     26  C   UNL d   1     -40.447  15.872  20.973  0.00  0.00     0.002 A 
ATOM     27  C   UNL d   1     -39.904  15.288  20.746  0.00  0.00     0.001 A 
ATOM     28  C   UNL d   1     -40.171  14.530  20.628  0.00  0.00     0.008 A 
ATOM     29  S   UNL d   1     -41.370  13.632  20.650  0.00  0.00    -0.047 SA
ENDBRANCH  20  21
ENDBRANCH  18  20
ENDBRANCH   1  18
TORSDOF 6
ENDMDL
