MODEL 1
REMARK VINA RESULT:      -6.6      0.000      0.000
REMARK  6 active torsions:
REMARK  status: ('A' for Active; 'I' for Inactive)
REMARK    1  A    between atoms: C_2  and  C_1 
REMARK       I    between atoms: N_6  and  C_1 
REMARK    2  A    between atoms: O_15  and  C_3 
REMARK    3  A    between atoms: O_17  and  C_4 
REMARK    4  A    between atoms: O_16  and  C_5 
REMARK    5  A    between atoms: C_12  and  N_6 
REMARK    6  A    between atoms: N_11  and  C_9 
ROOT
ATOM      1  C   UNL d   1     -48.186  14.308  22.595  0.00  0.00     0.074 A 
ATOM      2  C   UNL d   1     -49.824  14.202  22.468  0.00  0.00     0.138 A 
ATOM      3  C   UNL d   1     -49.345  13.821  21.925  0.00  0.00     0.118 A 
ATOM      4  C   UNL d   1     -49.479  14.636  23.073  0.00  0.00     0.118 A 
ATOM      5  C   UNL d   1     -48.529  13.867  21.978  0.00  0.00     0.032 A 
ATOM      6  C   UNL d   1     -48.659  14.697  23.149  0.00  0.00     0.032 A 
ENDROOT
BRANCH   1   7
ATOM      7  C   UNL d   1     -47.365  14.361  22.658  0.00  0.00     0.328 C 
ATOM      8  N   UNL d   1     -46.928  13.686  22.807  0.00  0.00    -0.365 NA
ATOM      9  O   UNL d   1     -46.989  15.092  22.572  0.00  0.00    -0.251 OA
BRANCH   8  10
ATOM     10  C   UNL d   1     -46.481  13.011  22.956  0.00  0.00     0.135 A 
ATOM     11  C   UNL d   1     -46.712  12.472  23.543  0.00  0.00     0.034 A 
ATOM     12  C   UNL d   1     -46.265  11.797  23.692  0.00  0.00     0.020 A 
ATOM     13  C   UNL d   1     -45.586  11.654  23.258  0.00  0.00     0.064 A 
ATOM     14  C   UNL d   1     -45.350  12.186  22.673  0.00  0.00     0.020 A 
ATOM     15  C   UNL d   1     -45.802  12.868  22.522  0.00  0.00     0.034 A 
BRANCH  13  16
ATOM     16  N   UNL d   1     -45.135  10.975  23.407  0.00  0.00    -0.301 N 
ATOM     17  C   UNL d   1     -45.504  10.292  23.692  0.00  0.00     0.100 C 
ATOM     18  C   UNL d   1     -44.312  10.983  23.268  0.00  0.00     0.100 C 
ENDBRANCH  13  16
ENDBRANCH   8  10
ENDBRANCH   1   7
BRANCH   3  19
ATOM     19  O   UNL d   1     -49.687  13.384  21.314  0.00  0.00    -0.326 OA
ATOM     20  C   UNL d   1     -49.394  12.618  21.137  0.00  0.00     0.181 C 
ENDBRANCH   3  19
BRANCH   4  21
ATOM     21  O   UNL d   1     -49.968  15.024  23.627  0.00  0.00    -0.326 OA
ATOM     22  C   UNL d   1     -49.954  15.855  23.680  0.00  0.00     0.181 C 
ENDBRANCH   4  21
BRANCH   2  23
ATOM     23  O   UNL d   1     -50.644  14.150  22.405  0.00  0.00    -0.324 OA
ATOM     24  C   UNL d   1     -51.064  13.588  22.836  0.00  0.00     0.182 C 
ENDBRANCH   2  23
TORSDOF 6
ENDMDL
MODEL 2
REMARK VINA RESULT:      -6.2      8.154      9.564
REMARK  6 active torsions:
REMARK  status: ('A' for Active; 'I' for Inactive)
REMARK    1  A    between atoms: C_2  and  C_1 
REMARK       I    between atoms: N_6  and  C_1 
REMARK    2  A    between atoms: O_15  and  C_3 
REMARK    3  A    between atoms: O_17  and  C_4 
REMARK    4  A    between atoms: O_16  and  C_5 
REMARK    5  A    between atoms: C_12  and  N_6 
REMARK    6  A    between atoms: N_11  and  C_9 
ROOT
ATOM      1  C   UNL d   1     -40.277  14.360  18.441  0.00  0.00     0.074 A 
ATOM      2  C   UNL d   1     -39.632  14.868  17.014  0.00  0.00     0.138 A 
ATOM      3  C   UNL d   1     -39.294  14.241  17.418  0.00  0.00     0.118 A 
ATOM      4  C   UNL d   1     -40.293  15.237  17.328  0.00  0.00     0.118 A 
ATOM      5  C   UNL d   1     -39.606  13.980  18.128  0.00  0.00     0.032 A 
ATOM      6  C   UNL d   1     -40.628  14.993  18.043  0.00  0.00     0.032 A 
ENDROOT
BRANCH   1   7
ATOM      7  C   UNL d   1     -40.601  14.105  19.156  0.00  0.00     0.328 C 
ATOM      8  N   UNL d   1     -40.236  14.310  19.860  0.00  0.00    -0.365 NA
ATOM      9  O   UNL d   1     -41.288  13.647  19.161  0.00  0.00    -0.251 OA
BRANCH   8  10
ATOM     10  C   UNL d   1     -39.875  14.512  20.571  0.00  0.00     0.135 A 
ATOM     11  C   UNL d   1     -39.067  14.367  20.691  0.00  0.00     0.034 A 
ATOM     12  C   UNL d   1     -38.705  14.569  21.402  0.00  0.00     0.020 A 
ATOM     13  C   UNL d   1     -39.146  14.917  21.998  0.00  0.00     0.064 A 
ATOM     14  C   UNL d   1     -39.950  15.065  21.885  0.00  0.00     0.020 A 
ATOM     15  C   UNL d   1     -40.315  14.860  21.166  0.00  0.00     0.034 A 
BRANCH  13  16
ATOM     16  N   UNL d   1     -38.784  15.121  22.715  0.00  0.00    -0.301 N 
ATOM     17  C   UNL d   1     -38.664  15.919  22.900  0.00  0.00     0.100 C 
ATOM     18  C   UNL d   1     -38.543  14.524  23.246  0.00  0.00     0.100 C 
ENDBRANCH  13  16
ENDBRANCH   8  10
ENDBRANCH   1   7
BRANCH   3  19
ATOM     19  O   UNL d   1     -38.628  13.866  17.105  0.00  0.00    -0.326 OA
ATOM     20  C   UNL d   1     -38.515  13.044  17.235  0.00  0.00     0.181 C 
ENDBRANCH   3  19
BRANCH   4  21
ATOM     21  O   UNL d   1     -40.638  15.876  16.916  0.00  0.00    -0.326 OA
ATOM     22  C   UNL d   1     -41.466  15.922  16.842  0.00  0.00     0.181 C 
ENDBRANCH   4  21
BRANCH   2  23
ATOM     23  O   UNL d   1     -39.310  15.122  16.299  0.00  0.00    -0.324 OA
ATOM     24  C   UNL d   1     -38.502  15.264  16.230  0.00  0.00     0.182 C 
ENDBRANCH   2  23
TORSDOF 6
ENDMDL
MODEL 3
REMARK VINA RESULT:      -5.9      0.334      1.662
REMARK  6 active torsions:
REMARK  status: ('A' for Active; 'I' for Inactive)
REMARK    1  A    between atoms: C_2  and  C_1 
REMARK       I    between atoms: N_6  and  C_1 
REMARK    2  A    between atoms: O_15  and  C_3 
REMARK    3  A    between atoms: O_17  and  C_4 
REMARK    4  A    between atoms: O_16  and  C_5 
REMARK    5  A    between atoms: C_12  and  N_6 
REMARK    6  A    between atoms: N_11  and  C_9 
ROOT
ATOM      1  C   UNL d   1     -48.287  14.309  22.544  0.00  0.00     0.074 A 
ATOM      2  C   UNL d   1     -49.911  14.144  22.331  0.00  0.00     0.138 A 
ATOM      3  C   UNL d   1     -49.622  14.662  22.894  0.00  0.00     0.118 A 
ATOM      4  C   UNL d   1     -49.384  13.710  21.877  0.00  0.00     0.118 A 
ATOM      5  C   UNL d   1     -48.816  14.753  23.009  0.00  0.00     0.032 A 
ATOM      6  C   UNL d   1     -48.567  13.783  21.973  0.00  0.00     0.032 A 
ENDROOT
BRANCH   1   7
ATOM      7  C   UNL d   1     -47.473  14.392  22.651  0.00  0.00     0.328 C 
ATOM      8  N   UNL d   1     -47.014  13.728  22.787  0.00  0.00    -0.365 NA
ATOM      9  O   UNL d   1     -47.125  15.141  22.622  0.00  0.00    -0.251 OA
BRANCH   8  10
ATOM     10  C   UNL d   1     -46.547  13.065  22.923  0.00  0.00     0.135 A 
ATOM     11  C   UNL d   1     -46.706  12.558  23.561  0.00  0.00     0.034 A 
ATOM     12  C   UNL d   1     -46.238  11.895  23.697  0.00  0.00     0.020 A 
ATOM     13  C   UNL d   1     -45.609  11.732  23.200  0.00  0.00     0.064 A 
ATOM     14  C   UNL d   1     -45.444  12.231  22.564  0.00  0.00     0.020 A 
ATOM     15  C   UNL d   1     -45.917  12.902  22.426  0.00  0.00     0.034 A 
BRANCH  13  16
ATOM     16  N   UNL d   1     -45.137  11.065  23.336  0.00  0.00    -0.301 N 
ATOM     17  C   UNL d   1     -44.334  11.083  23.136  0.00  0.00     0.100 C 
ATOM     18  C   UNL d   1     -45.472  10.378  23.673  0.00  0.00     0.100 C 
ENDBRANCH  13  16
ENDBRANCH   8  10
ENDBRANCH   1   7
BRANCH   3  19
ATOM     19  O   UNL d   1     -50.149  15.101  23.355  0.00  0.00    -0.326 OA
ATOM     20  C   UNL d   1     -49.932  15.869  23.614  0.00  0.00     0.181 C 
ENDBRANCH   3  19
BRANCH   4  21
ATOM     21  O   UNL d   1     -49.679  13.181  21.302  0.00  0.00    -0.326 OA
ATOM     22  C   UNL d   1     -49.158  12.670  20.903  0.00  0.00     0.181 C 
ENDBRANCH   4  21
BRANCH   2  23
ATOM     23  O   UNL d   1     -50.724  14.060  22.224  0.00  0.00    -0.324 OA
ATOM     24  C   UNL d   1     -51.042  13.973  21.470  0.00  0.00     0.182 C 
ENDBRANCH   2  23
TORSDOF 6
ENDMDL
MODEL 4
REMARK VINA RESULT:      -5.7      7.995      9.912
REMARK  6 active torsions:
REMARK  status: ('A' for Active; 'I' for Inactive)
REMARK    1  A    between atoms: C_2  and  C_1 
REMARK       I    between atoms: N_6  and  C_1 
REMARK    2  A    between atoms: O_15  and  C_3 
REMARK    3  A    between atoms: O_17  and  C_4 
REMARK    4  A    between atoms: O_16  and  C_5 
REMARK    5  A    between atoms: C_12  and  N_6 
REMARK    6  A    between atoms: N_11  and  C_9 
ROOT
ATOM      1  C   UNL d   1     -40.191  14.345  19.575  0.00  0.00     0.074 A 
ATOM      2  C   UNL d   1     -39.629  14.852  21.037  0.00  0.00     0.138 A 
ATOM      3  C   UNL d   1     -39.219  14.284  20.614  0.00  0.00     0.118 A 
ATOM      4  C   UNL d   1     -40.320  15.163  20.724  0.00  0.00     0.118 A 
ATOM      5  C   UNL d   1     -39.489  14.024  19.885  0.00  0.00     0.032 A 
ATOM      6  C   UNL d   1     -40.614  14.919  19.992  0.00  0.00     0.032 A 
ENDROOT
BRANCH   1   7
ATOM      7  C   UNL d   1     -40.473  14.091  18.841  0.00  0.00     0.328 C 
ATOM      8  N   UNL d   1     -40.015  14.205  18.172  0.00  0.00    -0.365 NA
ATOM      9  O   UNL d   1     -41.211  13.726  18.786  0.00  0.00    -0.251 OA
BRANCH   8  10
ATOM     10  C   UNL d   1     -39.561  14.315  17.495  0.00  0.00     0.135 A 
ATOM     11  C   UNL d   1     -39.544  15.051  17.112  0.00  0.00     0.034 A 
ATOM     12  C   UNL d   1     -39.090  15.162  16.435  0.00  0.00     0.020 A 
ATOM     13  C   UNL d   1     -38.651  14.541  16.135  0.00  0.00     0.064 A 
ATOM     14  C   UNL d   1     -38.662  13.806  16.510  0.00  0.00     0.020 A 
ATOM     15  C   UNL d   1     -39.122  13.694  17.195  0.00  0.00     0.034 A 
BRANCH  13  16
ATOM     16  N   UNL d   1     -38.192  14.650  15.453  0.00  0.00    -0.301 N 
ATOM     17  C   UNL d   1     -37.988  13.997  14.988  0.00  0.00     0.100 C 
ATOM     18  C   UNL d   1     -37.940  15.416  15.238  0.00  0.00     0.100 C 
ENDBRANCH  13  16
ENDBRANCH   8  10
ENDBRANCH   1   7
BRANCH   3  19
ATOM     19  O   UNL d   1     -38.522  13.967  20.924  0.00  0.00    -0.326 OA
ATOM     20  C   UNL d   1     -38.059  13.446  20.457  0.00  0.00     0.181 C 
ENDBRANCH   3  19
BRANCH   4  21
ATOM     21  O   UNL d   1     -40.738  15.743  21.156  0.00  0.00    -0.326 OA
ATOM     22  C   UNL d   1     -41.526  15.922  20.954  0.00  0.00     0.181 C 
ENDBRANCH   4  21
BRANCH   2  23
ATOM     23  O   UNL d   1     -39.348  15.105  21.769  0.00  0.00    -0.324 OA
ATOM     24  C   UNL d   1     -39.648  14.789  22.467  0.00  0.00     0.182 C 
ENDBRANCH   2  23
TORSDOF 6
ENDMDL
MODEL 5
REMARK VINA RESULT:      -5.1      1.420      1.972
REMARK  6 active torsions:
REMARK  status: ('A' for Active; 'I' for Inactive)
REMARK    1  A    between atoms: C_2  and  C_1 
REMARK       I    between atoms: N_6  and  C_1 
REMARK    2  A    between atoms: O_15  and  C_3 
REMARK    3  A    between atoms: O_17  and  C_4 
REMARK    4  A    between atoms: O_16  and  C_5 
REMARK    5  A    between atoms: C_12  and  N_6 
REMARK    6  A    between atoms: N_11  and  C_9 
ROOT
ATOM      1  C   UNL d   1     -48.315  13.454  22.817  0.00  0.00     0.074 A 
ATOM      2  C   UNL d   1     -49.680  12.557  22.614  0.00  0.00     0.138 A 
ATOM      3  C   UNL d   1     -49.537  13.202  22.131  0.00  0.00     0.118 A 
ATOM      4  C   UNL d   1     -49.138  12.365  23.197  0.00  0.00     0.118 A 
ATOM      5  C   UNL d   1     -48.861  13.655  22.222  0.00  0.00     0.032 A 
ATOM      6  C   UNL d   1     -48.448  12.805  23.311  0.00  0.00     0.032 A 
ENDROOT
BRANCH   1   7
ATOM      7  C   UNL d   1     -47.630  13.903  22.919  0.00  0.00     0.328 C 
ATOM      8  N   UNL d   1     -46.901  13.571  22.750  0.00  0.00    -0.365 NA
ATOM      9  O   UNL d   1     -47.682  14.682  23.189  0.00  0.00    -0.251 OA
BRANCH   8  10
ATOM     10  C   UNL d   1     -46.165  13.245  22.583  0.00  0.00     0.135 A 
ATOM     11  C   UNL d   1     -45.682  13.570  21.992  0.00  0.00     0.034 A 
ATOM     12  C   UNL d   1     -44.945  13.244  21.825  0.00  0.00     0.020 A 
ATOM     13  C   UNL d   1     -44.685  12.592  22.245  0.00  0.00     0.064 A 
ATOM     14  C   UNL d   1     -45.159  12.263  22.834  0.00  0.00     0.020 A 
ATOM     15  C   UNL d   1     -45.904  12.593  23.003  0.00  0.00     0.034 A 
BRANCH  13  16
ATOM     16  N   UNL d   1     -43.943  12.261  22.078  0.00  0.00    -0.301 N 
ATOM     17  C   UNL d   1     -43.677  11.610  22.514  0.00  0.00     0.100 C 
ATOM     18  C   UNL d   1     -43.469  12.586  21.472  0.00  0.00     0.100 C 
ENDBRANCH  13  16
ENDBRANCH   8  10
ENDBRANCH   1   7
BRANCH   3  19
ATOM     19  O   UNL d   1     -50.080  13.400  21.541  0.00  0.00    -0.326 OA
ATOM     20  C   UNL d   1     -50.222  14.207  21.360  0.00  0.00     0.181 C 
ENDBRANCH   3  19
BRANCH   4  21
ATOM     21  O   UNL d   1     -49.284  11.707  23.690  0.00  0.00    -0.326 OA
ATOM     22  C   UNL d   1     -48.751  11.068  23.697  0.00  0.00     0.181 C 
ENDBRANCH   4  21
BRANCH   2  23
ATOM     23  O   UNL d   1     -50.364  12.108  22.512  0.00  0.00    -0.324 OA
ATOM     24  C   UNL d   1     -50.997  12.182  23.033  0.00  0.00     0.182 C 
ENDBRANCH   2  23
TORSDOF 6
ENDMDL
MODEL 6
REMARK VINA RESULT:      -4.6      7.985      9.476
REMARK  6 active torsions:
REMARK  status: ('A' for Active; 'I' for Inactive)
REMARK    1  A    between atoms: C_2  and  C_1 
REMARK       I    between atoms: N_6  and  C_1 
REMARK    2  A    between atoms: O_15  and  C_3 
REMARK    3  A    between atoms: O_17  and  C_4 
REMARK    4  A    between atoms: O_16  and  C_5 
REMARK    5  A    between atoms: C_12  and  N_6 
REMARK    6  A    between atoms: N_11  and  C_9 
ROOT
ATOM      1  C   UNL d   1     -39.273  15.447  18.665  0.00  0.00     0.074 A 
ATOM      2  C   UNL d   1     -40.604  15.317  17.706  0.00  0.00     0.138 A 
ATOM      3  C   UNL d   1     -40.665  15.651  18.450  0.00  0.00     0.118 A 
ATOM      4  C   UNL d   1     -39.874  15.050  17.445  0.00  0.00     0.118 A 
ATOM      5  C   UNL d   1     -40.010  15.721  18.937  0.00  0.00     0.032 A 
ATOM      6  C   UNL d   1     -39.198  15.109  17.915  0.00  0.00     0.032 A 
ENDROOT
BRANCH   1   7
ATOM      7  C   UNL d   1     -38.605  15.512  19.146  0.00  0.00     0.328 C 
ATOM      8  N   UNL d   1     -38.608  15.169  19.889  0.00  0.00    -0.365 NA
ATOM      9  O   UNL d   1     -37.940  15.922  18.878  0.00  0.00    -0.251 OA
BRANCH   8  10
ATOM     10  C   UNL d   1     -38.604  14.826  20.637  0.00  0.00     0.135 A 
ATOM     11  C   UNL d   1     -38.691  15.293  21.317  0.00  0.00     0.034 A 
ATOM     12  C   UNL d   1     -38.686  14.950  22.065  0.00  0.00     0.020 A 
ATOM     13  C   UNL d   1     -38.595  14.141  22.141  0.00  0.00     0.064 A 
ATOM     14  C   UNL d   1     -38.508  13.669  21.469  0.00  0.00     0.020 A 
ATOM     15  C   UNL d   1     -38.512  14.016  20.712  0.00  0.00     0.034 A 
BRANCH  13  16
ATOM     16  N   UNL d   1     -38.590  13.793  22.893  0.00  0.00    -0.301 N 
ATOM     17  C   UNL d   1     -38.254  14.200  23.530  0.00  0.00     0.100 C 
ATOM     18  C   UNL d   1     -38.923  13.036  23.005  0.00  0.00     0.100 C 
ENDBRANCH  13  16
ENDBRANCH   8  10
ENDBRANCH   1   7
BRANCH   3  19
ATOM     19  O   UNL d   1     -41.399  15.922  18.717  0.00  0.00    -0.326 OA
ATOM     20  C   UNL d   1     -41.568  15.920  19.539  0.00  0.00     0.181 C 
ENDBRANCH   3  19
BRANCH   4  21
ATOM     21  O   UNL d   1     -39.811  14.710  16.685  0.00  0.00    -0.326 OA
ATOM     22  C   UNL d   1     -39.067  14.474  16.397  0.00  0.00     0.181 C 
ENDBRANCH   4  21
BRANCH   2  23
ATOM     23  O   UNL d   1     -41.271  15.252  17.225  0.00  0.00    -0.324 OA
ATOM     24  C   UNL d   1     -41.491  15.869  16.726  0.00  0.00     0.182 C 
ENDBRANCH   2  23
TORSDOF 6
ENDMDL
MODEL 7
REMARK VINA RESULT:      -4.2      1.332      1.743
REMARK  6 active torsions:
REMARK  status: ('A' for Active; 'I' for Inactive)
REMARK    1  A    between atoms: C_2  and  C_1 
REMARK       I    between atoms: N_6  and  C_1 
REMARK    2  A    between atoms: O_15  and  C_3 
REMARK    3  A    between atoms: O_17  and  C_4 
REMARK    4  A    between atoms: O_16  and  C_5 
REMARK    5  A    between atoms: C_12  and  N_6 
REMARK    6  A    between atoms: N_11  and  C_9 
ROOT
ATOM      1  C   UNL d   1     -48.411  13.001  22.755  0.00  0.00     0.074 A 
ATOM      2  C   UNL d   1     -49.518  14.003  22.061  0.00  0.00     0.138 A 
ATOM      3  C   UNL d   1     -49.520  13.204  21.885  0.00  0.00     0.118 A 
ATOM      4  C   UNL d   1     -48.960  14.296  22.585  0.00  0.00     0.118 A 
ATOM      5  C   UNL d   1     -48.974  12.696  22.224  0.00  0.00     0.032 A 
ATOM      6  C   UNL d   1     -48.398  13.806  22.940  0.00  0.00     0.032 A 
ENDROOT
BRANCH   1   7
ATOM      7  C   UNL d   1     -47.856  12.499  23.103  0.00  0.00     0.328 C 
ATOM      8  N   UNL d   1     -47.076  12.525  22.854  0.00  0.00    -0.365 NA
ATOM      9  O   UNL d   1     -48.086  11.975  23.698  0.00  0.00    -0.251 OA
BRANCH   8  10
ATOM     10  C   UNL d   1     -46.291  12.546  22.609  0.00  0.00     0.135 A 
ATOM     11  C   UNL d   1     -46.074  12.949  21.916  0.00  0.00     0.034 A 
ATOM     12  C   UNL d   1     -45.289  12.969  21.671  0.00  0.00     0.020 A 
ATOM     13  C   UNL d   1     -44.715  12.589  22.113  0.00  0.00     0.064 A 
ATOM     14  C   UNL d   1     -44.923  12.186  22.803  0.00  0.00     0.020 A 
ATOM     15  C   UNL d   1     -45.717  12.166  23.051  0.00  0.00     0.034 A 
BRANCH  13  16
ATOM     16  N   UNL d   1     -43.924  12.608  21.868  0.00  0.00    -0.301 N 
ATOM     17  C   UNL d   1     -43.406  12.009  22.109  0.00  0.00     0.100 C 
ATOM     18  C   UNL d   1     -43.653  13.230  21.381  0.00  0.00     0.100 C 
ENDBRANCH  13  16
ENDBRANCH   8  10
ENDBRANCH   1   7
BRANCH   3  19
ATOM     19  O   UNL d   1     -50.080  12.902  21.358  0.00  0.00    -0.326 OA
ATOM     20  C   UNL d   1     -50.349  12.112  21.444  0.00  0.00     0.181 C 
ENDBRANCH   3  19
BRANCH   4  21
ATOM     21  O   UNL d   1     -48.958  15.112  22.764  0.00  0.00    -0.326 OA
ATOM     22  C   UNL d   1     -48.279  15.568  22.610  0.00  0.00     0.181 C 
ENDBRANCH   4  21
BRANCH   2  23
ATOM     23  O   UNL d   1     -50.072  14.504  21.714  0.00  0.00    -0.324 OA
ATOM     24  C   UNL d   1     -50.721  14.775  22.142  0.00  0.00     0.182 C 
ENDBRANCH   2  23
TORSDOF 6
ENDMDL
