MODEL 1
REMARK VINA RESULT:      22.3      0.000      0.000
REMARK  3 active torsions:
REMARK  status: ('A' for Active; 'I' for Inactive)
REMARK    1  A    between atoms: C_6  and  C_2 
REMARK       I    between atoms: N_8  and  C_6 
REMARK    2  A    between atoms: C_14  and  N_8 
REMARK    3  A    between atoms: C_15  and  C_14 
ROOT
ATOM      1  N   UNL d   1      57.856  49.640  50.065  0.00  0.00    -0.252 N 
ATOM      2  C   UNL d   1      59.263  49.649  50.293  0.00  0.00     0.133 A 
ATOM      3  C   UNL d   1      58.625  49.624  49.773  0.00  0.00     0.272 A 
ATOM      4  C   UNL d   1      57.724  49.682  50.879  0.00  0.00     0.182 A 
ATOM      5  N   UNL d   1      58.361  49.707  51.400  0.00  0.00    -0.220 NA
ATOM      6  C   UNL d   1      59.131  49.691  51.106  0.00  0.00     0.111 A 
ATOM      7  S   UNL d   1      56.905  49.690  51.008  0.00  0.00    -0.048 SA
ATOM      8  O   UNL d   1      58.757  49.582  48.960  0.00  0.00    -0.266 OA
ATOM      9  C   UNL d   1      57.118  49.623  49.693  0.00  0.00     0.092 A 
ATOM     10  C   UNL d   1      56.538  49.653  50.278  0.00  0.00     0.057 A 
ENDROOT
BRANCH   2  11
ATOM     11  C   UNL d   1      60.044  49.633  50.002  0.00  0.00     0.285 C 
ATOM     12  N   UNL d   1      60.677  49.547  50.528  0.00  0.00    -0.208 NA
ATOM     13  O   UNL d   1      60.179  49.703  49.192  0.00  0.00    -0.265 OA
BRANCH  12  14
ATOM     14  C   UNL d   1      60.538  49.476  51.339  0.00  0.00     0.085 C 
ATOM     15  C   UNL d   1      59.813  49.177  51.612  0.00  0.00     0.021 C 
BRANCH  14  16
ATOM     16  C   UNL d   1      61.119  49.704  51.874  0.00  0.00     0.019 C 
ATOM     17  C   UNL d   1      60.958  49.702  52.688  0.00  0.00     0.002 C 
ENDBRANCH  14  16
ENDBRANCH  12  14
ENDBRANCH   2  11
TORSDOF 3
ENDMDL
MODEL 2
REMARK VINA RESULT:      23.0      1.443      1.704
REMARK  3 active torsions:
REMARK  status: ('A' for Active; 'I' for Inactive)
REMARK    1  A    between atoms: C_6  and  C_2 
REMARK       I    between atoms: N_8  and  C_6 
REMARK    2  A    between atoms: C_14  and  N_8 
REMARK    3  A    between atoms: C_15  and  C_14 
ROOT
ATOM      1  N   UNL d   1      57.242  49.703  50.465  0.00  0.00    -0.252 N 
ATOM      2  C   UNL d   1      58.569  49.704  50.985  0.00  0.00     0.133 A 
ATOM      3  C   UNL d   1      57.755  49.704  51.109  0.00  0.00     0.272 A 
ATOM      4  C   UNL d   1      57.544  49.702  49.697  0.00  0.00     0.182 A 
ATOM      5  N   UNL d   1      58.357  49.702  49.572  0.00  0.00    -0.220 NA
ATOM      6  C   UNL d   1      58.870  49.703  50.217  0.00  0.00     0.111 A 
ATOM      7  S   UNL d   1      56.905  49.702  49.168  0.00  0.00    -0.048 SA
ATOM      8  O   UNL d   1      57.454  49.705  51.877  0.00  0.00    -0.266 OA
ATOM      9  C   UNL d   1      56.418  49.703  50.410  0.00  0.00     0.092 A 
ATOM     10  C   UNL d   1      56.217  49.702  49.610  0.00  0.00     0.057 A 
ENDROOT
BRANCH   2  11
ATOM     11  C   UNL d   1      59.094  49.705  51.634  0.00  0.00     0.285 C 
ATOM     12  N   UNL d   1      59.910  49.705  51.503  0.00  0.00    -0.208 NA
ATOM     13  O   UNL d   1      58.792  49.706  52.402  0.00  0.00    -0.265 OA
BRANCH  12  14
ATOM     14  C   UNL d   1      60.208  49.704  50.732  0.00  0.00     0.085 C 
ATOM     15  C   UNL d   1      59.687  49.703  50.085  0.00  0.00     0.021 C 
BRANCH  14  16
ATOM     16  C   UNL d   1      61.021  49.703  50.609  0.00  0.00     0.019 C 
ATOM     17  C   UNL d   1      61.539  49.691  51.256  0.00  0.00     0.002 C 
ENDBRANCH  14  16
ENDBRANCH  12  14
ENDBRANCH   2  11
TORSDOF 3
ENDMDL
MODEL 3
REMARK VINA RESULT:      24.4      1.172      3.024
REMARK  3 active torsions:
REMARK  status: ('A' for Active; 'I' for Inactive)
REMARK    1  A    between atoms: C_6  and  C_2 
REMARK       I    between atoms: N_8  and  C_6 
REMARK    2  A    between atoms: C_14  and  N_8 
REMARK    3  A    between atoms: C_15  and  C_14 
ROOT
ATOM      1  N   UNL d   1      60.614  49.622  51.355  0.00  0.00    -0.252 N 
ATOM      2  C   UNL d   1      59.446  49.655  50.540  0.00  0.00     0.133 A 
ATOM      3  C   UNL d   1      60.266  49.634  50.610  0.00  0.00     0.272 A 
ATOM      4  C   UNL d   1      60.142  49.629  52.032  0.00  0.00     0.182 A 
ATOM      5  N   UNL d   1      59.322  49.650  51.963  0.00  0.00    -0.220 NA
ATOM      6  C   UNL d   1      58.974  49.662  51.217  0.00  0.00     0.111 A 
ATOM      7  S   UNL d   1      60.640  49.614  52.695  0.00  0.00    -0.048 SA
ATOM      8  O   UNL d   1      60.738  49.627  49.933  0.00  0.00    -0.266 OA
ATOM      9  C   UNL d   1      61.403  49.601  51.600  0.00  0.00     0.092 A 
ATOM     10  C   UNL d   1      61.412  49.596  52.425  0.00  0.00     0.057 A 
ENDROOT
BRANCH   2  11
ATOM     11  C   UNL d   1      59.087  49.668  49.787  0.00  0.00     0.285 C 
ATOM     12  N   UNL d   1      58.263  49.643  49.724  0.00  0.00    -0.208 NA
ATOM     13  O   UNL d   1      59.558  49.706  49.111  0.00  0.00    -0.265 OA
BRANCH  12  14
ATOM     14  C   UNL d   1      57.794  49.605  50.403  0.00  0.00     0.085 C 
ATOM     15  C   UNL d   1      58.141  49.692  51.152  0.00  0.00     0.021 C 
BRANCH  14  16
ATOM     16  C   UNL d   1      56.984  49.481  50.333  0.00  0.00     0.019 C 
ATOM     17  C   UNL d   1      56.476  49.701  50.950  0.00  0.00     0.002 C 
ENDBRANCH  14  16
ENDBRANCH  12  14
ENDBRANCH   2  11
TORSDOF 3
ENDMDL
