MODEL 1
REMARK VINA RESULT:      21.9      0.000      0.000
REMARK  2 active torsions:
REMARK  status: ('A' for Active; 'I' for Inactive)
REMARK    1  A    between atoms: C_7  and  C_2 
REMARK    2  A    between atoms: C_5  and  C_7 
ROOT
ATOM      1  C   UNL d   1     -57.220 -98.796 -44.495  0.00  0.00     0.021 A 
ATOM      2  N   UNL d   1     -58.266 -98.764 -45.306  0.00  0.00    -0.244 NA
ATOM      3  C   UNL d   1     -57.445 -98.782 -45.283  0.00  0.00     0.099 A 
ATOM      4  C   UNL d   1     -57.895 -98.788 -44.033  0.00  0.00     0.019 A 
ATOM      5  C   UNL d   1     -58.544 -98.768 -44.535  0.00  0.00     0.081 A 
ATOM      6  C   UNL d   1     -58.006 -98.796 -43.211  0.00  0.00     0.002 A 
ATOM      7  C   UNL d   1     -59.310 -98.755 -44.222  0.00  0.00     0.019 A 
ATOM      8  C   UNL d   1     -58.766 -98.784 -42.893  0.00  0.00     0.000 A 
ATOM      9  C   UNL d   1     -59.421 -98.763 -43.399  0.00  0.00     0.002 A 
ENDROOT
BRANCH   1  10
ATOM     10  C   UNL d   1     -56.436 -98.817 -44.222  0.00  0.00     0.011 C 
BRANCH  10  11
ATOM     11  C   UNL d   1     -55.990 -99.505 -44.303  0.00  0.00     0.062 A 
ATOM     12  C   UNL d   1     -55.169 -99.456 -44.367  0.00  0.00     0.145 A 
ATOM     13  N   UNL d   1     -54.880-100.226 -44.442  0.00  0.00    -0.191 NA
ATOM     14  S   UNL d   1     -54.714 -98.755 -44.358  0.00  0.00    -0.057 SA
ATOM     15  C   UNL d   1     -55.505-100.742 -44.425  0.00  0.00     0.311 A 
ATOM     16  S   UNL d   1     -56.197-100.300 -44.339  0.00  0.00    -0.023 SA
ATOM     17  O   UNL d   1     -55.448-101.571 -44.484  0.00  0.00    -0.258 OA
ENDBRANCH  10  11
ENDBRANCH   1  10
TORSDOF 2
ENDMDL
