MODEL 1
REMARK VINA RESULT:      25.9      0.000      0.000
REMARK  6 active torsions:
REMARK  status: ('A' for Active; 'I' for Inactive)
REMARK    1  A    between atoms: C_8  and  C_3 
REMARK    2  A    between atoms: C_7  and  O_15 
REMARK    3  A    between atoms: S_9  and  C_8 
REMARK    4  A    between atoms: C_18  and  S_9 
REMARK    5  A    between atoms: O_15  and  C_19 
REMARK    6  A    between atoms: C_19  and  C_18 
ROOT
ATOM      1  S   UNL d   1      12.811  12.364  -3.764  0.00  0.00    -0.081 SA
ENDROOT
BRANCH   1   2
ATOM      2  C   UNL d   1      13.305  11.835  -3.373  0.00  0.00     0.074 C 
BRANCH   2   3
ATOM      3  C   UNL d   1      13.326  11.825  -2.551  0.00  0.00     0.169 A 
ATOM      4  N   UNL d   1      12.998  11.783  -1.782  0.00  0.00    -0.225 NA
ATOM      5  C   UNL d   1      13.627  11.832  -1.230  0.00  0.00     0.101 A 
ATOM      6  C   UNL d   1      14.334  11.902  -1.664  0.00  0.00     0.101 A 
ATOM      7  C   UNL d   1      13.660  11.822  -0.400  0.00  0.00     0.021 A 
ATOM      8  N   UNL d   1      14.157  11.899  -2.480  0.00  0.00    -0.225 NA
ATOM      9  C   UNL d   1      15.061  11.962  -1.260  0.00  0.00     0.021 A 
ATOM     10  C   UNL d   1      15.078  11.951  -0.445  0.00  0.00     0.002 A 
ATOM     11  C   UNL d   1      14.377  11.881  -0.015  0.00  0.00     0.002 A 
ENDBRANCH   2   3
ENDBRANCH   1   2
BRANCH   1  12
ATOM     12  C   UNL d   1      13.110  12.833  -4.372  0.00  0.00     0.062 C 
BRANCH  12  13
ATOM     13  C   UNL d   1      13.040  13.652  -4.333  0.00  0.00     0.130 C 
BRANCH  13  14
ATOM     14  O   UNL d   1      13.016  14.091  -5.031  0.00  0.00    -0.305 OA
BRANCH  14  15
ATOM     15  C   UNL d   1      13.459  14.680  -4.661  0.00  0.00     0.100 A 
ATOM     16  C   UNL d   1      13.865  15.224  -5.114  0.00  0.00     0.026 A 
ATOM     17  C   UNL d   1      14.310  15.815  -4.749  0.00  0.00     0.013 A 
ATOM     18  C   UNL d   1      14.343  15.856  -3.922  0.00  0.00     0.058 A 
ATOM     19  C   UNL d   1      13.932  15.306  -3.472  0.00  0.00     0.013 A 
ATOM     20 CL   UNL d   1      14.786  16.445  -3.553  0.00  0.00    -0.082 Cl
ATOM     21  C   UNL d   1      13.490  14.718  -3.846  0.00  0.00     0.026 A 
ENDBRANCH  14  15
ENDBRANCH  13  14
ENDBRANCH  12  13
ENDBRANCH   1  12
TORSDOF 6
ENDMDL
