MODEL 1
REMARK VINA RESULT:      -8.7      0.000      0.000
REMARK  4 active torsions:
REMARK  status: ('A' for Active; 'I' for Inactive)
REMARK    1  A    between atoms: C_9  and  C_4 
REMARK    2  A    between atoms: C_7  and  C_11 
REMARK    3  A    between atoms: O_12  and  C_7 
REMARK    4  A    between atoms: C_11  and  C_9 
ROOT
ATOM      1  N   UNL d   1      53.718  31.905  54.161  0.00  0.00    -0.239 NA
ATOM      2  N   UNL d   1      53.020  33.078  53.226  0.00  0.00    -0.205 NA
ATOM      3  C   UNL d   1      52.896  32.280  53.053  0.00  0.00     0.297 A 
ATOM      4  C   UNL d   1      53.247  31.688  53.523  0.00  0.00     0.139 A 
ATOM      5  C   UNL d   1      53.841  32.701  54.332  0.00  0.00     0.099 A 
ATOM      6  C   UNL d   1      53.493  33.287  53.867  0.00  0.00     0.102 A 
ATOM      7  O   UNL d   1      52.423  32.060  52.412  0.00  0.00    -0.264 OA
ATOM      8  C   UNL d   1      54.316  32.912  54.975  0.00  0.00     0.021 A 
ATOM      9  C   UNL d   1      53.621  34.084  54.045  0.00  0.00     0.021 A 
ATOM     10  C   UNL d   1      54.094  34.293  54.685  0.00  0.00     0.002 A 
ATOM     11  C   UNL d   1      54.441  33.707  55.150  0.00  0.00     0.002 A 
ENDROOT
BRANCH   4  12
ATOM     12  C   UNL d   1      53.121  30.894  53.347  0.00  0.00     0.029 C 
BRANCH  12  13
ATOM     13  C   UNL d   1      53.467  30.310  53.808  0.00  0.00     0.070 C 
BRANCH  13  14
ATOM     14  C   UNL d   1      53.119  29.560  53.847  0.00  0.00     0.296 C 
ATOM     15  O   UNL d   1      52.836  29.192  53.165  0.00  0.00    -0.259 OA
BRANCH  14  16
ATOM     16  O   UNL d   1      53.054  29.175  54.581  0.00  0.00    -0.296 OA
ATOM     17  C   UNL d   1      53.468  28.475  54.719  0.00  0.00     0.185 C 
ENDBRANCH  14  16
ENDBRANCH  13  14
ENDBRANCH  12  13
ENDBRANCH   4  12
TORSDOF 4
ENDMDL
MODEL 2
REMARK VINA RESULT:      -8.6      1.941      3.504
REMARK  4 active torsions:
REMARK  status: ('A' for Active; 'I' for Inactive)
REMARK    1  A    between atoms: C_9  and  C_4 
REMARK    2  A    between atoms: C_7  and  C_11 
REMARK    3  A    between atoms: O_12  and  C_7 
REMARK    4  A    between atoms: C_11  and  C_9 
ROOT
ATOM      1  N   UNL d   1      52.749  33.782  53.825  0.00  0.00    -0.239 NA
ATOM      2  N   UNL d   1      53.617  32.414  53.495  0.00  0.00    -0.205 NA
ATOM      3  C   UNL d   1      52.923  32.576  53.078  0.00  0.00     0.297 A 
ATOM      4  C   UNL d   1      52.485  33.265  53.243  0.00  0.00     0.139 A 
ATOM      5  C   UNL d   1      53.440  33.619  54.239  0.00  0.00     0.099 A 
ATOM      6  C   UNL d   1      53.874  32.937  54.076  0.00  0.00     0.102 A 
ATOM      7  O   UNL d   1      52.656  32.057  52.492  0.00  0.00    -0.264 OA
ATOM      8  C   UNL d   1      53.700  34.144  54.824  0.00  0.00     0.021 A 
ATOM      9  C   UNL d   1      54.568  32.780  54.497  0.00  0.00     0.021 A 
ATOM     10  C   UNL d   1      54.825  33.303  55.078  0.00  0.00     0.002 A 
ATOM     11  C   UNL d   1      54.391  33.985  55.241  0.00  0.00     0.002 A 
ENDROOT
BRANCH   4  12
ATOM     12  C   UNL d   1      51.793  33.423  52.825  0.00  0.00     0.029 C 
BRANCH  12  13
ATOM     13  C   UNL d   1      51.414  34.146  52.913  0.00  0.00     0.070 C 
BRANCH  13  14
ATOM     14  C   UNL d   1      50.700  34.284  52.518  0.00  0.00     0.296 C 
ATOM     15  O   UNL d   1      50.668  34.277  51.693  0.00  0.00    -0.259 OA
BRANCH  14  16
ATOM     16  O   UNL d   1      50.009  34.431  52.956  0.00  0.00    -0.296 OA
ATOM     17  C   UNL d   1      49.394  34.868  52.624  0.00  0.00     0.185 C 
ENDBRANCH  14  16
ENDBRANCH  13  14
ENDBRANCH  12  13
ENDBRANCH   4  12
TORSDOF 4
ENDMDL
MODEL 3
REMARK VINA RESULT:      -8.2      1.980      3.905
REMARK  4 active torsions:
REMARK  status: ('A' for Active; 'I' for Inactive)
REMARK    1  A    between atoms: C_9  and  C_4 
REMARK    2  A    between atoms: C_7  and  C_11 
REMARK    3  A    between atoms: O_12  and  C_7 
REMARK    4  A    between atoms: C_11  and  C_9 
ROOT
ATOM      1  N   UNL d   1      52.463  31.996  52.877  0.00  0.00    -0.239 NA
ATOM      2  N   UNL d   1      53.846  32.091  53.780  0.00  0.00    -0.205 NA
ATOM      3  C   UNL d   1      53.457  32.779  53.542  0.00  0.00     0.297 A 
ATOM      4  C   UNL d   1      52.761  32.733  53.087  0.00  0.00     0.139 A 
ATOM      5  C   UNL d   1      52.852  31.311  53.116  0.00  0.00     0.099 A 
ATOM      6  C   UNL d   1      53.542  31.357  53.566  0.00  0.00     0.102 A 
ATOM      7  O   UNL d   1      53.755  33.521  53.752  0.00  0.00    -0.264 OA
ATOM      8  C   UNL d   1      52.547  30.572  52.901  0.00  0.00     0.021 A 
ATOM      9  C   UNL d   1      53.926  30.664  53.801  0.00  0.00     0.021 A 
ATOM     10  C   UNL d   1      53.622  29.930  53.587  0.00  0.00     0.002 A 
ATOM     11  C   UNL d   1      52.932  29.884  53.137  0.00  0.00     0.002 A 
ENDROOT
BRANCH   4  12
ATOM     12  C   UNL d   1      52.376  33.422  52.852  0.00  0.00     0.029 C 
BRANCH  12  13
ATOM     13  C   UNL d   1      51.557  33.441  52.804  0.00  0.00     0.070 C 
BRANCH  13  14
ATOM     14  C   UNL d   1      51.181  34.115  52.504  0.00  0.00     0.296 C 
ATOM     15  O   UNL d   1      51.356  34.392  51.747  0.00  0.00    -0.259 OA
BRANCH  14  16
ATOM     16  O   UNL d   1      50.622  34.515  52.971  0.00  0.00    -0.296 OA
ATOM     17  C   UNL d   1      49.866  34.664  52.676  0.00  0.00     0.185 C 
ENDBRANCH  14  16
ENDBRANCH  13  14
ENDBRANCH  12  13
ENDBRANCH   4  12
TORSDOF 4
ENDMDL
MODEL 4
REMARK VINA RESULT:      -8.0      1.542      3.611
REMARK  4 active torsions:
REMARK  status: ('A' for Active; 'I' for Inactive)
REMARK    1  A    between atoms: C_9  and  C_4 
REMARK    2  A    between atoms: C_7  and  C_11 
REMARK    3  A    between atoms: O_12  and  C_7 
REMARK    4  A    between atoms: C_11  and  C_9 
ROOT
ATOM      1  N   UNL d   1      53.578  31.527  53.983  0.00  0.00    -0.239 NA
ATOM      2  N   UNL d   1      52.601  31.420  52.653  0.00  0.00    -0.205 NA
ATOM      3  C   UNL d   1      52.870  32.156  52.912  0.00  0.00     0.297 A 
ATOM      4  C   UNL d   1      53.362  32.212  53.582  0.00  0.00     0.139 A 
ATOM      5  C   UNL d   1      53.309  30.795  53.723  0.00  0.00     0.099 A 
ATOM      6  C   UNL d   1      52.822  30.739  53.060  0.00  0.00     0.102 A 
ATOM      7  O   UNL d   1      52.654  32.845  52.510  0.00  0.00    -0.264 OA
ATOM      8  C   UNL d   1      53.530  30.110  54.132  0.00  0.00     0.021 A 
ATOM      9  C   UNL d   1      52.555  29.999  52.805  0.00  0.00     0.021 A 
ATOM     10  C   UNL d   1      52.776  29.319  53.212  0.00  0.00     0.002 A 
ATOM     11  C   UNL d   1      53.263  29.374  53.875  0.00  0.00     0.002 A 
ENDROOT
BRANCH   4  12
ATOM     12  C   UNL d   1      53.629  32.948  53.837  0.00  0.00     0.029 C 
BRANCH  12  13
ATOM     13  C   UNL d   1      53.926  33.038  54.597  0.00  0.00     0.070 C 
BRANCH  13  14
ATOM     14  C   UNL d   1      54.290  33.750  54.812  0.00  0.00     0.296 C 
ATOM     15  O   UNL d   1      53.836  34.411  55.008  0.00  0.00    -0.259 OA
BRANCH  14  16
ATOM     16  O   UNL d   1      55.119  33.799  54.830  0.00  0.00    -0.296 OA
ATOM     17  C   UNL d   1      55.501  34.085  55.503  0.00  0.00     0.185 C 
ENDBRANCH  14  16
ENDBRANCH  13  14
ENDBRANCH  12  13
ENDBRANCH   4  12
TORSDOF 4
ENDMDL
MODEL 5
REMARK VINA RESULT:      -7.3      2.166      3.401
REMARK  4 active torsions:
REMARK  status: ('A' for Active; 'I' for Inactive)
REMARK    1  A    between atoms: C_9  and  C_4 
REMARK    2  A    between atoms: C_7  and  C_11 
REMARK    3  A    between atoms: O_12  and  C_7 
REMARK    4  A    between atoms: C_11  and  C_9 
ROOT
ATOM      1  N   UNL d   1      52.244  33.663  53.734  0.00  0.00    -0.239 NA
ATOM      2  N   UNL d   1      51.899  32.823  52.352  0.00  0.00    -0.205 NA
ATOM      3  C   UNL d   1      52.542  32.605  52.821  0.00  0.00     0.297 A 
ATOM      4  C   UNL d   1      52.717  33.027  53.517  0.00  0.00     0.139 A 
ATOM      5  C   UNL d   1      51.603  33.879  53.266  0.00  0.00     0.099 A 
ATOM      6  C   UNL d   1      51.429  33.461  52.576  0.00  0.00     0.102 A 
ATOM      7  O   UNL d   1      53.019  31.965  52.604  0.00  0.00    -0.264 OA
ATOM      8  C   UNL d   1      51.131  34.520  53.490  0.00  0.00     0.021 A 
ATOM      9  C   UNL d   1      50.783  33.684  52.111  0.00  0.00     0.021 A 
ATOM     10  C   UNL d   1      50.315  34.322  52.335  0.00  0.00     0.002 A 
ATOM     11  C   UNL d   1      50.489  34.740  53.025  0.00  0.00     0.002 A 
ENDROOT
BRANCH   4  12
ATOM     12  C   UNL d   1      53.360  32.806  53.982  0.00  0.00     0.029 C 
BRANCH  12  13
ATOM     13  C   UNL d   1      53.692  33.341  54.508  0.00  0.00     0.070 C 
BRANCH  13  14
ATOM     14  C   UNL d   1      54.334  33.110  54.977  0.00  0.00     0.296 C 
ATOM     15  O   UNL d   1      54.231  32.571  55.593  0.00  0.00    -0.259 OA
BRANCH  14  16
ATOM     16  O   UNL d   1      55.088  33.424  54.825  0.00  0.00    -0.296 OA
ATOM     17  C   UNL d   1      55.435  33.944  55.362  0.00  0.00     0.185 C 
ENDBRANCH  14  16
ENDBRANCH  13  14
ENDBRANCH  12  13
ENDBRANCH   4  12
TORSDOF 4
ENDMDL
MODEL 6
REMARK VINA RESULT:      -5.8      5.112      6.166
REMARK  4 active torsions:
REMARK  status: ('A' for Active; 'I' for Inactive)
REMARK    1  A    between atoms: C_9  and  C_4 
REMARK    2  A    between atoms: C_7  and  C_11 
REMARK    3  A    between atoms: O_12  and  C_7 
REMARK    4  A    between atoms: C_11  and  C_9 
ROOT
ATOM      1  N   UNL d   1      48.836  35.376  52.844  0.00  0.00    -0.239 NA
ATOM      2  N   UNL d   1      47.913  35.339  51.472  0.00  0.00    -0.205 NA
ATOM      3  C   UNL d   1      48.613  34.904  51.513  0.00  0.00     0.297 A 
ATOM      4  C   UNL d   1      49.079  34.921  52.203  0.00  0.00     0.139 A 
ATOM      5  C   UNL d   1      48.138  35.809  52.801  0.00  0.00     0.099 A 
ATOM      6  C   UNL d   1      47.676  35.792  52.118  0.00  0.00     0.102 A 
ATOM      7  O   UNL d   1      48.858  34.446  50.870  0.00  0.00    -0.264 OA
ATOM      8  C   UNL d   1      47.900  36.265  53.450  0.00  0.00     0.021 A 
ATOM      9  C   UNL d   1      46.976  36.230  52.083  0.00  0.00     0.021 A 
ATOM     10  C   UNL d   1      46.740  36.682  52.728  0.00  0.00     0.002 A 
ATOM     11  C   UNL d   1      47.202  36.700  53.412  0.00  0.00     0.002 A 
ENDROOT
BRANCH   4  12
ATOM     12  C   UNL d   1      49.777  34.485  52.240  0.00  0.00     0.029 C 
BRANCH  12  13
ATOM     13  C   UNL d   1      50.281  34.568  52.882  0.00  0.00     0.070 C 
BRANCH  13  14
ATOM     14  C   UNL d   1      50.986  34.134  52.907  0.00  0.00     0.296 C 
ATOM     15  O   UNL d   1      50.984  33.346  53.155  0.00  0.00    -0.259 OA
BRANCH  14  16
ATOM     16  O   UNL d   1      51.699  34.494  52.682  0.00  0.00    -0.296 OA
ATOM     17  C   UNL d   1      52.390  34.346  53.108  0.00  0.00     0.185 C 
ENDBRANCH  14  16
ENDBRANCH  13  14
ENDBRANCH  12  13
ENDBRANCH   4  12
TORSDOF 4
ENDMDL
