MODEL 1
REMARK VINA RESULT:       5.0      0.000      0.000
REMARK  3 active torsions:
REMARK  status: ('A' for Active; 'I' for Inactive)
REMARK    1  A    between atoms: S_6  and  C_2 
REMARK    2  A    between atoms: C_8  and  S_6 
REMARK    3  A    between atoms: C_9  and  C_8 
ROOT
ATOM      1  S   UNL d   1      24.759  12.280  -2.958  0.00  0.00    -0.048 SA
ENDROOT
BRANCH   1   2
ATOM      2  C   UNL d   1      24.763  12.386  -3.784  0.00  0.00     0.203 A 
ATOM      3  N   UNL d   1      24.763  13.110  -4.177  0.00  0.00    -0.193 NA
ATOM      4  C   UNL d   1      24.767  12.957  -4.990  0.00  0.00     0.234 A 
ATOM      5  S   UNL d   1      24.768  12.141  -5.096  0.00  0.00     0.056 SA
ATOM      6  N   UNL d   1      24.768  13.526  -5.583  0.00  0.00    -0.118 N 
ATOM      7  N   UNL d   1      24.766  11.783  -4.352  0.00  0.00    -0.181 NA
ENDBRANCH   1   2
BRANCH   1   8
ATOM      8  C   UNL d   1      24.767  12.940  -2.461  0.00  0.00     0.038 C 
BRANCH   8   9
ATOM      9  C   UNL d   1      24.690  12.846  -1.648  0.00  0.00     0.007 A 
ATOM     10  C   UNL d   1      24.747  13.514  -1.159  0.00  0.00     0.001 A 
ATOM     11  C   UNL d   1      24.670  13.424  -0.338  0.00  0.00     0.000 A 
ATOM     12  C   UNL d   1      24.538  12.676  -0.017  0.00  0.00     0.000 A 
ATOM     13  C   UNL d   1      24.483  12.012  -0.517  0.00  0.00     0.000 A 
ATOM     14  C   UNL d   1      24.560  12.105  -1.330  0.00  0.00     0.001 A 
ENDBRANCH   8   9
ENDBRANCH   1   8
TORSDOF 3
ENDMDL
MODEL 2
REMARK VINA RESULT:       5.9     10.872     10.959
REMARK  3 active torsions:
REMARK  status: ('A' for Active; 'I' for Inactive)
REMARK    1  A    between atoms: S_6  and  C_2 
REMARK    2  A    between atoms: C_8  and  S_6 
REMARK    3  A    between atoms: C_9  and  C_8 
ROOT
ATOM      1  S   UNL d   1      13.795  12.315  -2.793  0.00  0.00    -0.048 SA
ENDROOT
BRANCH   1   2
ATOM      2  C   UNL d   1      13.512  12.212  -3.569  0.00  0.00     0.203 A 
ATOM      3  N   UNL d   1      13.856  12.519  -4.252  0.00  0.00    -0.193 NA
ATOM      4  C   UNL d   1      13.395  12.282  -4.897  0.00  0.00     0.234 A 
ATOM      5  S   UNL d   1      12.769  11.832  -4.611  0.00  0.00     0.056 SA
ATOM      6  N   UNL d   1      13.542  12.469  -5.684  0.00  0.00    -0.118 N 
ATOM      7  N   UNL d   1      12.837  11.785  -3.789  0.00  0.00    -0.181 NA
ENDBRANCH   1   2
BRANCH   1   8
ATOM      8  C   UNL d   1      13.571  11.783  -2.202  0.00  0.00     0.038 C 
BRANCH   8   9
ATOM      9  C   UNL d   1      13.946  11.794  -1.471  0.00  0.00     0.007 A 
ATOM     10  C   UNL d   1      14.775  11.820  -1.445  0.00  0.00     0.001 A 
ATOM     11  C   UNL d   1      15.158  11.832  -0.709  0.00  0.00     0.000 A 
ATOM     12  C   UNL d   1      14.713  11.818  -0.014  0.00  0.00     0.000 A 
ATOM     13  C   UNL d   1      13.882  11.792  -0.052  0.00  0.00     0.000 A 
ATOM     14  C   UNL d   1      13.506  11.781  -0.783  0.00  0.00     0.001 A 
ENDBRANCH   8   9
ENDBRANCH   1   8
TORSDOF 3
ENDMDL
MODEL 3
REMARK VINA RESULT:       6.2     11.122     11.538
REMARK  3 active torsions:
REMARK  status: ('A' for Active; 'I' for Inactive)
REMARK    1  A    between atoms: S_6  and  C_2 
REMARK    2  A    between atoms: C_8  and  S_6 
REMARK    3  A    between atoms: C_9  and  C_8 
ROOT
ATOM      1  S   UNL d   1      13.985  11.848  -2.475  0.00  0.00    -0.048 SA
ENDROOT
BRANCH   1   2
ATOM      2  C   UNL d   1      14.191  12.037  -1.691  0.00  0.00     0.203 A 
ATOM      3  N   UNL d   1      14.824  12.511  -1.459  0.00  0.00    -0.193 NA
ATOM      4  C   UNL d   1      14.823  12.551  -0.633  0.00  0.00     0.234 A 
ATOM      5  S   UNL d   1      14.190  12.104  -0.357  0.00  0.00     0.056 SA
ATOM      6  N   UNL d   1      15.362  12.968  -0.174  0.00  0.00    -0.118 N 
ATOM      7  N   UNL d   1      13.796  11.783  -1.008  0.00  0.00    -0.181 NA
ENDBRANCH   1   2
BRANCH   1   8
ATOM      8  C   UNL d   1      13.240  12.055  -2.763  0.00  0.00     0.038 C 
BRANCH   8   9
ATOM      9  C   UNL d   1      13.153  12.308  -3.540  0.00  0.00     0.007 A 
ATOM     10  C   UNL d   1      13.330  11.782  -4.157  0.00  0.00     0.001 A 
ATOM     11  C   UNL d   1      13.244  12.034  -4.943  0.00  0.00     0.000 A 
ATOM     12  C   UNL d   1      12.984  12.800  -5.103  0.00  0.00     0.000 A 
ATOM     13  C   UNL d   1      12.808  13.320  -4.476  0.00  0.00     0.000 A 
ATOM     14  C   UNL d   1      12.895  13.067  -3.699  0.00  0.00     0.001 A 
ENDBRANCH   8   9
ENDBRANCH   1   8
TORSDOF 3
ENDMDL
