MODEL 1
REMARK VINA RESULT:      38.0      0.000      0.000
REMARK  4 active torsions:
REMARK  status: ('A' for Active; 'I' for Inactive)
REMARK    1  A    between atoms: S_2  and  C_1 
REMARK    2  A    between atoms: C_8  and  S_2 
REMARK    3  A    between atoms: N_7  and  C_4 
REMARK    4  A    between atoms: C_11  and  N_7 
ROOT
ATOM      1  C   UNL d   1      13.296  13.040  -3.711  0.00  0.00     0.187 A 
ATOM      2  N   UNL d   1      13.448  13.000  -2.927  0.00  0.00    -0.208 NA
ATOM      3  C   UNL d   1      13.298  12.226  -2.683  0.00  0.00     0.196 A 
ATOM      4  C   UNL d   1      13.047  12.348  -4.045  0.00  0.00     0.118 A 
ATOM      5  S   UNL d   1      13.042  11.779  -3.358  0.00  0.00    -0.035 SA
ATOM      6 CL   UNL d   1      12.833  12.103  -4.772  0.00  0.00    -0.073 Cl
ENDROOT
BRANCH   1   7
ATOM      7  S   UNL d   1      13.355  13.691  -4.238  0.00  0.00     0.228 S 
ATOM      8  O   UNL d   1      13.299  13.083  -4.912  0.00  0.00    -0.216 OA
ATOM      9  O   UNL d   1      13.398  14.166  -3.557  0.00  0.00    -0.216 OA
BRANCH   7  10
ATOM     10  C   UNL d   1      13.412  14.320  -4.686  0.00  0.00     0.089 A 
ATOM     11  C   UNL d   1      13.927  14.447  -5.283  0.00  0.00     0.011 A 
ATOM     12  C   UNL d   1      13.903  15.180  -5.713  0.00  0.00     0.001 A 
ATOM     13  C   UNL d   1      13.417  15.802  -5.609  0.00  0.00     0.000 A 
ATOM     14  C   UNL d   1      12.814  15.733  -4.958  0.00  0.00     0.001 A 
ATOM     15  C   UNL d   1      13.402  16.582  -6.076  0.00  0.00     0.000 C 
ATOM     16  C   UNL d   1      12.837  15.000  -4.528  0.00  0.00     0.011 A 
ENDBRANCH   7  10
ENDBRANCH   1   7
BRANCH   3  17
ATOM     17  N   UNL d   1      13.349  11.779  -1.878  0.00  0.00    -0.221 NA
BRANCH  17  18
ATOM     18  C   UNL d   1      14.019  11.886  -1.314  0.00  0.00     0.084 A 
ATOM     19  C   UNL d   1      13.760  11.919  -0.562  0.00  0.00     0.018 A 
ATOM     20  C   UNL d   1      13.019  11.870  -0.281  0.00  0.00     0.002 C 
ATOM     21  C   UNL d   1      14.363  12.016  -0.048  0.00  0.00     0.002 A 
ATOM     22  C   UNL d   1      15.219  12.075  -0.345  0.00  0.00     0.000 A 
ATOM     23  C   UNL d   1      15.420  12.037  -1.088  0.00  0.00     0.002 A 
ATOM     24  C   UNL d   1      14.699  11.930  -1.587  0.00  0.00     0.019 A 
ENDBRANCH  17  18
ENDBRANCH   3  17
TORSDOF 4
ENDMDL
MODEL 2
REMARK VINA RESULT:      40.8      2.762      3.667
REMARK  4 active torsions:
REMARK  status: ('A' for Active; 'I' for Inactive)
REMARK    1  A    between atoms: S_2  and  C_1 
REMARK    2  A    between atoms: C_8  and  S_2 
REMARK    3  A    between atoms: N_7  and  C_4 
REMARK    4  A    between atoms: C_11  and  N_7 
ROOT
ATOM      1  C   UNL d   1      14.345  13.109  -1.581  0.00  0.00     0.187 A 
ATOM      2  N   UNL d   1      14.534  13.863  -1.394  0.00  0.00    -0.208 NA
ATOM      3  C   UNL d   1      14.837  13.862  -0.627  0.00  0.00     0.196 A 
ATOM      4  C   UNL d   1      14.492  12.567  -1.000  0.00  0.00     0.118 A 
ATOM      5  S   UNL d   1      14.829  13.063  -0.339  0.00  0.00    -0.035 SA
ATOM      6 CL   UNL d   1      14.407  11.780  -0.910  0.00  0.00    -0.073 Cl
ENDROOT
BRANCH   1   7
ATOM      7  S   UNL d   1      14.017  12.795  -2.287  0.00  0.00     0.228 S 
ATOM      8  O   UNL d   1      13.515  12.256  -1.754  0.00  0.00    -0.216 OA
ATOM      9  O   UNL d   1      14.517  13.326  -2.687  0.00  0.00    -0.216 OA
BRANCH   7  10
ATOM     10  C   UNL d   1      13.744  12.536  -2.964  0.00  0.00     0.089 A 
ATOM     11  C   UNL d   1      13.169  11.993  -3.081  0.00  0.00     0.011 A 
ATOM     12  C   UNL d   1      12.944  11.779  -3.872  0.00  0.00     0.001 A 
ATOM     13  C   UNL d   1      13.233  12.052  -4.562  0.00  0.00     0.000 A 
ATOM     14  C   UNL d   1      13.880  12.661  -4.511  0.00  0.00     0.001 A 
ATOM     15  C   UNL d   1      12.984  11.815  -5.403  0.00  0.00     0.000 C 
ATOM     16  C   UNL d   1      14.105  12.875  -3.720  0.00  0.00     0.011 A 
ENDBRANCH   7  10
ENDBRANCH   1   7
BRANCH   3  17
ATOM     17  N   UNL d   1      15.162  14.510  -0.057  0.00  0.00    -0.221 NA
BRANCH  17  18
ATOM     18  C   UNL d   1      15.298  15.344  -0.311  0.00  0.00     0.084 A 
ATOM     19  C   UNL d   1      16.076  15.501  -0.378  0.00  0.00     0.018 A 
ATOM     20  C   UNL d   1      16.699  15.027  -0.250  0.00  0.00     0.002 C 
ATOM     21  C   UNL d   1      16.204  16.255  -0.607  0.00  0.00     0.002 A 
ATOM     22  C   UNL d   1      15.507  16.817  -0.759  0.00  0.00     0.000 A 
ATOM     23  C   UNL d   1      14.767  16.616  -0.681  0.00  0.00     0.002 A 
ATOM     24  C   UNL d   1      14.712  15.772  -0.426  0.00  0.00     0.019 A 
ENDBRANCH  17  18
ENDBRANCH   3  17
TORSDOF 4
ENDMDL
