MODEL 1
REMARK VINA RESULT:      29.1      0.000      0.000
REMARK  6 active torsions:
REMARK  status: ('A' for Active; 'I' for Inactive)
REMARK       I    between atoms: C_3  and  N_1 
REMARK    1  A    between atoms: C_4  and  N_1 
REMARK    2  A    between atoms: S_2  and  C_12 
REMARK    3  A    between atoms: C_6  and  C_3 
REMARK    4  A    between atoms: N_5  and  C_6 
REMARK       I    between atoms: C_7  and  N_5 
REMARK    5  A    between atoms: C_8  and  C_6 
REMARK    6  A    between atoms: C_12  and  C_8 
ROOT
ATOM      1  N   UNL d   1      14.377  12.819  -2.198  0.00  0.00    -0.207 NA
ATOM      2  C   UNL d   1      13.777  12.481  -2.652  0.00  0.00     0.297 C 
ATOM      3  O   UNL d   1      13.389  11.799  -2.381  0.00  0.00    -0.264 OA
ENDROOT
BRANCH   2   4
ATOM      4  C   UNL d   1      13.561  12.822  -3.379  0.00  0.00     0.143 C 
BRANCH   4   5
ATOM      5  N   UNL d   1      13.042  12.423  -3.882  0.00  0.00    -0.203 NA
ATOM      6  C   UNL d   1      13.295  12.180  -4.628  0.00  0.00     0.280 C 
ATOM      7  O   UNL d   1      14.067  12.336  -4.871  0.00  0.00    -0.265 OA
ATOM      8  C   UNL d   1      12.776  11.780  -5.131  0.00  0.00     0.068 C 
ENDBRANCH   4   5
BRANCH   4   9
ATOM      9  C   UNL d   1      13.865  13.557  -3.597  0.00  0.00     0.036 C 
BRANCH   9  10
ATOM     10  C   UNL d   1      13.375  14.221  -3.594  0.00  0.00     0.096 C 
BRANCH  10  11
ATOM     11  S   UNL d   1      13.668  14.947  -3.849  0.00  0.00     0.192 S 
ATOM     12  O   UNL d   1      13.259  14.644  -4.507  0.00  0.00    -0.222 OA
ATOM     13  O   UNL d   1      13.863  15.625  -4.294  0.00  0.00    -0.222 OA
ATOM     14  C   UNL d   1      14.110  15.415  -3.335  0.00  0.00     0.145 C 
ENDBRANCH  10  11
ENDBRANCH   9  10
ENDBRANCH   4   9
ENDBRANCH   2   4
BRANCH   1  15
ATOM     15  C   UNL d   1      14.591  12.468  -1.460  0.00  0.00     0.085 A 
ATOM     16  C   UNL d   1      15.379  12.363  -1.283  0.00  0.00     0.018 A 
ATOM     17  C   UNL d   1      15.579  12.016  -0.553  0.00  0.00     0.002 A 
ATOM     18  C   UNL d   1      15.972  12.588  -1.800  0.00  0.00     0.002 C 
ATOM     19  C   UNL d   1      14.997  11.781  -0.015  0.00  0.00     0.000 A 
ATOM     20  C   UNL d   1      14.199  11.896  -0.214  0.00  0.00     0.002 A 
ATOM     21  C   UNL d   1      13.987  12.245  -0.947  0.00  0.00     0.018 A 
ATOM     22  C   UNL d   1      13.196  12.350  -1.125  0.00  0.00     0.002 C 
ENDBRANCH   1  15
TORSDOF 6
ENDMDL
