MODEL 1
REMARK VINA RESULT:      -5.9      0.000      0.000
REMARK  3 active torsions:
REMARK  status: ('A' for Active; 'I' for Inactive)
REMARK    1  A    between atoms: C_8  and  C_2 
REMARK    2  A    between atoms: C_9  and  C_3 
REMARK    3  A    between atoms: N_6  and  C_8 
ROOT
ATOM      1  N   UNL d   1      57.017   0.681  30.738  0.00  0.00    -0.121 NA
ATOM      2  C   UNL d   1      57.877  -0.100  30.082  0.00  0.00     0.222 A 
ATOM      3  C   UNL d   1      57.057  -0.036  31.139  0.00  0.00     0.204 A 
ATOM      4  O   UNL d   1      57.593  -0.520  30.728  0.00  0.00    -0.267 OA
ATOM      5  N   UNL d   1      57.521   0.647  30.084  0.00  0.00    -0.119 NA
ENDROOT
BRANCH   2   6
ATOM      6  C   UNL d   1      58.424  -0.370  29.521  0.00  0.00     0.127 C 
BRANCH   6   7
ATOM      7  N   UNL d   1      59.232  -0.255  29.640  0.00  0.00    -0.301 N 
ATOM      8  C   UNL d   1      59.762  -0.814  29.361  0.00  0.00     0.064 A 
ATOM      9  C   UNL d   1      60.572  -0.710  29.474  0.00  0.00     0.016 A 
ATOM     10  C   UNL d   1      59.498  -1.481  28.966  0.00  0.00     0.018 A 
ATOM     11  C   UNL d   1      61.107  -1.262  29.199  0.00  0.00     0.001 A 
ATOM     12  C   UNL d   1      60.841  -0.036  29.873  0.00  0.00     0.003 A 
ATOM     13  C   UNL d   1      60.841  -1.927  28.805  0.00  0.00     0.000 A 
ATOM     14  C   UNL d   1      60.029  -2.040  28.686  0.00  0.00     0.002 A 
ATOM     15  C   UNL d   1      60.306   0.524  30.153  0.00  0.00     0.019 A 
ATOM     16  C   UNL d   1      59.492   0.414  30.036  0.00  0.00     0.080 A 
ENDBRANCH   6   7
ENDBRANCH   2   6
BRANCH   3  17
ATOM     17  C   UNL d   1      56.641  -0.238  31.824  0.00  0.00     0.043 A 
ATOM     18  C   UNL d   1      56.270   0.356  32.263  0.00  0.00     0.004 A 
ATOM     19  C   UNL d   1      55.854   0.160  32.947  0.00  0.00     0.000 A 
ATOM     20  C   UNL d   1      55.810  -0.630  33.189  0.00  0.00     0.000 A 
ATOM     21  C   UNL d   1      56.184  -1.221  32.745  0.00  0.00     0.000 A 
ATOM     22  C   UNL d   1      56.599  -1.020  32.063  0.00  0.00     0.004 A 
ENDBRANCH   3  17
TORSDOF 3
ENDMDL
MODEL 2
REMARK VINA RESULT:      -5.6      0.834      4.804
REMARK  3 active torsions:
REMARK  status: ('A' for Active; 'I' for Inactive)
REMARK    1  A    between atoms: C_8  and  C_2 
REMARK    2  A    between atoms: C_9  and  C_3 
REMARK    3  A    between atoms: N_6  and  C_8 
ROOT
ATOM      1  N   UNL d   1      57.548   0.552  29.751  0.00  0.00    -0.121 NA
ATOM      2  C   UNL d   1      57.315   0.436  31.059  0.00  0.00     0.222 A 
ATOM      3  C   UNL d   1      58.222   0.229  30.096  0.00  0.00     0.204 A 
ATOM      4  O   UNL d   1      58.073   0.158  30.910  0.00  0.00    -0.267 OA
ATOM      5  N   UNL d   1      56.985   0.682  30.341  0.00  0.00    -0.119 NA
ENDROOT
BRANCH   2   6
ATOM      6  C   UNL d   1      56.938   0.469  31.797  0.00  0.00     0.127 C 
BRANCH   6   7
ATOM      7  N   UNL d   1      56.594  -0.209  32.117  0.00  0.00    -0.301 N 
ATOM      8  C   UNL d   1      56.052  -0.134  32.727  0.00  0.00     0.064 A 
ATOM      9  C   UNL d   1      55.701  -0.804  33.055  0.00  0.00     0.016 A 
ATOM     10  C   UNL d   1      55.849   0.604  33.019  0.00  0.00     0.018 A 
ATOM     11  C   UNL d   1      55.160  -0.738  33.663  0.00  0.00     0.001 A 
ATOM     12  C   UNL d   1      55.905  -1.551  32.761  0.00  0.00     0.003 A 
ATOM     13  C   UNL d   1      54.960   0.001  33.952  0.00  0.00     0.000 A 
ATOM     14  C   UNL d   1      55.307   0.679  33.628  0.00  0.00     0.002 A 
ATOM     15  C   UNL d   1      56.450  -1.624  32.149  0.00  0.00     0.019 A 
ATOM     16  C   UNL d   1      56.800  -0.946  31.822  0.00  0.00     0.080 A 
ENDBRANCH   6   7
ENDBRANCH   2   6
BRANCH   3  17
ATOM     17  C   UNL d   1      58.918   0.014  29.705  0.00  0.00     0.043 A 
ATOM     18  C   UNL d   1      59.628   0.381  29.911  0.00  0.00     0.004 A 
ATOM     19  C   UNL d   1      60.325   0.170  29.523  0.00  0.00     0.000 A 
ATOM     20  C   UNL d   1      60.307  -0.407  28.931  0.00  0.00     0.000 A 
ATOM     21  C   UNL d   1      59.592  -0.771  28.729  0.00  0.00     0.000 A 
ATOM     22  C   UNL d   1      58.898  -0.557  29.119  0.00  0.00     0.004 A 
ENDBRANCH   3  17
TORSDOF 3
ENDMDL
MODEL 3
REMARK VINA RESULT:      -4.8      1.455      1.987
REMARK  3 active torsions:
REMARK  status: ('A' for Active; 'I' for Inactive)
REMARK    1  A    between atoms: C_8  and  C_2 
REMARK    2  A    between atoms: C_9  and  C_3 
REMARK    3  A    between atoms: N_6  and  C_8 
ROOT
ATOM      1  N   UNL d   1      56.512  -0.710  32.189  0.00  0.00    -0.121 NA
ATOM      2  C   UNL d   1      57.009   0.171  31.320  0.00  0.00     0.222 A 
ATOM      3  C   UNL d   1      56.362   0.044  32.485  0.00  0.00     0.204 A 
ATOM      4  O   UNL d   1      56.674   0.589  31.941  0.00  0.00    -0.267 OA
ATOM      5  N   UNL d   1      56.911  -0.637  31.470  0.00  0.00    -0.119 NA
ENDROOT
BRANCH   2   6
ATOM      6  C   UNL d   1      57.384   0.494  30.654  0.00  0.00     0.127 C 
BRANCH   6   7
ATOM      7  N   UNL d   1      58.205   0.557  30.630  0.00  0.00    -0.301 N 
ATOM      8  C   UNL d   1      58.587   0.555  29.905  0.00  0.00     0.064 A 
ATOM      9  C   UNL d   1      59.409   0.617  29.868  0.00  0.00     0.016 A 
ATOM     10  C   UNL d   1      58.161   0.492  29.208  0.00  0.00     0.018 A 
ATOM     11  C   UNL d   1      59.796   0.617  29.149  0.00  0.00     0.001 A 
ATOM     12  C   UNL d   1      59.840   0.681  30.572  0.00  0.00     0.003 A 
ATOM     13  C   UNL d   1      59.368   0.554  28.455  0.00  0.00     0.000 A 
ATOM     14  C   UNL d   1      58.543   0.491  28.483  0.00  0.00     0.002 A 
ATOM     15  C   UNL d   1      59.455   0.682  31.299  0.00  0.00     0.019 A 
ATOM     16  C   UNL d   1      58.628   0.619  31.330  0.00  0.00     0.080 A 
ENDBRANCH   6   7
ENDBRANCH   2   6
BRANCH   3  17
ATOM     17  C   UNL d   1      55.974   0.224  33.193  0.00  0.00     0.043 A 
ATOM     18  C   UNL d   1      55.156   0.126  33.242  0.00  0.00     0.004 A 
ATOM     19  C   UNL d   1      54.764   0.305  33.946  0.00  0.00     0.000 A 
ATOM     20  C   UNL d   1      55.195   0.581  34.597  0.00  0.00     0.000 A 
ATOM     21  C   UNL d   1      56.015   0.677  34.541  0.00  0.00     0.000 A 
ATOM     22  C   UNL d   1      56.401   0.497  33.836  0.00  0.00     0.004 A 
ENDBRANCH   3  17
TORSDOF 3
ENDMDL
MODEL 4
REMARK VINA RESULT:      -4.6      0.952      4.608
REMARK  3 active torsions:
REMARK  status: ('A' for Active; 'I' for Inactive)
REMARK    1  A    between atoms: C_8  and  C_2 
REMARK    2  A    between atoms: C_9  and  C_3 
REMARK    3  A    between atoms: N_6  and  C_8 
ROOT
ATOM      1  N   UNL d   1      58.312   0.011  29.759  0.00  0.00    -0.121 NA
ATOM      2  C   UNL d   1      57.563  -0.467  30.754  0.00  0.00     0.222 A 
ATOM      3  C   UNL d   1      58.513  -0.780  29.863  0.00  0.00     0.204 A 
ATOM      4  O   UNL d   1      58.045  -1.075  30.482  0.00  0.00    -0.267 OA
ATOM      5  N   UNL d   1      57.726   0.210  30.306  0.00  0.00    -0.119 NA
ENDROOT
BRANCH   2   6
ATOM      6  C   UNL d   1      57.008  -0.515  31.367  0.00  0.00     0.127 C 
BRANCH   6   7
ATOM      7  N   UNL d   1      57.143  -0.123  32.080  0.00  0.00    -0.301 N 
ATOM      8  C   UNL d   1      56.573  -0.153  32.668  0.00  0.00     0.064 A 
ATOM      9  C   UNL d   1      56.696   0.236  33.385  0.00  0.00     0.016 A 
ATOM     10  C   UNL d   1      55.875  -0.566  32.555  0.00  0.00     0.018 A 
ATOM     11  C   UNL d   1      56.134   0.211  33.976  0.00  0.00     0.001 A 
ATOM     12  C   UNL d   1      57.401   0.654  33.501  0.00  0.00     0.003 A 
ATOM     13  C   UNL d   1      55.437  -0.202  33.860  0.00  0.00     0.000 A 
ATOM     14  C   UNL d   1      55.305  -0.595  33.143  0.00  0.00     0.002 A 
ATOM     15  C   UNL d   1      57.972   0.682  32.909  0.00  0.00     0.019 A 
ATOM     16  C   UNL d   1      57.843   0.289  32.190  0.00  0.00     0.080 A 
ENDBRANCH   6   7
ENDBRANCH   2   6
BRANCH   3  17
ATOM     17  C   UNL d   1      59.076  -1.204  29.430  0.00  0.00     0.043 A 
ATOM     18  C   UNL d   1      58.935  -1.998  29.251  0.00  0.00     0.004 A 
ATOM     19  C   UNL d   1      59.495  -2.424  28.819  0.00  0.00     0.000 A 
ATOM     20  C   UNL d   1      60.191  -2.053  28.569  0.00  0.00     0.000 A 
ATOM     21  C   UNL d   1      60.325  -1.258  28.753  0.00  0.00     0.000 A 
ATOM     22  C   UNL d   1      59.764  -0.836  29.184  0.00  0.00     0.004 A 
ENDBRANCH   3  17
TORSDOF 3
ENDMDL
MODEL 5
REMARK VINA RESULT:      -3.0      8.925      9.389
REMARK  3 active torsions:
REMARK  status: ('A' for Active; 'I' for Inactive)
REMARK    1  A    between atoms: C_8  and  C_2 
REMARK    2  A    between atoms: C_9  and  C_3 
REMARK    3  A    between atoms: N_6  and  C_8 
ROOT
ATOM      1  N   UNL d   1      58.794  -9.180  34.696  0.00  0.00    -0.121 NA
ATOM      2  C   UNL d   1      59.440  -9.441  33.558  0.00  0.00     0.222 A 
ATOM      3  C   UNL d   1      59.433  -8.663  34.647  0.00  0.00     0.204 A 
ATOM      4  O   UNL d   1      59.832  -8.828  33.938  0.00  0.00    -0.267 OA
ATOM      5  N   UNL d   1      58.794  -9.663  34.026  0.00  0.00    -0.119 NA
ENDROOT
BRANCH   2   6
ATOM      6  C   UNL d   1      59.647  -9.784  32.832  0.00  0.00     0.127 C 
BRANCH   6   7
ATOM      7  N   UNL d   1      59.121  -9.763  32.198  0.00  0.00    -0.301 N 
ATOM      8  C   UNL d   1      59.414  -9.773  31.433  0.00  0.00     0.064 A 
ATOM      9  C   UNL d   1      58.898  -9.753  30.790  0.00  0.00     0.016 A 
ATOM     10  C   UNL d   1      60.221  -9.805  31.294  0.00  0.00     0.018 A 
ATOM     11  C   UNL d   1      59.182  -9.763  30.025  0.00  0.00     0.001 A 
ATOM     12  C   UNL d   1      58.082  -9.721  30.929  0.00  0.00     0.003 A 
ATOM     13  C   UNL d   1      59.988  -9.794  29.889  0.00  0.00     0.000 A 
ATOM     14  C   UNL d   1      60.514  -9.815  30.529  0.00  0.00     0.002 A 
ATOM     15  C   UNL d   1      57.790  -9.711  31.698  0.00  0.00     0.019 A 
ATOM     16  C   UNL d   1      58.315  -9.732  32.341  0.00  0.00     0.080 A 
ENDBRANCH   6   7
ENDBRANCH   2   6
BRANCH   3  17
ATOM     17  C   UNL d   1      59.639  -8.085  35.202  0.00  0.00     0.043 A 
ATOM     18  C   UNL d   1      59.067  -7.545  35.456  0.00  0.00     0.004 A 
ATOM     19  C   UNL d   1      59.268  -6.967  36.010  0.00  0.00     0.000 A 
ATOM     20  C   UNL d   1      60.040  -6.933  36.307  0.00  0.00     0.000 A 
ATOM     21  C   UNL d   1      60.607  -7.478  36.048  0.00  0.00     0.000 A 
ATOM     22  C   UNL d   1      60.402  -8.053  35.495  0.00  0.00     0.004 A 
ENDBRANCH   3  17
TORSDOF 3
ENDMDL
