MODEL 1
REMARK VINA RESULT:      59.9      0.000      0.000
REMARK  7 active torsions:
REMARK  status: ('A' for Active; 'I' for Inactive)
REMARK    1  A    between atoms: N_10  and  C_1 
REMARK    2  A    between atoms: C_11  and  C_2 
REMARK    3  A    between atoms: C_7  and  S_14 
REMARK       I    between atoms: C_13  and  N_10 
REMARK    4  A    between atoms: O_18  and  C_11 
REMARK    5  A    between atoms: C_17  and  C_13 
REMARK    6  A    between atoms: S_14  and  C_17 
REMARK    7  A    between atoms: C_22  and  O_18 
ROOT
ATOM      1  C   UNL d   1     -51.325  25.686  33.583  0.00  0.00     0.119 A 
ATOM      2  C   UNL d   1     -51.154  24.881  33.520  0.00  0.00     0.088 A 
ATOM      3  S   UNL d   1     -52.128  25.786  33.559  0.00  0.00    -0.068 SA
ATOM      4  C   UNL d   1     -51.879  24.477  33.456  0.00  0.00     0.013 A 
ATOM      5  C   UNL d   1     -52.485  25.036  33.480  0.00  0.00     0.031 A 
ATOM      6  C   UNL d   1     -51.937  23.649  33.382  0.00  0.00     0.001 A 
ATOM      7  C   UNL d   1     -53.302  24.913  33.437  0.00  0.00     0.006 A 
ATOM      8  C   UNL d   1     -52.619  23.192  33.316  0.00  0.00     0.000 A 
ATOM      9  C   UNL d   1     -53.706  24.193  33.359  0.00  0.00     0.001 A 
ATOM     10  C   UNL d   1     -53.402  23.437  33.306  0.00  0.00     0.000 A 
ENDROOT
BRANCH   1  11
ATOM     11  N   UNL d   1     -50.769  26.300  33.658  0.00  0.00    -0.201 NA
ATOM     12  C   UNL d   1     -50.779  26.790  34.329  0.00  0.00     0.286 C 
ATOM     13  O   UNL d   1     -50.224  27.396  34.394  0.00  0.00    -0.265 OA
BRANCH  12  14
ATOM     14  C   UNL d   1     -51.336  26.674  34.924  0.00  0.00     0.100 C 
BRANCH  14  15
ATOM     15  S   UNL d   1     -51.187  26.134  35.533  0.00  0.00    -0.054 SA
BRANCH  15  16
ATOM     16  C   UNL d   1     -51.297  26.353  36.320  0.00  0.00     0.164 A 
ATOM     17  S   UNL d   1     -51.927  26.233  36.842  0.00  0.00    -0.039 SA
ATOM     18  C   UNL d   1     -51.721  26.581  37.570  0.00  0.00     0.134 A 
ATOM     19  C   UNL d   1     -52.190  26.592  38.252  0.00  0.00     0.030 C 
ATOM     20  N   UNL d   1     -50.969  26.909  37.490  0.00  0.00    -0.140 NA
ATOM     21  N   UNL d   1     -50.703  26.772  36.722  0.00  0.00    -0.134 NA
ENDBRANCH  15  16
ENDBRANCH  14  15
ENDBRANCH  12  14
ENDBRANCH   1  11
BRANCH   2  22
ATOM     22  C   UNL d   1     -50.405  24.534  33.520  0.00  0.00     0.302 C 
ATOM     23  O   UNL d   1     -50.312  23.735  33.728  0.00  0.00    -0.259 OA
BRANCH  22  24
ATOM     24  O   UNL d   1     -49.740  24.986  33.311  0.00  0.00    -0.271 OA
BRANCH  24  25
ATOM     25  C   UNL d   1     -48.982  24.676  33.407  0.00  0.00     0.126 C 
ATOM     26  C   UNL d   1     -48.387  25.126  33.756  0.00  0.00     0.029 C 
ENDBRANCH  24  25
ENDBRANCH  22  24
ENDBRANCH   2  22
TORSDOF 7
ENDMDL
