MODEL 1
REMARK VINA RESULT:      -7.7      0.000      0.000
REMARK  3 active torsions:
REMARK  status: ('A' for Active; 'I' for Inactive)
REMARK    1  A    between atoms: C_10  and  N_4 
REMARK    2  A    between atoms: C_11  and  N_6 
REMARK    3  A    between atoms: C_16  and  C_11 
ROOT
ATOM      1  C   UNL d   1     -47.419  12.334  22.801  0.00  0.00     0.172 A 
ATOM      2  C   UNL d   1     -47.865  11.812  23.259  0.00  0.00     0.113 A 
ATOM      3  N   UNL d   1     -47.793  12.868  22.302  0.00  0.00    -0.206 NA
ATOM      4  N   UNL d   1     -46.619  12.188  22.965  0.00  0.00    -0.212 N 
ATOM      5  C   UNL d   1     -48.684  11.823  23.217  0.00  0.00     0.270 A 
ATOM      6  N   UNL d   1     -49.065  12.359  22.715  0.00  0.00    -0.254 N 
ATOM      7  N   UNL d   1     -46.584  11.584  23.515  0.00  0.00    -0.162 NA
ATOM      8  C   UNL d   1     -48.620  12.881  22.257  0.00  0.00     0.187 A 
ATOM      9  C   UNL d   1     -47.331  11.352  23.697  0.00  0.00     0.129 A 
ATOM     10  O   UNL d   1     -49.129  11.301  23.675  0.00  0.00    -0.266 OA
ENDROOT
BRANCH   4  11
ATOM     11  C   UNL d   1     -45.960  12.554  22.657  0.00  0.00     0.085 A 
ATOM     12  C   UNL d   1     -45.275  12.110  22.490  0.00  0.00     0.021 A 
ATOM     13  C   UNL d   1     -44.617  12.484  22.181  0.00  0.00     0.031 A 
ATOM     14  C   UNL d   1     -44.629  13.312  22.032  0.00  0.00     0.140 A 
ATOM     15  C   UNL d   1     -45.303  13.734  22.199  0.00  0.00     0.031 A 
ATOM     16  F   UNL d   1     -43.958  13.705  21.715  0.00  0.00    -0.204 F 
ATOM     17  C   UNL d   1     -45.970  13.367  22.510  0.00  0.00     0.021 A 
ENDBRANCH   4  11
BRANCH   6  18
ATOM     18  C   UNL d   1     -49.899  12.376  22.668  0.00  0.00     0.104 C 
BRANCH  18  19
ATOM     19  C   UNL d   1     -50.293  13.095  22.528  0.00  0.00     0.099 A 
ATOM     20  N   UNL d   1     -50.359  13.641  23.143  0.00  0.00    -0.242 NA
ATOM     21  C   UNL d   1     -50.756  14.367  23.007  0.00  0.00     0.099 A 
ATOM     22  C   UNL d   1     -51.064  14.506  22.263  0.00  0.00     0.021 A 
ATOM     23  C   UNL d   1     -50.996  13.953  21.645  0.00  0.00     0.003 A 
ATOM     24  C   UNL d   1     -50.607  13.249  21.790  0.00  0.00     0.021 A 
ENDBRANCH  18  19
ENDBRANCH   6  18
TORSDOF 3
ENDMDL
MODEL 2
REMARK VINA RESULT:      -7.7      1.649      2.206
REMARK  3 active torsions:
REMARK  status: ('A' for Active; 'I' for Inactive)
REMARK    1  A    between atoms: C_10  and  N_4 
REMARK    2  A    between atoms: C_11  and  N_6 
REMARK    3  A    between atoms: C_16  and  C_11 
ROOT
ATOM      1  C   UNL d   1     -47.015  13.157  22.952  0.00  0.00     0.172 A 
ATOM      2  C   UNL d   1     -47.032  13.978  22.871  0.00  0.00     0.113 A 
ATOM      3  N   UNL d   1     -47.710  12.724  22.906  0.00  0.00    -0.206 NA
ATOM      4  N   UNL d   1     -46.225  12.936  23.074  0.00  0.00    -0.212 N 
ATOM      5  C   UNL d   1     -47.743  14.365  22.744  0.00  0.00     0.270 A 
ATOM      6  N   UNL d   1     -48.447  13.932  22.697  0.00  0.00    -0.254 N 
ATOM      7  N   UNL d   1     -45.771  13.616  23.065  0.00  0.00    -0.162 NA
ATOM      8  C   UNL d   1     -48.431  13.112  22.778  0.00  0.00     0.187 A 
ATOM      9  C   UNL d   1     -46.251  14.249  22.943  0.00  0.00     0.129 A 
ATOM     10  O   UNL d   1     -47.760  15.186  22.662  0.00  0.00    -0.266 OA
ENDROOT
BRANCH   4  11
ATOM     11  C   UNL d   1     -45.915  12.191  23.185  0.00  0.00     0.085 A 
ATOM     12  C   UNL d   1     -46.357  11.611  23.587  0.00  0.00     0.021 A 
ATOM     13  C   UNL d   1     -46.040  10.864  23.695  0.00  0.00     0.031 A 
ATOM     14  C   UNL d   1     -45.272  10.682  23.403  0.00  0.00     0.140 A 
ATOM     15  C   UNL d   1     -44.851  11.257  23.012  0.00  0.00     0.031 A 
ATOM     16  F   UNL d   1     -44.938   9.919  23.509  0.00  0.00    -0.204 F 
ATOM     17  C   UNL d   1     -45.161  12.010  22.899  0.00  0.00     0.021 A 
ENDBRANCH   4  11
BRANCH   6  18
ATOM     18  C   UNL d   1     -49.176  14.319  22.567  0.00  0.00     0.104 C 
BRANCH  18  19
ATOM     19  C   UNL d   1     -49.814  13.904  22.236  0.00  0.00     0.099 A 
ATOM     20  N   UNL d   1     -49.827  13.771  21.421  0.00  0.00    -0.242 NA
ATOM     21  C   UNL d   1     -50.470  13.352  21.083  0.00  0.00     0.099 A 
ATOM     22  C   UNL d   1     -51.064  13.089  21.578  0.00  0.00     0.021 A 
ATOM     23  C   UNL d   1     -51.049  13.224  22.399  0.00  0.00     0.003 A 
ATOM     24  C   UNL d   1     -50.417  13.634  22.717  0.00  0.00     0.021 A 
ENDBRANCH  18  19
ENDBRANCH   6  18
TORSDOF 3
ENDMDL
MODEL 3
REMARK VINA RESULT:      -7.4      8.401      9.794
REMARK  3 active torsions:
REMARK  status: ('A' for Active; 'I' for Inactive)
REMARK    1  A    between atoms: C_10  and  N_4 
REMARK    2  A    between atoms: C_11  and  N_6 
REMARK    3  A    between atoms: C_16  and  C_11 
ROOT
ATOM      1  C   UNL d   1     -39.842  14.559  19.032  0.00  0.00     0.172 A 
ATOM      2  C   UNL d   1     -40.542  14.566  19.468  0.00  0.00     0.113 A 
ATOM      3  N   UNL d   1     -39.152  14.869  19.351  0.00  0.00    -0.206 NA
ATOM      4  N   UNL d   1     -40.010  14.207  18.299  0.00  0.00    -0.212 N 
ATOM      5  C   UNL d   1     -40.552  14.884  20.224  0.00  0.00     0.270 A 
ATOM      6  N   UNL d   1     -39.860  15.198  20.551  0.00  0.00    -0.254 N 
ATOM      7  N   UNL d   1     -40.802  14.004  18.296  0.00  0.00    -0.162 NA
ATOM      8  C   UNL d   1     -39.160  15.190  20.115  0.00  0.00     0.187 A 
ATOM      9  C   UNL d   1     -41.130  14.218  18.998  0.00  0.00     0.129 A 
ATOM     10  O   UNL d   1     -41.252  14.891  20.661  0.00  0.00    -0.266 OA
ENDROOT
BRANCH   4  11
ATOM     11  C   UNL d   1     -39.509  14.068  17.673  0.00  0.00     0.085 A 
ATOM     12  C   UNL d   1     -39.067  13.362  17.639  0.00  0.00     0.021 A 
ATOM     13  C   UNL d   1     -38.566  13.230  17.006  0.00  0.00     0.031 A 
ATOM     14  C   UNL d   1     -38.494  13.802  16.393  0.00  0.00     0.140 A 
ATOM     15  C   UNL d   1     -38.929  14.486  16.438  0.00  0.00     0.031 A 
ATOM     16  F   UNL d   1     -37.982  13.675  15.740  0.00  0.00    -0.204 F 
ATOM     17  C   UNL d   1     -39.437  14.629  17.070  0.00  0.00     0.021 A 
ENDBRANCH   4  11
BRANCH   6  18
ATOM     18  C   UNL d   1     -39.862  15.522  21.320  0.00  0.00     0.104 C 
BRANCH  18  19
ATOM     19  C   UNL d   1     -39.239  15.357  21.844  0.00  0.00     0.099 A 
ATOM     20  N   UNL d   1     -39.212  14.621  22.215  0.00  0.00    -0.242 NA
ATOM     21  C   UNL d   1     -38.585  14.450  22.745  0.00  0.00     0.099 A 
ATOM     22  C   UNL d   1     -38.018  15.025  22.873  0.00  0.00     0.021 A 
ATOM     23  C   UNL d   1     -38.048  15.767  22.497  0.00  0.00     0.003 A 
ATOM     24  C   UNL d   1     -38.665  15.922  21.983  0.00  0.00     0.021 A 
ENDBRANCH  18  19
ENDBRANCH   6  18
TORSDOF 3
ENDMDL
MODEL 4
REMARK VINA RESULT:      -7.3      7.927      9.839
REMARK  3 active torsions:
REMARK  status: ('A' for Active; 'I' for Inactive)
REMARK    1  A    between atoms: C_10  and  N_4 
REMARK    2  A    between atoms: C_11  and  N_6 
REMARK    3  A    between atoms: C_16  and  C_11 
ROOT
ATOM      1  C   UNL d   1     -40.000  14.801  19.737  0.00  0.00     0.172 A 
ATOM      2  C   UNL d   1     -40.604  14.417  19.326  0.00  0.00     0.113 A 
ATOM      3  N   UNL d   1     -39.419  15.211  19.328  0.00  0.00    -0.206 NA
ATOM      4  N   UNL d   1     -40.130  14.671  20.546  0.00  0.00    -0.212 N 
ATOM      5  C   UNL d   1     -40.627  14.444  18.507  0.00  0.00     0.270 A 
ATOM      6  N   UNL d   1     -40.043  14.857  18.090  0.00  0.00    -0.254 N 
ATOM      7  N   UNL d   1     -40.805  14.215  20.621  0.00  0.00    -0.162 NA
ATOM      8  C   UNL d   1     -39.439  15.241  18.501  0.00  0.00     0.187 A 
ATOM      9  C   UNL d   1     -41.096  14.058  19.889  0.00  0.00     0.129 A 
ATOM     10  O   UNL d   1     -41.231  14.061  18.096  0.00  0.00    -0.266 OA
ENDROOT
BRANCH   4  11
ATOM     11  C   UNL d   1     -39.691  14.932  21.181  0.00  0.00     0.085 A 
ATOM     12  C   UNL d   1     -39.038  14.488  21.448  0.00  0.00     0.021 A 
ATOM     13  C   UNL d   1     -38.602  14.756  22.086  0.00  0.00     0.031 A 
ATOM     14  C   UNL d   1     -38.810  15.475  22.472  0.00  0.00     0.140 A 
ATOM     15  C   UNL d   1     -39.449  15.898  22.202  0.00  0.00     0.031 A 
ATOM     16  F   UNL d   1     -38.368  15.757  23.128  0.00  0.00    -0.204 F 
ATOM     17  C   UNL d   1     -39.893  15.637  21.561  0.00  0.00     0.021 A 
ENDBRANCH   4  11
BRANCH   6  18
ATOM     18  C   UNL d   1     -40.059  14.890  17.256  0.00  0.00     0.104 C 
BRANCH  18  19
ATOM     19  C   UNL d   1     -39.353  14.829  16.823  0.00  0.00     0.099 A 
ATOM     20  N   UNL d   1     -38.974  15.519  16.576  0.00  0.00    -0.242 NA
ATOM     21  C   UNL d   1     -38.260  15.462  16.139  0.00  0.00     0.099 A 
ATOM     22  C   UNL d   1     -37.966  14.717  15.973  0.00  0.00     0.021 A 
ATOM     23  C   UNL d   1     -38.351  14.023  16.224  0.00  0.00     0.003 A 
ATOM     24  C   UNL d   1     -39.045  14.092  16.649  0.00  0.00     0.021 A 
ENDBRANCH  18  19
ENDBRANCH   6  18
TORSDOF 3
ENDMDL
MODEL 5
REMARK VINA RESULT:      -6.6      1.762      4.495
REMARK  3 active torsions:
REMARK  status: ('A' for Active; 'I' for Inactive)
REMARK    1  A    between atoms: C_10  and  N_4 
REMARK    2  A    between atoms: C_11  and  N_6 
REMARK    3  A    between atoms: C_16  and  C_11 
ROOT
ATOM      1  C   UNL d   1     -48.568  12.956  23.116  0.00  0.00     0.172 A 
ATOM      2  C   UNL d   1     -48.437  12.141  23.117  0.00  0.00     0.113 A 
ATOM      3  N   UNL d   1     -47.940  13.476  23.205  0.00  0.00    -0.206 NA
ATOM      4  N   UNL d   1     -49.383  13.075  23.016  0.00  0.00    -0.212 N 
ATOM      5  C   UNL d   1     -47.676  11.847  23.207  0.00  0.00     0.270 A 
ATOM      6  N   UNL d   1     -47.039  12.367  23.297  0.00  0.00    -0.254 N 
ATOM      7  N   UNL d   1     -49.738  12.340  22.958  0.00  0.00    -0.162 NA
ATOM      8  C   UNL d   1     -47.171  13.182  23.296  0.00  0.00     0.187 A 
ATOM      9  C   UNL d   1     -49.173  11.772  23.018  0.00  0.00     0.129 A 
ATOM     10  O   UNL d   1     -47.545  11.032  23.208  0.00  0.00    -0.266 OA
ENDROOT
BRANCH   4  11
ATOM     11  C   UNL d   1     -49.795  13.776  22.977  0.00  0.00     0.085 A 
ATOM     12  C   UNL d   1     -49.854  14.186  22.255  0.00  0.00     0.021 A 
ATOM     13  C   UNL d   1     -50.270  14.890  22.223  0.00  0.00     0.031 A 
ATOM     14  C   UNL d   1     -50.636  15.200  22.915  0.00  0.00     0.140 A 
ATOM     15  C   UNL d   1     -50.570  14.791  23.613  0.00  0.00     0.031 A 
ATOM     16  F   UNL d   1     -51.064  15.922  22.892  0.00  0.00    -0.204 F 
ATOM     17  C   UNL d   1     -50.155  14.082  23.655  0.00  0.00     0.021 A 
ENDBRANCH   4  11
BRANCH   6  18
ATOM     18  C   UNL d   1     -46.262  12.076  23.389  0.00  0.00     0.104 C 
BRANCH  18  19
ATOM     19  C   UNL d   1     -45.653  12.353  22.897  0.00  0.00     0.099 A 
ATOM     20  N   UNL d   1     -44.961  11.909  22.828  0.00  0.00    -0.242 NA
ATOM     21  C   UNL d   1     -44.343  12.185  22.333  0.00  0.00     0.099 A 
ATOM     22  C   UNL d   1     -44.452  12.890  21.934  0.00  0.00     0.021 A 
ATOM     23  C   UNL d   1     -45.151  13.336  22.006  0.00  0.00     0.003 A 
ATOM     24  C   UNL d   1     -45.746  13.056  22.492  0.00  0.00     0.021 A 
ENDBRANCH  18  19
ENDBRANCH   6  18
TORSDOF 3
ENDMDL
MODEL 6
REMARK VINA RESULT:      -6.5      2.257      4.830
REMARK  3 active torsions:
REMARK  status: ('A' for Active; 'I' for Inactive)
REMARK    1  A    between atoms: C_10  and  N_4 
REMARK    2  A    between atoms: C_11  and  N_6 
REMARK    3  A    between atoms: C_16  and  C_11 
ROOT
ATOM      1  C   UNL d   1     -47.989  13.598  22.734  0.00  0.00     0.172 A 
ATOM      2  C   UNL d   1     -47.690  14.345  22.554  0.00  0.00     0.113 A 
ATOM      3  N   UNL d   1     -47.478  12.977  22.898  0.00  0.00    -0.206 NA
ATOM      4  N   UNL d   1     -48.817  13.649  22.707  0.00  0.00    -0.212 N 
ATOM      5  C   UNL d   1     -46.880  14.471  22.536  0.00  0.00     0.270 A 
ATOM      6  N   UNL d   1     -46.360  13.848  22.701  0.00  0.00    -0.254 N 
ATOM      7  N   UNL d   1     -49.013  14.419  22.512  0.00  0.00    -0.162 NA
ATOM      8  C   UNL d   1     -46.659  13.101  22.882  0.00  0.00     0.187 A 
ATOM      9  C   UNL d   1     -48.338  14.844  22.418  0.00  0.00     0.129 A 
ATOM     10  O   UNL d   1     -46.581  15.219  22.355  0.00  0.00    -0.266 OA
ENDROOT
BRANCH   4  11
ATOM     11  C   UNL d   1     -49.369  13.066  22.843  0.00  0.00     0.085 A 
ATOM     12  C   UNL d   1     -49.528  12.497  22.255  0.00  0.00     0.021 A 
ATOM     13  C   UNL d   1     -50.083  11.913  22.398  0.00  0.00     0.031 A 
ATOM     14  C   UNL d   1     -50.493  11.886  23.133  0.00  0.00     0.140 A 
ATOM     15  C   UNL d   1     -50.328  12.447  23.698  0.00  0.00     0.031 A 
ATOM     16  F   UNL d   1     -51.064  11.291  23.289  0.00  0.00    -0.204 F 
ATOM     17  C   UNL d   1     -49.771  13.037  23.564  0.00  0.00     0.021 A 
ENDBRANCH   4  11
BRANCH   6  18
ATOM     18  C   UNL d   1     -45.534  13.969  22.685  0.00  0.00     0.104 C 
BRANCH  18  19
ATOM     19  C   UNL d   1     -45.032  13.370  22.403  0.00  0.00     0.099 A 
ATOM     20  N   UNL d   1     -44.972  12.665  22.827  0.00  0.00    -0.242 NA
ATOM     21  C   UNL d   1     -44.465  12.058  22.545  0.00  0.00     0.099 A 
ATOM     22  C   UNL d   1     -44.047  12.191  21.856  0.00  0.00     0.021 A 
ATOM     23  C   UNL d   1     -44.110  12.904  21.431  0.00  0.00     0.003 A 
ATOM     24  C   UNL d   1     -44.607  13.488  21.715  0.00  0.00     0.021 A 
ENDBRANCH  18  19
ENDBRANCH   6  18
TORSDOF 3
ENDMDL
MODEL 7
REMARK VINA RESULT:      -5.7      9.173      9.918
REMARK  3 active torsions:
REMARK  status: ('A' for Active; 'I' for Inactive)
REMARK    1  A    between atoms: C_10  and  N_4 
REMARK    2  A    between atoms: C_11  and  N_6 
REMARK    3  A    between atoms: C_16  and  C_11 
ROOT
ATOM      1  C   UNL d   1     -38.617  14.230  20.031  0.00  0.00     0.172 A 
ATOM      2  C   UNL d   1     -38.331  13.653  19.516  0.00  0.00     0.113 A 
ATOM      3  N   UNL d   1     -39.033  14.875  19.740  0.00  0.00    -0.206 NA
ATOM      4  N   UNL d   1     -38.398  14.006  20.800  0.00  0.00    -0.212 N 
ATOM      5  C   UNL d   1     -38.461  13.720  18.709  0.00  0.00     0.270 A 
ATOM      6  N   UNL d   1     -38.880  14.368  18.410  0.00  0.00    -0.254 N 
ATOM      7  N   UNL d   1     -37.986  13.302  20.747  0.00  0.00    -0.162 NA
ATOM      8  C   UNL d   1     -39.166  14.946  18.925  0.00  0.00     0.187 A 
ATOM      9  C   UNL d   1     -37.941  13.083  19.975  0.00  0.00     0.129 A 
ATOM     10  O   UNL d   1     -38.176  13.143  18.194  0.00  0.00    -0.266 OA
ENDROOT
BRANCH   4  11
ATOM     11  C   UNL d   1     -38.547  14.388  21.504  0.00  0.00     0.085 A 
ATOM     12  C   UNL d   1     -39.081  14.059  22.052  0.00  0.00     0.021 A 
ATOM     13  C   UNL d   1     -39.226  14.448  22.757  0.00  0.00     0.031 A 
ATOM     14  C   UNL d   1     -38.838  15.175  22.930  0.00  0.00     0.140 A 
ATOM     15  C   UNL d   1     -38.319  15.485  22.387  0.00  0.00     0.031 A 
ATOM     16  F   UNL d   1     -38.980  15.581  23.651  0.00  0.00    -0.204 F 
ATOM     17  C   UNL d   1     -38.167  15.101  21.675  0.00  0.00     0.021 A 
ENDBRANCH   4  11
BRANCH   6  18
ATOM     18  C   UNL d   1     -39.017  14.444  17.590  0.00  0.00     0.104 C 
BRANCH  18  19
ATOM     19  C   UNL d   1     -39.688  14.849  17.315  0.00  0.00     0.099 A 
ATOM     20  N   UNL d   1     -40.436  14.571  17.522  0.00  0.00    -0.242 NA
ATOM     21  C   UNL d   1     -41.117  14.977  17.247  0.00  0.00     0.099 A 
ATOM     22  C   UNL d   1     -41.010  15.639  16.780  0.00  0.00     0.021 A 
ATOM     23  C   UNL d   1     -40.254  15.918  16.573  0.00  0.00     0.003 A 
ATOM     24  C   UNL d   1     -39.598  15.513  16.848  0.00  0.00     0.021 A 
ENDBRANCH  18  19
ENDBRANCH   6  18
TORSDOF 3
ENDMDL
MODEL 8
REMARK VINA RESULT:      -5.2      8.956      9.980
REMARK  3 active torsions:
REMARK  status: ('A' for Active; 'I' for Inactive)
REMARK    1  A    between atoms: C_10  and  N_4 
REMARK    2  A    between atoms: C_11  and  N_6 
REMARK    3  A    between atoms: C_16  and  C_11 
ROOT
ATOM      1  C   UNL d   1     -39.590  14.498  18.413  0.00  0.00     0.172 A 
ATOM      2  C   UNL d   1     -38.885  14.096  18.562  0.00  0.00     0.113 A 
ATOM      3  N   UNL d   1     -40.054  14.762  19.037  0.00  0.00    -0.206 NA
ATOM      4  N   UNL d   1     -39.678  14.549  17.590  0.00  0.00    -0.212 N 
ATOM      5  C   UNL d   1     -38.645  13.958  19.334  0.00  0.00     0.270 A 
ATOM      6  N   UNL d   1     -39.109  14.222  19.966  0.00  0.00    -0.254 N 
ATOM      7  N   UNL d   1     -39.032  14.182  17.247  0.00  0.00    -0.162 NA
ATOM      8  C   UNL d   1     -39.814  14.624  19.817  0.00  0.00     0.187 A 
ATOM      9  C   UNL d   1     -38.550  13.906  17.827  0.00  0.00     0.129 A 
ATOM     10  O   UNL d   1     -37.940  13.556  19.482  0.00  0.00    -0.266 OA
ENDROOT
BRANCH   4  11
ATOM     11  C   UNL d   1     -40.279  14.892  17.161  0.00  0.00     0.085 A 
ATOM     12  C   UNL d   1     -40.121  15.548  16.672  0.00  0.00     0.021 A 
ATOM     13  C   UNL d   1     -40.730  15.888  16.244  0.00  0.00     0.031 A 
ATOM     14  C   UNL d   1     -41.512  15.579  16.296  0.00  0.00     0.140 A 
ATOM     15  C   UNL d   1     -41.652  14.940  16.777  0.00  0.00     0.031 A 
ATOM     16  F   UNL d   1     -42.142  15.922  15.861  0.00  0.00    -0.204 F 
ATOM     17  C   UNL d   1     -41.047  14.591  17.211  0.00  0.00     0.021 A 
ENDBRANCH   4  11
BRANCH   6  18
ATOM     18  C   UNL d   1     -38.871  14.085  20.754  0.00  0.00     0.104 C 
BRANCH  18  19
ATOM     19  C   UNL d   1     -38.950  14.686  21.323  0.00  0.00     0.099 A 
ATOM     20  N   UNL d   1     -38.383  15.284  21.355  0.00  0.00    -0.242 NA
ATOM     21  C   UNL d   1     -38.459  15.892  21.928  0.00  0.00     0.099 A 
ATOM     22  C   UNL d   1     -39.098  15.868  22.436  0.00  0.00     0.021 A 
ATOM     23  C   UNL d   1     -39.669  15.263  22.401  0.00  0.00     0.003 A 
ATOM     24  C   UNL d   1     -39.584  14.676  21.839  0.00  0.00     0.021 A 
ENDBRANCH  18  19
ENDBRANCH   6  18
TORSDOF 3
ENDMDL
MODEL 9
REMARK VINA RESULT:      -4.8      7.226     10.013
REMARK  3 active torsions:
REMARK  status: ('A' for Active; 'I' for Inactive)
REMARK    1  A    between atoms: C_10  and  N_4 
REMARK    2  A    between atoms: C_11  and  N_6 
REMARK    3  A    between atoms: C_16  and  C_11 
ROOT
ATOM      1  C   UNL d   1     -39.820  14.930  19.779  0.00  0.00     0.172 A 
ATOM      2  C   UNL d   1     -39.111  15.342  19.864  0.00  0.00     0.113 A 
ATOM      3  N   UNL d   1     -40.068  14.682  19.037  0.00  0.00    -0.206 NA
ATOM      4  N   UNL d   1     -40.153  14.851  20.535  0.00  0.00    -0.212 N 
ATOM      5  C   UNL d   1     -38.649  15.508  19.207  0.00  0.00     0.270 A 
ATOM      6  N   UNL d   1     -38.895  15.260  18.456  0.00  0.00    -0.254 N 
ATOM      7  N   UNL d   1     -39.650  15.213  21.069  0.00  0.00    -0.162 NA
ATOM      8  C   UNL d   1     -39.604  14.848  18.371  0.00  0.00     0.187 A 
ATOM      9  C   UNL d   1     -39.019  15.511  20.671  0.00  0.00     0.129 A 
ATOM     10  O   UNL d   1     -37.940  15.921  19.292  0.00  0.00    -0.266 OA
ENDROOT
BRANCH   4  11
ATOM     11  C   UNL d   1     -40.850  14.489  20.750  0.00  0.00     0.085 A 
ATOM     12  C   UNL d   1     -41.544  14.941  20.845  0.00  0.00     0.021 A 
ATOM     13  C   UNL d   1     -42.240  14.570  21.062  0.00  0.00     0.031 A 
ATOM     14  C   UNL d   1     -42.259  13.738  21.188  0.00  0.00     0.140 A 
ATOM     15  C   UNL d   1     -41.576  13.309  21.091  0.00  0.00     0.031 A 
ATOM     16  F   UNL d   1     -42.969  13.349  21.410  0.00  0.00    -0.204 F 
ATOM     17  C   UNL d   1     -40.870  13.672  20.874  0.00  0.00     0.021 A 
ENDBRANCH   4  11
BRANCH   6  18
ATOM     18  C   UNL d   1     -38.430  15.425  17.782  0.00  0.00     0.104 C 
BRANCH  18  19
ATOM     19  C   UNL d   1     -38.398  14.880  17.156  0.00  0.00     0.099 A 
ATOM     20  N   UNL d   1     -38.791  15.056  16.452  0.00  0.00    -0.242 NA
ATOM     21  C   UNL d   1     -38.761  14.509  15.817  0.00  0.00     0.099 A 
ATOM     22  C   UNL d   1     -38.340  13.816  15.922  0.00  0.00     0.021 A 
ATOM     23  C   UNL d   1     -37.945  13.641  16.633  0.00  0.00     0.003 A 
ATOM     24  C   UNL d   1     -37.982  14.183  17.245  0.00  0.00     0.021 A 
ENDBRANCH  18  19
ENDBRANCH   6  18
TORSDOF 3
ENDMDL
