MODEL 1
REMARK VINA RESULT:      -8.2      0.000      0.000
REMARK  5 active torsions:
REMARK  status: ('A' for Active; 'I' for Inactive)
REMARK    1  A    between atoms: N_12  and  C_5 
REMARK    2  A    between atoms: C_17  and  N_12 
REMARK    3  A    between atoms: C_19  and  C_17 
REMARK    4  A    between atoms: C_18  and  C_20 
REMARK    5  A    between atoms: C_20  and  C_19 
ROOT
ATOM      1  C   UNL d   1     -48.200  13.494  22.996  0.00  0.00     0.159 A 
ATOM      2  N   UNL d   1     -47.900  12.787  23.298  0.00  0.00    -0.275 N 
ATOM      3  C   UNL d   1     -47.678  14.107  22.783  0.00  0.00     0.103 A 
ATOM      4  N   UNL d   1     -49.015  13.592  22.907  0.00  0.00    -0.226 NA
ATOM      5  C   UNL d   1     -47.075  12.690  23.388  0.00  0.00     0.149 A 
ATOM      6  C   UNL d   1     -46.863  14.010  22.872  0.00  0.00     0.016 A 
ATOM      7  C   UNL d   1     -46.562  13.303  23.174  0.00  0.00     0.038 A 
ATOM      8  C   UNL d   1     -49.234  12.273  23.421  0.00  0.00     0.084 A 
ATOM      9  C   UNL d   1     -49.534  12.980  23.120  0.00  0.00     0.099 A 
ATOM     10  C   UNL d   1     -47.978  14.814  22.481  0.00  0.00     0.104 C 
ATOM     11  N   UNL d   1     -48.278  15.521  22.179  0.00  0.00    -0.191 NA
ATOM     12  C   UNL d   1     -46.348  14.620  22.660  0.00  0.00     0.001 C 
ATOM     13  C   UNL d   1     -49.755  11.657  23.636  0.00  0.00     0.019 A 
ATOM     14  C   UNL d   1     -50.358  13.074  23.031  0.00  0.00     0.021 A 
ATOM     15  C   UNL d   1     -50.563  11.761  23.545  0.00  0.00     0.002 A 
ATOM     16  C   UNL d   1     -50.864  12.467  23.243  0.00  0.00     0.002 A 
ENDROOT
BRANCH   5  17
ATOM     17  N   UNL d   1     -46.775  11.983  23.690  0.00  0.00    -0.227 NA
BRANCH  17  18
ATOM     18  C   UNL d   1     -46.047  11.698  23.425  0.00  0.00     0.101 C 
BRANCH  18  19
ATOM     19  C   UNL d   1     -45.778  10.959  23.675  0.00  0.00     0.024 C 
BRANCH  19  20
ATOM     20  C   UNL d   1     -44.983  10.755  23.580  0.00  0.00     0.047 C 
BRANCH  20  21
ATOM     21  C   UNL d   1     -44.741   9.976  23.697  0.00  0.00     0.234 C 
ATOM     22  O   UNL d   1     -43.938   9.785  23.668  0.00  0.00    -0.283 OA
ENDBRANCH  20  21
ENDBRANCH  19  20
ENDBRANCH  18  19
ENDBRANCH  17  18
ENDBRANCH   5  17
TORSDOF 5
ENDMDL
MODEL 2
REMARK VINA RESULT:      -7.7      1.664      2.782
REMARK  5 active torsions:
REMARK  status: ('A' for Active; 'I' for Inactive)
REMARK    1  A    between atoms: N_12  and  C_5 
REMARK    2  A    between atoms: C_17  and  N_12 
REMARK    3  A    between atoms: C_19  and  C_17 
REMARK    4  A    between atoms: C_18  and  C_20 
REMARK    5  A    between atoms: C_20  and  C_19 
ROOT
ATOM      1  C   UNL d   1     -48.411  12.767  23.194  0.00  0.00     0.159 A 
ATOM      2  N   UNL d   1     -47.696  13.152  23.048  0.00  0.00    -0.275 N 
ATOM      3  C   UNL d   1     -48.410  11.961  23.406  0.00  0.00     0.103 A 
ATOM      4  N   UNL d   1     -49.123  13.180  23.130  0.00  0.00    -0.226 NA
ATOM      5  C   UNL d   1     -46.976  12.734  23.114  0.00  0.00     0.149 A 
ATOM      6  C   UNL d   1     -47.697  11.548  23.470  0.00  0.00     0.016 A 
ATOM      7  C   UNL d   1     -46.983  11.934  23.325  0.00  0.00     0.038 A 
ATOM      8  C   UNL d   1     -48.408  14.368  22.773  0.00  0.00     0.084 A 
ATOM      9  C   UNL d   1     -49.122  13.982  22.919  0.00  0.00     0.099 A 
ATOM     10  C   UNL d   1     -49.124  11.576  23.552  0.00  0.00     0.104 C 
ATOM     11  N   UNL d   1     -49.839  11.190  23.698  0.00  0.00    -0.191 NA
ATOM     12  C   UNL d   1     -47.700  10.750  23.681  0.00  0.00     0.001 C 
ATOM     13  C   UNL d   1     -48.405  15.176  22.560  0.00  0.00     0.019 A 
ATOM     14  C   UNL d   1     -49.839  14.403  22.853  0.00  0.00     0.021 A 
ATOM     15  C   UNL d   1     -49.117  15.579  22.498  0.00  0.00     0.002 A 
ATOM     16  C   UNL d   1     -49.831  15.193  22.644  0.00  0.00     0.002 A 
ENDROOT
BRANCH   5  17
ATOM     17  N   UNL d   1     -46.261  13.119  22.968  0.00  0.00    -0.227 NA
BRANCH  17  18
ATOM     18  C   UNL d   1     -45.800  12.901  22.319  0.00  0.00     0.101 C 
BRANCH  18  19
ATOM     19  C   UNL d   1     -45.044  13.218  22.226  0.00  0.00     0.024 C 
BRANCH  19  20
ATOM     20  C   UNL d   1     -44.537  12.914  21.649  0.00  0.00     0.047 C 
BRANCH  20  21
ATOM     21  C   UNL d   1     -43.735  13.106  21.662  0.00  0.00     0.234 C 
ATOM     22  O   UNL d   1     -43.174  12.549  21.426  0.00  0.00    -0.283 OA
ENDBRANCH  20  21
ENDBRANCH  19  20
ENDBRANCH  18  19
ENDBRANCH  17  18
ENDBRANCH   5  17
TORSDOF 5
ENDMDL
MODEL 3
REMARK VINA RESULT:      -7.6      1.525      1.741
REMARK  5 active torsions:
REMARK  status: ('A' for Active; 'I' for Inactive)
REMARK    1  A    between atoms: N_12  and  C_5 
REMARK    2  A    between atoms: C_17  and  N_12 
REMARK    3  A    between atoms: C_19  and  C_17 
REMARK    4  A    between atoms: C_18  and  C_20 
REMARK    5  A    between atoms: C_20  and  C_19 
ROOT
ATOM      1  C   UNL d   1     -48.828  13.848  22.915  0.00  0.00     0.159 A 
ATOM      2  N   UNL d   1     -48.138  13.401  22.993  0.00  0.00    -0.275 N 
ATOM      3  C   UNL d   1     -48.777  14.651  22.698  0.00  0.00     0.103 A 
ATOM      4  N   UNL d   1     -49.564  13.499  23.052  0.00  0.00    -0.226 NA
ATOM      5  C   UNL d   1     -47.394  13.755  22.855  0.00  0.00     0.149 A 
ATOM      6  C   UNL d   1     -48.042  15.000  22.561  0.00  0.00     0.016 A 
ATOM      7  C   UNL d   1     -47.352  14.553  22.639  0.00  0.00     0.038 A 
ATOM      8  C   UNL d   1     -48.923  12.252  23.346  0.00  0.00     0.084 A 
ATOM      9  C   UNL d   1     -49.612  12.699  23.268  0.00  0.00     0.099 A 
ATOM     10  C   UNL d   1     -49.467  15.097  22.620  0.00  0.00     0.104 C 
ATOM     11  N   UNL d   1     -50.156  15.544  22.542  0.00  0.00    -0.191 NA
ATOM     12  C   UNL d   1     -47.996  15.796  22.346  0.00  0.00     0.001 C 
ATOM     13  C   UNL d   1     -48.970  11.447  23.564  0.00  0.00     0.019 A 
ATOM     14  C   UNL d   1     -50.353  12.343  23.407  0.00  0.00     0.021 A 
ATOM     15  C   UNL d   1     -49.704  11.107  23.698  0.00  0.00     0.002 A 
ATOM     16  C   UNL d   1     -50.393  11.554  23.620  0.00  0.00     0.002 A 
ENDROOT
BRANCH   5  17
ATOM     17  N   UNL d   1     -46.705  13.309  22.932  0.00  0.00    -0.227 NA
BRANCH  17  18
ATOM     18  C   UNL d   1     -46.069  13.440  22.423  0.00  0.00     0.101 C 
BRANCH  18  19
ATOM     19  C   UNL d   1     -45.389  12.978  22.486  0.00  0.00     0.024 C 
BRANCH  19  20
ATOM     20  C   UNL d   1     -44.832  12.978  21.877  0.00  0.00     0.047 C 
BRANCH  20  21
ATOM     21  C   UNL d   1     -44.151  12.517  21.940  0.00  0.00     0.234 C 
ATOM     22  O   UNL d   1     -43.497  12.679  21.463  0.00  0.00    -0.283 OA
ENDBRANCH  20  21
ENDBRANCH  19  20
ENDBRANCH  18  19
ENDBRANCH  17  18
ENDBRANCH   5  17
TORSDOF 5
ENDMDL
MODEL 4
REMARK VINA RESULT:      -6.7      0.835      2.651
REMARK  5 active torsions:
REMARK  status: ('A' for Active; 'I' for Inactive)
REMARK    1  A    between atoms: N_12  and  C_5 
REMARK    2  A    between atoms: C_17  and  N_12 
REMARK    3  A    between atoms: C_19  and  C_17 
REMARK    4  A    between atoms: C_18  and  C_20 
REMARK    5  A    between atoms: C_20  and  C_19 
ROOT
ATOM      1  C   UNL d   1     -48.913  12.874  23.061  0.00  0.00     0.159 A 
ATOM      2  N   UNL d   1     -48.104  12.796  23.207  0.00  0.00    -0.275 N 
ATOM      3  C   UNL d   1     -49.425  12.237  23.226  0.00  0.00     0.103 A 
ATOM      4  N   UNL d   1     -49.210  13.579  22.753  0.00  0.00    -0.226 NA
ATOM      5  C   UNL d   1     -47.804  12.081  23.519  0.00  0.00     0.149 A 
ATOM      6  C   UNL d   1     -49.127  11.532  23.534  0.00  0.00     0.016 A 
ATOM      7  C   UNL d   1     -48.319  11.454  23.680  0.00  0.00     0.038 A 
ATOM      8  C   UNL d   1     -47.890  14.134  22.736  0.00  0.00     0.084 A 
ATOM      9  C   UNL d   1     -48.698  14.212  22.589  0.00  0.00     0.099 A 
ATOM     10  C   UNL d   1     -50.233  12.315  23.079  0.00  0.00     0.104 C 
ATOM     11  N   UNL d   1     -51.042  12.393  22.933  0.00  0.00    -0.191 NA
ATOM     12  C   UNL d   1     -49.639  10.904  23.695  0.00  0.00     0.001 C 
ATOM     13  C   UNL d   1     -47.374  14.770  22.572  0.00  0.00     0.019 A 
ATOM     14  C   UNL d   1     -48.995  14.926  22.278  0.00  0.00     0.021 A 
ATOM     15  C   UNL d   1     -47.677  15.468  22.266  0.00  0.00     0.002 A 
ATOM     16  C   UNL d   1     -48.485  15.546  22.120  0.00  0.00     0.002 A 
ENDROOT
BRANCH   5  17
ATOM     17  N   UNL d   1     -46.996  12.004  23.665  0.00  0.00    -0.227 NA
BRANCH  17  18
ATOM     18  C   UNL d   1     -46.566  11.405  23.294  0.00  0.00     0.101 C 
BRANCH  18  19
ATOM     19  C   UNL d   1     -45.743  11.386  23.361  0.00  0.00     0.024 C 
BRANCH  19  20
ATOM     20  C   UNL d   1     -45.367  10.704  23.635  0.00  0.00     0.047 C 
BRANCH  20  21
ATOM     21  C   UNL d   1     -44.610  10.515  23.365  0.00  0.00     0.234 C 
ATOM     22  O   UNL d   1     -44.202   9.879  23.698  0.00  0.00    -0.283 OA
ENDBRANCH  20  21
ENDBRANCH  19  20
ENDBRANCH  18  19
ENDBRANCH  17  18
ENDBRANCH   5  17
TORSDOF 5
ENDMDL
MODEL 5
REMARK VINA RESULT:      -5.6      2.065      4.251
REMARK  5 active torsions:
REMARK  status: ('A' for Active; 'I' for Inactive)
REMARK    1  A    between atoms: N_12  and  C_5 
REMARK    2  A    between atoms: C_17  and  N_12 
REMARK    3  A    between atoms: C_19  and  C_17 
REMARK    4  A    between atoms: C_18  and  C_20 
REMARK    5  A    between atoms: C_20  and  C_19 
ROOT
ATOM      1  C   UNL d   1     -46.707  12.533  23.203  0.00  0.00     0.159 A 
ATOM      2  N   UNL d   1     -47.516  12.662  23.304  0.00  0.00    -0.275 N 
ATOM      3  C   UNL d   1     -46.391  11.773  23.331  0.00  0.00     0.103 A 
ATOM      4  N   UNL d   1     -46.215  13.156  22.975  0.00  0.00    -0.226 NA
ATOM      5  C   UNL d   1     -48.013  12.031  23.534  0.00  0.00     0.149 A 
ATOM      6  C   UNL d   1     -46.883  11.150  23.558  0.00  0.00     0.016 A 
ATOM      7  C   UNL d   1     -47.691  11.279  23.660  0.00  0.00     0.038 A 
ATOM      8  C   UNL d   1     -47.341  14.042  22.949  0.00  0.00     0.084 A 
ATOM      9  C   UNL d   1     -46.532  13.913  22.848  0.00  0.00     0.099 A 
ATOM     10  C   UNL d   1     -45.582  11.645  23.230  0.00  0.00     0.104 C 
ATOM     11  N   UNL d   1     -44.774  11.516  23.129  0.00  0.00    -0.191 NA
ATOM     12  C   UNL d   1     -46.565  10.398  23.684  0.00  0.00     0.001 C 
ATOM     13  C   UNL d   1     -47.661  14.803  22.822  0.00  0.00     0.019 A 
ATOM     14  C   UNL d   1     -46.039  14.545  22.619  0.00  0.00     0.021 A 
ATOM     15  C   UNL d   1     -47.166  15.416  22.596  0.00  0.00     0.002 A 
ATOM     16  C   UNL d   1     -46.358  15.288  22.495  0.00  0.00     0.002 A 
ENDROOT
BRANCH   5  17
ATOM     17  N   UNL d   1     -48.822  12.160  23.635  0.00  0.00    -0.227 NA
BRANCH  17  18
ATOM     18  C   UNL d   1     -49.337  12.065  22.997  0.00  0.00     0.101 C 
BRANCH  18  19
ATOM     19  C   UNL d   1     -50.134  12.260  23.080  0.00  0.00     0.024 C 
BRANCH  19  20
ATOM     20  C   UNL d   1     -50.615  12.324  22.412  0.00  0.00     0.047 C 
BRANCH  20  21
ATOM     21  C   UNL d   1     -51.063  13.005  22.290  0.00  0.00     0.234 C 
ATOM     22  O   UNL d   1     -51.064  13.371  21.550  0.00  0.00    -0.283 OA
ENDBRANCH  20  21
ENDBRANCH  19  20
ENDBRANCH  18  19
ENDBRANCH  17  18
ENDBRANCH   5  17
TORSDOF 5
ENDMDL
