MODEL 1
REMARK VINA RESULT:       0.7      0.000      0.000
REMARK  3 active torsions:
REMARK  status: ('A' for Active; 'I' for Inactive)
REMARK    1  A    between atoms: C_14  and  C_1 
REMARK    2  A    between atoms: C_3  and  C_8 
REMARK       I    between atoms: C_8  and  N_13 
REMARK    3  A    between atoms: N_13  and  C_15 
ROOT
ATOM      1  C   UNL d   1     -41.786-122.906 -50.879  0.00  0.00     0.025 A 
ATOM      2  C   UNL d   1     -41.299-121.863 -51.735  0.00  0.00     0.085 A 
ATOM      3  C   UNL d   1     -41.630-122.105 -51.019  0.00  0.00     0.021 A 
ATOM      4  C   UNL d   1     -41.626-123.458 -51.412  0.00  0.00     0.002 A 
ATOM      5  C   UNL d   1     -41.302-123.244 -52.119  0.00  0.00     0.002 A 
ATOM      6  C   UNL d   1     -41.123-122.446 -52.316  0.00  0.00     0.019 A 
ENDROOT
BRANCH   2   7
ATOM      7  N   UNL d   1     -41.138-121.077 -51.891  0.00  0.00    -0.206 NA
ATOM      8  C   UNL d   1     -41.331-120.768 -52.643  0.00  0.00     0.302 C 
ATOM      9  O   UNL d   1     -41.160-119.947 -52.794  0.00  0.00    -0.263 OA
BRANCH   8  10
ATOM     10  C   UNL d   1     -41.664-121.234 -53.194  0.00  0.00     0.161 A 
ATOM     11  C   UNL d   1     -42.477-121.261 -53.191  0.00  0.00     0.072 A 
ATOM     12  C   UNL d   1     -42.835-121.739 -53.754  0.00  0.00     0.200 A 
ATOM     13  O   UNL d   1     -43.638-121.780 -53.769  0.00  0.00    -0.286 OA
ATOM     14  C   UNL d   1     -42.392-122.172 -54.299  0.00  0.00     0.062 A 
ATOM     15  C   UNL d   1     -41.567-122.135 -54.290  0.00  0.00     0.103 A 
ATOM     16  C   UNL d   1     -42.745-122.653 -54.866  0.00  0.00     0.005 A 
ATOM     17  O   UNL d   1     -41.182-121.663 -53.734  0.00  0.00    -0.302 OA
ATOM     18  C   UNL d   1     -41.124-122.583 -54.851  0.00  0.00     0.025 A 
ATOM     19  C   UNL d   1     -41.470-123.050 -55.402  0.00  0.00     0.002 A 
ATOM     20  C   UNL d   1     -42.274-123.078 -55.401  0.00  0.00     0.000 A 
ENDBRANCH   8  10
ENDBRANCH   2   7
BRANCH   1  21
ATOM     21  C   UNL d   1     -42.125-123.112 -50.136  0.00  0.00     0.111 A 
ATOM     22  N   UNL d   1     -42.903-123.262 -49.911  0.00  0.00    -0.239 NA
ATOM     23  C   UNL d   1     -42.911-123.439 -49.103  0.00  0.00     0.088 A 
ATOM     24  C   UNL d   1     -43.502-123.635 -48.554  0.00  0.00     0.020 A 
ATOM     25  C   UNL d   1     -42.131-123.395 -48.843  0.00  0.00     0.049 A 
ATOM     26  C   UNL d   1     -43.343-123.792 -47.740  0.00  0.00     0.002 A 
ATOM     27  C   UNL d   1     -42.539-123.745 -47.475  0.00  0.00     0.001 A 
ATOM     28  C   UNL d   1     -41.945-123.545 -48.042  0.00  0.00     0.008 A 
ATOM     29  S   UNL d   1     -41.648-123.189 -49.500  0.00  0.00    -0.066 SA
ENDBRANCH   1  21
TORSDOF 3
ENDMDL
