MODEL 1
REMARK VINA RESULT:       0.4      0.000      0.000
REMARK  5 active torsions:
REMARK  status: ('A' for Active; 'I' for Inactive)
REMARK    1  A    between atoms: C_11  and  N_3 
REMARK    2  A    between atoms: C_10  and  C_4 
REMARK    3  A    between atoms: C_15  and  C_11 
REMARK    4  A    between atoms: N_13  and  C_16 
REMARK    5  A    between atoms: C_16  and  C_15 
ROOT
ATOM      1  C   UNL d   1     -41.672-122.265 -53.510  0.00  0.00     0.137 A 
ATOM      2  N   UNL d   1     -41.817-121.443 -53.478  0.00  0.00    -0.259 N 
ATOM      3  N   UNL d   1     -41.388-122.490 -52.769  0.00  0.00    -0.287 N 
ATOM      4  C   UNL d   1     -41.817-122.682 -54.203  0.00  0.00     0.054 A 
ATOM      5  C   UNL d   1     -42.109-121.051 -54.148  0.00  0.00     0.266 A 
ATOM      6  C   UNL d   1     -41.623-121.172 -52.723  0.00  0.00     0.084 A 
ATOM      7  C   UNL d   1     -41.354-121.828 -52.278  0.00  0.00     0.082 A 
ATOM      8  C   UNL d   1     -42.108-122.292 -54.870  0.00  0.00     0.009 A 
ATOM      9  C   UNL d   1     -42.256-121.475 -54.850  0.00  0.00     0.061 A 
ATOM     10  O   UNL d   1     -42.255-120.235 -54.122  0.00  0.00    -0.267 OA
ATOM     11  C   UNL d   1     -41.650-120.428 -52.373  0.00  0.00     0.019 A 
ATOM     12  C   UNL d   1     -42.255-122.714 -55.569  0.00  0.00     0.000 C 
ATOM     13  C   UNL d   1     -41.124-121.714 -51.502  0.00  0.00     0.019 A 
ATOM     14  C   UNL d   1     -41.415-120.333 -51.594  0.00  0.00     0.002 A 
ATOM     15  C   UNL d   1     -41.149-120.982 -51.154  0.00  0.00     0.002 A 
ENDROOT
BRANCH   3  16
ATOM     16  C   UNL d   1     -41.123-123.130 -52.325  0.00  0.00     0.125 C 
BRANCH  16  17
ATOM     17  C   UNL d   1     -41.626-123.489 -51.778  0.00  0.00     0.231 C 
ATOM     18  O   UNL d   1     -42.437-123.531 -51.924  0.00  0.00    -0.283 OA
BRANCH  17  19
ATOM     19  C   UNL d   1     -41.318-123.808 -51.084  0.00  0.00     0.124 C 
BRANCH  19  20
ATOM     20  N   UNL d   1     -41.743-123.755 -50.381  0.00  0.00    -0.300 N 
ATOM     21  C   UNL d   1     -41.342-123.639 -49.671  0.00  0.00     0.080 A 
ATOM     22  C   UNL d   1     -41.762-123.584 -48.962  0.00  0.00     0.019 A 
ATOM     23  C   UNL d   1     -42.586-123.646 -48.966  0.00  0.00     0.003 A 
ATOM     24  C   UNL d   1     -42.988-123.761 -49.676  0.00  0.00     0.019 A 
ATOM     25  C   UNL d   1     -43.011-123.592 -48.265  0.00  0.00     0.000 C 
ATOM     26  C   UNL d   1     -42.568-123.816 -50.386  0.00  0.00     0.080 A 
ENDBRANCH  19  20
ENDBRANCH  17  19
ENDBRANCH  16  17
ENDBRANCH   3  16
BRANCH   4  27
ATOM     27  C   UNL d   1     -41.675-123.488 -54.235  0.00  0.00     0.125 C 
ATOM     28  N   UNL d   1     -41.211-123.817 -54.830  0.00  0.00    -0.146 N 
ENDBRANCH   4  27
TORSDOF 5
ENDMDL
