MODEL 1
REMARK VINA RESULT:      -4.4      0.000      0.000
REMARK  2 active torsions:
REMARK  status: ('A' for Active; 'I' for Inactive)
REMARK    1  A    between atoms: CA_2  and  C_1 
REMARK    2  A    between atoms: C_3  and  CA_2 
ROOT
ATOM      1  C   UNL d   1     -41.745-122.498 -54.001  0.00  0.00     0.053 A 
ATOM      2  C   UNL d   1     -41.564-122.949 -54.675  0.00  0.00     0.142 A 
ATOM      3  F   UNL d   1     -41.123-123.642 -54.599  0.00  0.00    -0.204 F 
ATOM      4  C   UNL d   1     -42.189-121.798 -54.078  0.00  0.00     0.004 A 
ATOM      5  C   UNL d   1     -41.827-122.697 -55.418  0.00  0.00     0.030 A 
ATOM      6  C   UNL d   1     -42.449-121.554 -54.829  0.00  0.00     0.000 A 
ATOM      7  C   UNL d   1     -42.268-122.003 -55.494  0.00  0.00     0.002 A 
ENDROOT
BRANCH   1   8
ATOM      8  CA  UNL d   1     -41.485-122.743 -53.259  0.00  0.00     0.169 C 
ATOM      9  N   UNL d   1     -41.123-123.478 -53.168  0.00  0.00    -0.142 N 
BRANCH   8  10
ATOM     10  C   UNL d   1     -41.590-122.248 -52.607  0.00  0.00     0.231 C 
ATOM     11  O   UNL d   1     -42.156-122.422 -52.036  0.00  0.00    -0.643 OA
ATOM     12  OXT UNL d   1     -41.123-121.572 -52.526  0.00  0.00    -0.643 OA
ENDBRANCH   8  10
ENDBRANCH   1   8
TORSDOF 2
ENDMDL
MODEL 2
REMARK VINA RESULT:      -3.7      2.476      3.830
REMARK  2 active torsions:
REMARK  status: ('A' for Active; 'I' for Inactive)
REMARK    1  A    between atoms: CA_2  and  C_1 
REMARK    2  A    between atoms: C_3  and  CA_2 
ROOT
ATOM      1  C   UNL d   1     -41.613-122.580 -50.932  0.00  0.00     0.053 A 
ATOM      2  C   UNL d   1     -42.259-122.350 -50.464  0.00  0.00     0.142 A 
ATOM      3  F   UNL d   1     -42.728-121.712 -50.696  0.00  0.00    -0.204 F 
ATOM      4  C   UNL d   1     -41.140-123.224 -50.697  0.00  0.00     0.004 A 
ATOM      5  C   UNL d   1     -42.428-122.764 -49.768  0.00  0.00     0.030 A 
ATOM      6  C   UNL d   1     -41.318-123.633 -49.996  0.00  0.00     0.000 A 
ATOM      7  C   UNL d   1     -41.959-123.402 -49.535  0.00  0.00     0.002 A 
ENDROOT
BRANCH   1   8
ATOM      8  CA  UNL d   1     -41.440-122.172 -51.626  0.00  0.00     0.169 C 
ATOM      9  N   UNL d   1     -41.123-121.411 -51.593  0.00  0.00    -0.142 N 
BRANCH   8  10
ATOM     10  C   UNL d   1     -41.587-122.529 -52.355  0.00  0.00     0.231 C 
ATOM     11  O   UNL d   1     -42.191-122.255 -52.842  0.00  0.00    -0.643 OA
ATOM     12  OXT UNL d   1     -41.123-123.167 -52.600  0.00  0.00    -0.643 OA
ENDBRANCH   8  10
ENDBRANCH   1   8
TORSDOF 2
ENDMDL
MODEL 3
REMARK VINA RESULT:      -3.7      2.535      3.150
REMARK  2 active torsions:
REMARK  status: ('A' for Active; 'I' for Inactive)
REMARK    1  A    between atoms: CA_2  and  C_1 
REMARK    2  A    between atoms: C_3  and  CA_2 
ROOT
ATOM      1  C   UNL d   1     -41.511-122.797 -51.215  0.00  0.00     0.053 A 
ATOM      2  C   UNL d   1     -41.357-122.109 -51.655  0.00  0.00     0.142 A 
ATOM      3  F   UNL d   1     -41.385-121.372 -51.286  0.00  0.00    -0.204 F 
ATOM      4  C   UNL d   1     -41.482-123.542 -51.588  0.00  0.00     0.004 A 
ATOM      5  C   UNL d   1     -41.175-122.171 -52.459  0.00  0.00     0.030 A 
ATOM      6  C   UNL d   1     -41.299-123.592 -52.397  0.00  0.00     0.000 A 
ATOM      7  C   UNL d   1     -41.147-122.908 -52.828  0.00  0.00     0.002 A 
ENDROOT
BRANCH   1   8
ATOM      8  CA  UNL d   1     -41.692-122.743 -50.414  0.00  0.00     0.169 C 
ATOM      9  N   UNL d   1     -41.123-122.483 -49.876  0.00  0.00    -0.142 N 
BRANCH   8  10
ATOM     10  C   UNL d   1     -42.447-122.950 -50.152  0.00  0.00     0.231 C 
ATOM     11  O   UNL d   1     -43.015-122.372 -50.012  0.00  0.00    -0.643 OA
ATOM     12  OXT UNL d   1     -42.635-123.745 -50.030  0.00  0.00    -0.643 OA
ENDBRANCH   8  10
ENDBRANCH   1   8
TORSDOF 2
ENDMDL
MODEL 4
REMARK VINA RESULT:      -3.4      3.400      4.768
REMARK  2 active torsions:
REMARK  status: ('A' for Active; 'I' for Inactive)
REMARK    1  A    between atoms: CA_2  and  C_1 
REMARK    2  A    between atoms: C_3  and  CA_2 
ROOT
ATOM      1  C   UNL d   1     -41.977-122.873 -49.805  0.00  0.00     0.053 A 
ATOM      2  C   UNL d   1     -42.654-122.810 -49.328  0.00  0.00     0.142 A 
ATOM      3  F   UNL d   1     -43.346-122.486 -49.639  0.00  0.00    -0.204 F 
ATOM      4  C   UNL d   1     -41.278-123.200 -49.490  0.00  0.00     0.004 A 
ATOM      5  C   UNL d   1     -42.628-123.074 -48.544  0.00  0.00     0.030 A 
ATOM      6  C   UNL d   1     -41.263-123.462 -48.702  0.00  0.00     0.000 A 
ATOM      7  C   UNL d   1     -41.937-123.398 -48.233  0.00  0.00     0.002 A 
ENDROOT
BRANCH   1   8
ATOM      8  CA  UNL d   1     -41.996-122.612 -50.585  0.00  0.00     0.169 C 
ATOM      9  N   UNL d   1     -42.232-121.841 -50.760  0.00  0.00    -0.142 N 
BRANCH   8  10
ATOM     10  C   UNL d   1     -41.777-123.127 -51.192  0.00  0.00     0.231 C 
ATOM     11  O   UNL d   1     -42.203-123.817 -51.329  0.00  0.00    -0.643 OA
ATOM     12  OXT UNL d   1     -41.125-122.948 -51.666  0.00  0.00    -0.643 OA
ENDBRANCH   8  10
ENDBRANCH   1   8
TORSDOF 2
ENDMDL
MODEL 5
REMARK VINA RESULT:      -3.2      3.250      3.919
REMARK  2 active torsions:
REMARK  status: ('A' for Active; 'I' for Inactive)
REMARK    1  A    between atoms: CA_2  and  C_1 
REMARK    2  A    between atoms: C_3  and  CA_2 
ROOT
ATOM      1  C   UNL d   1     -41.870-122.955 -50.435  0.00  0.00     0.053 A 
ATOM      2  C   UNL d   1     -41.855-122.275 -50.912  0.00  0.00     0.142 A 
ATOM      3  F   UNL d   1     -42.213-121.580 -50.647  0.00  0.00    -0.204 F 
ATOM      4  C   UNL d   1     -41.508-123.656 -50.702  0.00  0.00     0.004 A 
ATOM      5  C   UNL d   1     -41.481-122.300 -51.649  0.00  0.00     0.030 A 
ATOM      6  C   UNL d   1     -41.135-123.671 -51.444  0.00  0.00     0.000 A 
ATOM      7  C   UNL d   1     -41.123-122.995 -51.914  0.00  0.00     0.002 A 
ENDROOT
BRANCH   1   8
ATOM      8  CA  UNL d   1     -42.241-122.936 -49.700  0.00  0.00     0.169 C 
ATOM      9  N   UNL d   1     -43.018-122.666 -49.634  0.00  0.00    -0.142 N 
BRANCH   8  10
ATOM     10  C   UNL d   1     -41.831-123.188 -49.030  0.00  0.00     0.231 C 
ATOM     11  O   UNL d   1     -42.110-123.818 -48.580  0.00  0.00    -0.643 OA
ATOM     12  OXT UNL d   1     -41.133-122.806 -48.809  0.00  0.00    -0.643 OA
ENDBRANCH   8  10
ENDBRANCH   1   8
TORSDOF 2
ENDMDL
