MODEL 1
REMARK VINA RESULT:      -5.7      0.000      0.000
REMARK  1 active torsions:
REMARK  status: ('A' for Active; 'I' for Inactive)
REMARK    1  A    between atoms: C_4  and  C_1 
ROOT
ATOM      1  C   UNL d   1      57.020   0.149  31.860  0.00  0.00     0.163 A 
ATOM      2  N   UNL d   1      56.987   0.020  31.046  0.00  0.00    -0.225 NA
ATOM      3  N   UNL d   1      57.785   0.420  32.047  0.00  0.00    -0.225 NA
ATOM      4  C   UNL d   1      57.725   0.208  30.723  0.00  0.00     0.101 A 
ATOM      5  C   UNL d   1      58.221   0.457  31.345  0.00  0.00     0.101 A 
ATOM      6  C   UNL d   1      58.017   0.188  29.945  0.00  0.00     0.021 A 
ATOM      7  C   UNL d   1      59.003   0.682  31.182  0.00  0.00     0.021 A 
ATOM      8  C   UNL d   1      59.288   0.661  30.413  0.00  0.00     0.002 A 
ATOM      9  C   UNL d   1      58.798   0.415  29.797  0.00  0.00     0.002 A 
ENDROOT
BRANCH   1  10
ATOM     10  C   UNL d   1      56.406   0.032  32.396  0.00  0.00     0.046 A 
ATOM     11  C   UNL d   1      56.152  -0.728  32.562  0.00  0.00     0.061 A 
ATOM     12 CL   UNL d   1      56.518  -1.373  32.186  0.00  0.00    -0.082 Cl
ATOM     13  C   UNL d   1      55.547  -0.844  33.090  0.00  0.00     0.011 A 
ATOM     14  C   UNL d   1      55.185  -0.202  33.463  0.00  0.00     0.001 A 
ATOM     15  C   UNL d   1      55.442   0.560  33.294  0.00  0.00     0.000 A 
ATOM     16  C   UNL d   1      56.055   0.678  32.758  0.00  0.00     0.004 A 
ENDBRANCH   1  10
TORSDOF 1
ENDMDL
MODEL 2
REMARK VINA RESULT:      -5.4      1.228      3.687
REMARK  1 active torsions:
REMARK  status: ('A' for Active; 'I' for Inactive)
REMARK    1  A    between atoms: C_4  and  C_1 
ROOT
ATOM      1  C   UNL d   1      56.283   0.200  32.780  0.00  0.00     0.163 A 
ATOM      2  N   UNL d   1      56.562   0.311  33.549  0.00  0.00    -0.225 NA
ATOM      3  N   UNL d   1      55.453   0.256  32.797  0.00  0.00    -0.225 NA
ATOM      4  C   UNL d   1      55.912   0.436  34.045  0.00  0.00     0.101 A 
ATOM      5  C   UNL d   1      55.223   0.402  33.578  0.00  0.00     0.101 A 
ATOM      6  C   UNL d   1      55.850   0.577  34.861  0.00  0.00     0.021 A 
ATOM      7  C   UNL d   1      54.480   0.509  33.932  0.00  0.00     0.021 A 
ATOM      8  C   UNL d   1      54.423   0.648  34.739  0.00  0.00     0.002 A 
ATOM      9  C   UNL d   1      55.105   0.682  35.202  0.00  0.00     0.002 A 
ENDROOT
BRANCH   1  10
ATOM     10  C   UNL d   1      56.744   0.058  32.112  0.00  0.00     0.046 A 
ATOM     11  C   UNL d   1      56.811  -0.703  31.820  0.00  0.00     0.061 A 
ATOM     12 CL   UNL d   1      56.413  -1.325  32.202  0.00  0.00    -0.082 Cl
ATOM     13  C   UNL d   1      57.265  -0.843  31.162  0.00  0.00     0.011 A 
ATOM     14  C   UNL d   1      57.660  -0.223  30.783  0.00  0.00     0.001 A 
ATOM     15  C   UNL d   1      57.590   0.540  31.079  0.00  0.00     0.000 A 
ATOM     16  C   UNL d   1      57.130   0.681  31.747  0.00  0.00     0.004 A 
ENDBRANCH   1  10
TORSDOF 1
ENDMDL
MODEL 3
REMARK VINA RESULT:      -5.3      0.927      3.532
REMARK  1 active torsions:
REMARK  status: ('A' for Active; 'I' for Inactive)
REMARK    1  A    between atoms: C_4  and  C_1 
ROOT
ATOM      1  C   UNL d   1      57.388   0.045  31.293  0.00  0.00     0.163 A 
ATOM      2  N   UNL d   1      56.955   0.603  31.720  0.00  0.00    -0.225 NA
ATOM      3  N   UNL d   1      57.167  -0.712  31.561  0.00  0.00    -0.225 NA
ATOM      4  C   UNL d   1      56.466   0.201  32.252  0.00  0.00     0.101 A 
ATOM      5  C   UNL d   1      56.597  -0.616  32.153  0.00  0.00     0.101 A 
ATOM      6  C   UNL d   1      55.916   0.465  32.815  0.00  0.00     0.021 A 
ATOM      7  C   UNL d   1      56.177  -1.159  32.619  0.00  0.00     0.021 A 
ATOM      8  C   UNL d   1      55.634  -0.895  33.175  0.00  0.00     0.002 A 
ATOM      9  C   UNL d   1      55.504  -0.086  33.273  0.00  0.00     0.002 A 
ENDROOT
BRANCH   1  10
ATOM     10  C   UNL d   1      57.942   0.205  30.705  0.00  0.00     0.046 A 
ATOM     11  C   UNL d   1      58.668   0.524  30.909  0.00  0.00     0.061 A 
ATOM     12 CL   UNL d   1      58.837   0.682  31.707  0.00  0.00    -0.082 Cl
ATOM     13  C   UNL d   1      59.214   0.682  30.329  0.00  0.00     0.011 A 
ATOM     14  C   UNL d   1      59.044   0.524  29.536  0.00  0.00     0.001 A 
ATOM     15  C   UNL d   1      58.314   0.204  29.335  0.00  0.00     0.000 A 
ATOM     16  C   UNL d   1      57.761   0.044  29.923  0.00  0.00     0.004 A 
ENDBRANCH   1  10
TORSDOF 1
ENDMDL
MODEL 4
REMARK VINA RESULT:      -5.0      1.032      1.368
REMARK  1 active torsions:
REMARK  status: ('A' for Active; 'I' for Inactive)
REMARK    1  A    between atoms: C_4  and  C_1 
ROOT
ATOM      1  C   UNL d   1      56.716   0.066  32.228  0.00  0.00     0.163 A 
ATOM      2  N   UNL d   1      56.976   0.678  31.739  0.00  0.00    -0.225 NA
ATOM      3  N   UNL d   1      56.967  -0.654  31.894  0.00  0.00    -0.225 NA
ATOM      4  C   UNL d   1      57.387   0.345  31.103  0.00  0.00     0.101 A 
ATOM      5  C   UNL d   1      57.381  -0.482  31.200  0.00  0.00     0.101 A 
ATOM      6  C   UNL d   1      57.769   0.681  30.446  0.00  0.00     0.021 A 
ATOM      7  C   UNL d   1      57.756  -0.965  30.638  0.00  0.00     0.021 A 
ATOM      8  C   UNL d   1      58.132  -0.629  29.989  0.00  0.00     0.002 A 
ATOM      9  C   UNL d   1      58.138   0.190  29.894  0.00  0.00     0.002 A 
ENDROOT
BRANCH   1  10
ATOM     10  C   UNL d   1      56.284   0.151  32.924  0.00  0.00     0.046 A 
ATOM     11  C   UNL d   1      56.646   0.459  33.591  0.00  0.00     0.061 A 
ATOM     12 CL   UNL d   1      57.445   0.682  33.557  0.00  0.00    -0.082 Cl
ATOM     13  C   UNL d   1      56.220   0.542  34.277  0.00  0.00     0.011 A 
ATOM     14  C   UNL d   1      55.425   0.319  34.309  0.00  0.00     0.001 A 
ATOM     15  C   UNL d   1      55.065   0.011  33.638  0.00  0.00     0.000 A 
ATOM     16  C   UNL d   1      55.496  -0.074  32.942  0.00  0.00     0.004 A 
ENDBRANCH   1  10
TORSDOF 1
ENDMDL
