MODEL 1
REMARK VINA RESULT:      -2.7      0.000      0.000
REMARK  9 active torsions:
REMARK  status: ('A' for Active; 'I' for Inactive)
REMARK    1  A    between atoms: C_10  and  S_1 
REMARK    2  A    between atoms: N_11  and  S_1 
REMARK    3  A    between atoms: C_8  and  C_2 
REMARK    4  A    between atoms: C_3  and  N_6 
REMARK       I    between atoms: N_6  and  C_9 
REMARK    5  A    between atoms: C_9  and  C_14 
REMARK    6  A    between atoms: C_23  and  N_11 
REMARK    7  A    between atoms: C_24  and  N_11 
REMARK    8  A    between atoms: C_26  and  C_24 
REMARK    9  A    between atoms: C_27  and  C_26 
ROOT
ATOM      1  C   UNL d   1      32.899  18.384 -23.307  0.00  0.00     0.104 A 
ATOM      2  C   UNL d   1      32.724  16.831 -23.862  0.00  0.00     0.058 A 
ATOM      3  C   UNL d   1      32.929  18.220 -24.115  0.00  0.00     0.013 A 
ATOM      4  C   UNL d   1      32.782  17.771 -22.786  0.00  0.00     0.013 A 
ATOM      5  C   UNL d   1      32.841  17.441 -24.386  0.00  0.00     0.005 A 
ATOM      6  C   UNL d   1      32.694  16.996 -23.055  0.00  0.00     0.005 A 
ENDROOT
BRANCH   2   7
ATOM      7  C   UNL d   1      32.636  16.046 -24.139  0.00  0.00     0.282 C 
ATOM      8  N   UNL d   1      31.934  15.812 -24.512  0.00  0.00    -0.165 NA
ATOM      9  O   UNL d   1      33.239  15.513 -24.041  0.00  0.00    -0.265 OA
BRANCH   8  10
ATOM     10  C   UNL d   1      31.331  16.344 -24.610  0.00  0.00     0.297 A 
ATOM     11  O   UNL d   1      30.623  16.248 -24.196  0.00  0.00    -0.253 OA
ATOM     12  C   UNL d   1      30.124  16.865 -24.407  0.00  0.00     0.207 A 
ATOM     13  N   UNL d   1      30.524  17.334 -24.946  0.00  0.00    -0.119 NA
ATOM     14  N   UNL d   1      31.273  17.016 -25.076  0.00  0.00    -0.101 NA
BRANCH  12  15
ATOM     15  C   UNL d   1      29.364  16.936 -24.091  0.00  0.00     0.054 A 
ATOM     16  C   UNL d   1      28.962  17.650 -24.170  0.00  0.00     0.061 A 
ATOM     17 CL   UNL d   1      29.315  18.285 -24.560  0.00  0.00    -0.082 Cl
ATOM     18  C   UNL d   1      28.205  17.724 -23.856  0.00  0.00     0.011 A 
ATOM     19  C   UNL d   1      27.836  17.089 -23.459  0.00  0.00     0.001 A 
ATOM     20  C   UNL d   1      28.233  16.381 -23.380  0.00  0.00     0.000 A 
ATOM     21  C   UNL d   1      29.001  16.305 -23.698  0.00  0.00     0.004 A 
ENDBRANCH  12  15
ENDBRANCH   8  10
ENDBRANCH   2   7
BRANCH   1  22
ATOM     22  S   UNL d   1      32.986  19.165 -23.023  0.00  0.00     0.271 S 
ATOM     23  O   UNL d   1      33.069  18.885 -22.247  0.00  0.00    -0.200 OA
ATOM     24  O   UNL d   1      32.904  19.442 -23.797  0.00  0.00    -0.200 OA
BRANCH  22  25
ATOM     25  N   UNL d   1      33.075  19.957 -22.735  0.00  0.00    -0.229 N 
BRANCH  25  26
ATOM     26  C   UNL d   1      33.221  20.584 -23.252  0.00  0.00     0.092 C 
ATOM     27  C   UNL d   1      32.847  21.311 -23.139  0.00  0.00     0.021 C 
ENDBRANCH  25  26
BRANCH  25  28
ATOM     28  C   UNL d   1      33.014  20.098 -21.926  0.00  0.00     0.092 C 
BRANCH  28  29
ATOM     29  C   UNL d   1      32.869  20.864 -21.660  0.00  0.00     0.020 C 
BRANCH  29  30
ATOM     30  C   UNL d   1      32.722  20.991 -20.860  0.00  0.00     0.002 C 
ATOM     31  C   UNL d   1      32.656  21.762 -20.576  0.00  0.00     0.000 C 
ENDBRANCH  29  30
ENDBRANCH  28  29
ENDBRANCH  25  28
ENDBRANCH  22  25
ENDBRANCH   1  22
TORSDOF 9
ENDMDL
MODEL 2
REMARK VINA RESULT:      -1.0      1.562      4.645
REMARK  9 active torsions:
REMARK  status: ('A' for Active; 'I' for Inactive)
REMARK    1  A    between atoms: C_10  and  S_1 
REMARK    2  A    between atoms: N_11  and  S_1 
REMARK    3  A    between atoms: C_8  and  C_2 
REMARK    4  A    between atoms: C_3  and  N_6 
REMARK       I    between atoms: N_6  and  C_9 
REMARK    5  A    between atoms: C_9  and  C_14 
REMARK    6  A    between atoms: C_23  and  N_11 
REMARK    7  A    between atoms: C_24  and  N_11 
REMARK    8  A    between atoms: C_26  and  C_24 
REMARK    9  A    between atoms: C_27  and  C_26 
ROOT
ATOM      1  C   UNL d   1      30.243  16.776 -24.387  0.00  0.00     0.104 A 
ATOM      2  C   UNL d   1      31.858  16.405 -24.474  0.00  0.00     0.058 A 
ATOM      3  C   UNL d   1      30.621  16.388 -23.764  0.00  0.00     0.013 A 
ATOM      4  C   UNL d   1      30.676  16.974 -25.046  0.00  0.00     0.013 A 
ATOM      5  C   UNL d   1      31.429  16.206 -23.814  0.00  0.00     0.005 A 
ATOM      6  C   UNL d   1      31.480  16.793 -25.097  0.00  0.00     0.005 A 
ENDROOT
BRANCH   2   7
ATOM      7  C   UNL d   1      32.673  16.220 -24.522  0.00  0.00     0.282 C 
ATOM      8  N   UNL d   1      33.241  16.818 -24.449  0.00  0.00    -0.165 NA
ATOM      9  O   UNL d   1      32.906  15.453 -24.640  0.00  0.00    -0.265 OA
BRANCH   8  10
ATOM     10  C   UNL d   1      33.009  17.585 -24.331  0.00  0.00     0.297 A 
ATOM     11  O   UNL d   1      33.206  17.974 -23.630  0.00  0.00    -0.253 OA
ATOM     12  C   UNL d   1      32.899  18.734 -23.670  0.00  0.00     0.207 A 
ATOM     13  N   UNL d   1      32.517  18.809 -24.390  0.00  0.00    -0.119 NA
ATOM     14  N   UNL d   1      32.582  18.100 -24.805  0.00  0.00    -0.101 NA
BRANCH  12  15
ATOM     15  C   UNL d   1      32.996  19.275 -23.053  0.00  0.00     0.054 A 
ATOM     16  C   UNL d   1      33.004  20.081 -23.224  0.00  0.00     0.061 A 
ATOM     17 CL   UNL d   1      32.915  20.342 -24.000  0.00  0.00    -0.082 Cl
ATOM     18  C   UNL d   1      33.101  20.622 -22.612  0.00  0.00     0.011 A 
ATOM     19  C   UNL d   1      33.192  20.371 -21.821  0.00  0.00     0.001 A 
ATOM     20  C   UNL d   1      33.185  19.574 -21.650  0.00  0.00     0.000 A 
ATOM     21  C   UNL d   1      33.086  19.024 -22.270  0.00  0.00     0.004 A 
ENDBRANCH  12  15
ENDBRANCH   8  10
ENDBRANCH   2   7
BRANCH   1  22
ATOM     22  S   UNL d   1      29.431  16.964 -24.346  0.00  0.00     0.271 S 
ATOM     23  O   UNL d   1      29.603  17.669 -23.945  0.00  0.00    -0.200 OA
ATOM     24  O   UNL d   1      29.260  16.262 -24.746  0.00  0.00    -0.200 OA
BRANCH  22  25
ATOM     25  N   UNL d   1      28.606  17.155 -24.305  0.00  0.00    -0.229 N 
BRANCH  25  26
ATOM     26  C   UNL d   1      28.244  17.606 -24.893  0.00  0.00     0.092 C 
ATOM     27  C   UNL d   1      28.071  18.402 -24.759  0.00  0.00     0.021 C 
ENDBRANCH  25  26
BRANCH  25  28
ATOM     28  C   UNL d   1      28.164  16.884 -23.666  0.00  0.00     0.092 C 
BRANCH  28  29
ATOM     29  C   UNL d   1      27.474  16.456 -23.804  0.00  0.00     0.020 C 
BRANCH  29  30
ATOM     30  C   UNL d   1      26.948  16.325 -23.185  0.00  0.00     0.002 C 
ATOM     31  C   UNL d   1      26.820  15.557 -22.913  0.00  0.00     0.000 C 
ENDBRANCH  29  30
ENDBRANCH  28  29
ENDBRANCH  25  28
ENDBRANCH  22  25
ENDBRANCH   1  22
TORSDOF 9
ENDMDL
