MODEL 1
REMARK VINA RESULT:      -2.6      0.000      0.000
REMARK  3 active torsions:
REMARK  status: ('A' for Active; 'I' for Inactive)
REMARK    1  A    between atoms: N_2  and  S_1 
REMARK    2  A    between atoms: C_5  and  S_1 
REMARK    3  A    between atoms: C_4  and  C_3 
ROOT
ATOM      1  C   UNL d   1      30.130  16.304 -24.265  0.00  0.00     0.083 A 
ATOM      2  C   UNL d   1      31.558  16.162 -24.277  0.00  0.00     0.104 A 
ATOM      3  C   UNL d   1      30.844  16.348 -24.668  0.00  0.00     0.018 A 
ATOM      4  C   UNL d   1      30.115  16.074 -23.463  0.00  0.00     0.062 A 
ATOM      5  C   UNL d   1      31.537  15.934 -23.484  0.00  0.00     0.014 A 
ATOM      6  C   UNL d   1      30.823  15.891 -23.081  0.00  0.00     0.012 A 
ATOM      7 CL   UNL d   1      29.401  16.030 -23.060  0.00  0.00    -0.082 Cl
ENDROOT
BRANCH   2   8
ATOM      8  S   UNL d   1      32.276  16.205 -24.682  0.00  0.00     0.272 S 
ATOM      9  O   UNL d   1      32.159  15.453 -24.971  0.00  0.00    -0.200 OA
ATOM     10  O   UNL d   1      33.009  16.250 -25.096  0.00  0.00    -0.200 OA
BRANCH   8  11
ATOM     11  N   UNL d   1      32.399  16.994 -24.379  0.00  0.00    -0.225 N 
ATOM     12  C   UNL d   1      32.168  17.664 -24.848  0.00  0.00     0.116 A 
ATOM     13  C   UNL d   1      32.286  18.422 -24.556  0.00  0.00     0.118 A 
ATOM     14  C   UNL d   1      32.064  19.083 -25.007  0.00  0.00     0.028 C 
ATOM     15  O   UNL d   1      32.637  18.527 -23.791  0.00  0.00    -0.304 OA
ATOM     16  C   UNL d   1      32.859  17.866 -23.341  0.00  0.00     0.118 A 
ATOM     17  C   UNL d   1      32.741  17.108 -23.632  0.00  0.00     0.116 A 
ATOM     18  C   UNL d   1      33.200  17.982 -22.598  0.00  0.00     0.028 C 
ENDBRANCH   8  11
ENDBRANCH   2   8
BRANCH   1  19
ATOM     19  C   UNL d   1      29.411  16.494 -24.665  0.00  0.00     0.420 C 
ATOM     20  F   UNL d   1      28.698  16.672 -25.065  0.00  0.00    -0.166 F 
ATOM     21  F   UNL d   1      29.406  17.257 -24.338  0.00  0.00    -0.166 F 
ATOM     22  F   UNL d   1      29.403  15.729 -25.001  0.00  0.00    -0.166 F 
ENDBRANCH   1  19
TORSDOF 3
ENDMDL
MODEL 2
REMARK VINA RESULT:      -2.2      0.915      1.577
REMARK  3 active torsions:
REMARK  status: ('A' for Active; 'I' for Inactive)
REMARK    1  A    between atoms: N_2  and  S_1 
REMARK    2  A    between atoms: C_5  and  S_1 
REMARK    3  A    between atoms: C_4  and  C_3 
ROOT
ATOM      1  C   UNL d   1      30.163  16.530 -24.013  0.00  0.00     0.083 A 
ATOM      2  C   UNL d   1      31.440  16.697 -24.647  0.00  0.00     0.104 A 
ATOM      3  C   UNL d   1      30.947  16.303 -24.100  0.00  0.00     0.018 A 
ATOM      4  C   UNL d   1      29.856  17.157 -24.471  0.00  0.00     0.062 A 
ATOM      5  C   UNL d   1      31.131  17.315 -25.097  0.00  0.00     0.014 A 
ATOM      6  C   UNL d   1      30.347  17.543 -25.010  0.00  0.00     0.012 A 
ATOM      7 CL   UNL d   1      29.072  17.384 -24.383  0.00  0.00    -0.082 Cl
ENDROOT
BRANCH   2   8
ATOM      8  S   UNL d   1      32.229  16.467 -24.734  0.00  0.00     0.272 S 
ATOM      9  O   UNL d   1      31.987  15.753 -25.042  0.00  0.00    -0.200 OA
ATOM     10  O   UNL d   1      33.033  16.234 -24.824  0.00  0.00    -0.200 OA
BRANCH   8  11
ATOM     11  N   UNL d   1      32.482  17.217 -24.412  0.00  0.00    -0.225 N 
ATOM     12  C   UNL d   1      32.645  17.282 -23.582  0.00  0.00     0.116 A 
ATOM     13  C   UNL d   1      32.889  18.002 -23.272  0.00  0.00     0.118 A 
ATOM     14  C   UNL d   1      33.050  18.076 -22.461  0.00  0.00     0.028 C 
ATOM     15  O   UNL d   1      32.974  18.672 -23.786  0.00  0.00    -0.304 OA
ATOM     16  C   UNL d   1      32.813  18.598 -24.596  0.00  0.00     0.118 A 
ATOM     17  C   UNL d   1      32.569  17.877 -24.906  0.00  0.00     0.116 A 
ATOM     18  C   UNL d   1      32.900  19.256 -25.086  0.00  0.00     0.028 C 
ENDBRANCH   8  11
ENDBRANCH   2   8
BRANCH   1  19
ATOM     19  C   UNL d   1      29.670  16.129 -23.458  0.00  0.00     0.420 C 
ATOM     20  F   UNL d   1      29.177  15.724 -22.915  0.00  0.00    -0.166 F 
ATOM     21  F   UNL d   1      29.897  16.646 -22.849  0.00  0.00    -0.166 F 
ATOM     22  F   UNL d   1      29.432  15.601 -24.060  0.00  0.00    -0.166 F 
ENDBRANCH   1  19
TORSDOF 3
ENDMDL
MODEL 3
REMARK VINA RESULT:      -1.8      2.111      3.393
REMARK  3 active torsions:
REMARK  status: ('A' for Active; 'I' for Inactive)
REMARK    1  A    between atoms: N_2  and  S_1 
REMARK    2  A    between atoms: C_5  and  S_1 
REMARK    3  A    between atoms: C_4  and  C_3 
ROOT
ATOM      1  C   UNL d   1      32.232  17.773 -23.649  0.00  0.00     0.083 A 
ATOM      2  C   UNL d   1      31.479  16.929 -24.533  0.00  0.00     0.104 A 
ATOM      3  C   UNL d   1      31.887  17.046 -23.814  0.00  0.00     0.018 A 
ATOM      4  C   UNL d   1      32.176  18.398 -24.200  0.00  0.00     0.062 A 
ATOM      5  C   UNL d   1      31.427  17.551 -25.074  0.00  0.00     0.014 A 
ATOM      6  C   UNL d   1      31.772  18.277 -24.909  0.00  0.00     0.012 A 
ATOM      7 CL   UNL d   1      32.521  19.124 -24.035  0.00  0.00    -0.082 Cl
ENDROOT
BRANCH   2   8
ATOM      8  S   UNL d   1      31.132  16.199 -24.699  0.00  0.00     0.272 S 
ATOM      9  O   UNL d   1      31.852  15.915 -24.956  0.00  0.00    -0.200 OA
ATOM     10  O   UNL d   1      30.778  15.453 -24.868  0.00  0.00    -0.200 OA
BRANCH   8  11
ATOM     11  N   UNL d   1      30.378  16.495 -24.430  0.00  0.00    -0.225 N 
ATOM     12  C   UNL d   1      30.055  16.215 -23.697  0.00  0.00     0.116 A 
ATOM     13  C   UNL d   1      29.330  16.500 -23.438  0.00  0.00     0.118 A 
ATOM     14  C   UNL d   1      29.006  16.232 -22.722  0.00  0.00     0.028 C 
ATOM     15  O   UNL d   1      28.913  17.072 -23.906  0.00  0.00    -0.304 OA
ATOM     16  C   UNL d   1      29.238  17.340 -24.621  0.00  0.00     0.118 A 
ATOM     17  C   UNL d   1      29.963  17.054 -24.880  0.00  0.00     0.116 A 
ATOM     18  C   UNL d   1      28.823  17.896 -25.068  0.00  0.00     0.028 C 
ENDBRANCH   8  11
ENDBRANCH   2   8
BRANCH   1  19
ATOM     19  C   UNL d   1      32.643  17.885 -22.921  0.00  0.00     0.420 C 
ATOM     20  F   UNL d   1      33.058  17.991 -22.201  0.00  0.00    -0.166 F 
ATOM     21  F   UNL d   1      32.056  18.405 -22.646  0.00  0.00    -0.166 F 
ATOM     22  F   UNL d   1      33.241  17.365 -23.184  0.00  0.00    -0.166 F 
ENDBRANCH   1  19
TORSDOF 3
ENDMDL
MODEL 4
REMARK VINA RESULT:      -1.5      1.474      2.060
REMARK  3 active torsions:
REMARK  status: ('A' for Active; 'I' for Inactive)
REMARK    1  A    between atoms: N_2  and  S_1 
REMARK    2  A    between atoms: C_5  and  S_1 
REMARK    3  A    between atoms: C_4  and  C_3 
ROOT
ATOM      1  C   UNL d   1      29.138  16.756 -23.817  0.00  0.00     0.083 A 
ATOM      2  C   UNL d   1      30.331  16.014 -23.522  0.00  0.00     0.104 A 
ATOM      3  C   UNL d   1      29.742  16.561 -23.295  0.00  0.00     0.018 A 
ATOM      4  C   UNL d   1      29.112  16.409 -24.575  0.00  0.00     0.062 A 
ATOM      5  C   UNL d   1      30.300  15.674 -24.273  0.00  0.00     0.014 A 
ATOM      6  C   UNL d   1      29.696  15.869 -24.794  0.00  0.00     0.012 A 
ATOM      7 CL   UNL d   1      28.508  16.604 -25.097  0.00  0.00    -0.082 Cl
ENDROOT
BRANCH   2   8
ATOM      8  S   UNL d   1      30.938  15.818 -22.997  0.00  0.00     0.272 S 
ATOM      9  O   UNL d   1      30.397  15.453 -22.508  0.00  0.00    -0.200 OA
ATOM     10  O   UNL d   1      31.557  15.617 -22.462  0.00  0.00    -0.200 OA
BRANCH   8  11
ATOM     11  N   UNL d   1      31.504  16.200 -23.509  0.00  0.00    -0.225 N 
ATOM     12  C   UNL d   1      31.951  15.734 -24.060  0.00  0.00     0.116 A 
ATOM     13  C   UNL d   1      32.496  16.102 -24.553  0.00  0.00     0.118 A 
ATOM     14  C   UNL d   1      32.938  15.655 -25.095  0.00  0.00     0.028 C 
ATOM     15  O   UNL d   1      32.605  16.942 -24.504  0.00  0.00    -0.304 OA
ATOM     16  C   UNL d   1      32.162  17.388 -23.962  0.00  0.00     0.118 A 
ATOM     17  C   UNL d   1      31.618  17.020 -23.470  0.00  0.00     0.116 A 
ATOM     18  C   UNL d   1      32.277  18.204 -23.924  0.00  0.00     0.028 C 
ENDBRANCH   8  11
ENDBRANCH   2   8
BRANCH   1  19
ATOM     19  C   UNL d   1      28.545  17.309 -23.583  0.00  0.00     0.420 C 
ATOM     20  F   UNL d   1      27.961  17.865 -23.356  0.00  0.00    -0.166 F 
ATOM     21  F   UNL d   1      28.155  16.731 -23.131  0.00  0.00    -0.166 F 
ATOM     22  F   UNL d   1      28.927  17.900 -24.032  0.00  0.00    -0.166 F 
ENDBRANCH   1  19
TORSDOF 3
ENDMDL
MODEL 5
REMARK VINA RESULT:      -0.5      2.275      3.398
REMARK  3 active torsions:
REMARK  status: ('A' for Active; 'I' for Inactive)
REMARK    1  A    between atoms: N_2  and  S_1 
REMARK    2  A    between atoms: C_5  and  S_1 
REMARK    3  A    between atoms: C_4  and  C_3 
ROOT
ATOM      1  C   UNL d   1      32.735  18.951 -23.675  0.00  0.00     0.083 A 
ATOM      2  C   UNL d   1      32.480  17.571 -23.974  0.00  0.00     0.104 A 
ATOM      3  C   UNL d   1      32.603  18.358 -24.226  0.00  0.00     0.018 A 
ATOM      4  C   UNL d   1      32.747  18.771 -22.860  0.00  0.00     0.062 A 
ATOM      5  C   UNL d   1      32.493  17.398 -23.167  0.00  0.00     0.014 A 
ATOM      6  C   UNL d   1      32.625  17.992 -22.616  0.00  0.00     0.012 A 
ATOM      7 CL   UNL d   1      32.879  19.364 -22.308  0.00  0.00    -0.082 Cl
ENDROOT
BRANCH   2   8
ATOM      8  S   UNL d   1      32.347  16.974 -24.529  0.00  0.00     0.272 S 
ATOM      9  O   UNL d   1      33.139  16.977 -24.722  0.00  0.00    -0.200 OA
ATOM     10  O   UNL d   1      32.212  16.364 -25.096  0.00  0.00    -0.200 OA
BRANCH   8  11
ATOM     11  N   UNL d   1      31.517  16.971 -24.327  0.00  0.00    -0.225 N 
ATOM     12  C   UNL d   1      31.239  16.463 -23.707  0.00  0.00     0.116 A 
ATOM     13  C   UNL d   1      30.441  16.460 -23.513  0.00  0.00     0.118 A 
ATOM     14  C   UNL d   1      30.160  15.966 -22.907  0.00  0.00     0.028 C 
ATOM     15  O   UNL d   1      29.905  16.964 -23.935  0.00  0.00    -0.304 OA
ATOM     16  C   UNL d   1      30.188  17.457 -24.540  0.00  0.00     0.118 A 
ATOM     17  C   UNL d   1      30.985  17.460 -24.734  0.00  0.00     0.116 A 
ATOM     18  C   UNL d   1      29.656  17.943 -24.943  0.00  0.00     0.028 C 
ENDBRANCH   8  11
ENDBRANCH   2   8
BRANCH   1  19
ATOM     19  C   UNL d   1      32.858  19.745 -23.935  0.00  0.00     0.420 C 
ATOM     20  F   UNL d   1      32.985  20.529 -24.201  0.00  0.00    -0.166 F 
ATOM     21  F   UNL d   1      32.548  20.047 -23.226  0.00  0.00    -0.166 F 
ATOM     22  F   UNL d   1      33.172  19.455 -24.652  0.00  0.00    -0.166 F 
ENDBRANCH   1  19
TORSDOF 3
ENDMDL
MODEL 6
REMARK VINA RESULT:       0.3      2.411      3.677
REMARK  3 active torsions:
REMARK  status: ('A' for Active; 'I' for Inactive)
REMARK    1  A    between atoms: N_2  and  S_1 
REMARK    2  A    between atoms: C_5  and  S_1 
REMARK    3  A    between atoms: C_4  and  C_3 
ROOT
ATOM      1  C   UNL d   1      31.207  17.056 -23.802  0.00  0.00     0.083 A 
ATOM      2  C   UNL d   1      30.235  16.070 -23.427  0.00  0.00     0.104 A 
ATOM      3  C   UNL d   1      30.681  16.753 -23.250  0.00  0.00     0.018 A 
ATOM      4  C   UNL d   1      31.297  16.683 -24.544  0.00  0.00     0.062 A 
ATOM      5  C   UNL d   1      30.328  15.705 -24.161  0.00  0.00     0.014 A 
ATOM      6  C   UNL d   1      30.853  16.009 -24.714  0.00  0.00     0.012 A 
ATOM      7 CL   UNL d   1      31.823  16.987 -25.097  0.00  0.00    -0.082 Cl
ENDROOT
BRANCH   2   8
ATOM      8  S   UNL d   1      29.706  15.764 -22.871  0.00  0.00     0.272 S 
ATOM      9  O   UNL d   1      30.331  15.478 -22.434  0.00  0.00    -0.200 OA
ATOM     10  O   UNL d   1      29.166  15.453 -22.303  0.00  0.00    -0.200 OA
BRANCH   8  11
ATOM     11  N   UNL d   1      29.051  16.065 -23.329  0.00  0.00    -0.225 N 
ATOM     12  C   UNL d   1      28.731  16.830 -23.151  0.00  0.00     0.116 A 
ATOM     13  C   UNL d   1      28.101  17.119 -23.591  0.00  0.00     0.118 A 
ATOM     14  C   UNL d   1      27.781  17.867 -23.424  0.00  0.00     0.028 C 
ATOM     15  O   UNL d   1      27.778  16.648 -24.219  0.00  0.00    -0.304 OA
ATOM     16  C   UNL d   1      28.098  15.901 -24.385  0.00  0.00     0.118 A 
ATOM     17  C   UNL d   1      28.728  15.612 -23.945  0.00  0.00     0.116 A 
ATOM     18  C   UNL d   1      27.775  15.453 -24.999  0.00  0.00     0.028 C 
ENDBRANCH   8  11
ENDBRANCH   2   8
BRANCH   1  19
ATOM     19  C   UNL d   1      31.656  17.747 -23.618  0.00  0.00     0.420 C 
ATOM     20  F   UNL d   1      32.104  18.428 -23.427  0.00  0.00    -0.166 F 
ATOM     21  F   UNL d   1      31.401  18.123 -24.314  0.00  0.00    -0.166 F 
ATOM     22  F   UNL d   1      31.920  17.381 -22.916  0.00  0.00    -0.166 F 
ENDBRANCH   1  19
TORSDOF 3
ENDMDL
MODEL 7
REMARK VINA RESULT:       0.4      2.664      3.927
REMARK  3 active torsions:
REMARK  status: ('A' for Active; 'I' for Inactive)
REMARK    1  A    between atoms: N_2  and  S_1 
REMARK    2  A    between atoms: C_5  and  S_1 
REMARK    3  A    between atoms: C_4  and  C_3 
ROOT
ATOM      1  C   UNL d   1      32.714  19.821 -22.346  0.00  0.00     0.083 A 
ATOM      2  C   UNL d   1      32.849  18.922 -23.456  0.00  0.00     0.104 A 
ATOM      3  C   UNL d   1      32.629  19.666 -23.148  0.00  0.00     0.018 A 
ATOM      4  C   UNL d   1      33.021  19.235 -21.836  0.00  0.00     0.062 A 
ATOM      5  C   UNL d   1      33.152  18.347 -22.948  0.00  0.00     0.014 A 
ATOM      6  C   UNL d   1      33.237  18.502 -22.146  0.00  0.00     0.012 A 
ATOM      7 CL   UNL d   1      33.106  19.390 -21.035  0.00  0.00    -0.082 Cl
ENDROOT
BRANCH   2   8
ATOM      8  S   UNL d   1      32.763  18.766 -24.263  0.00  0.00     0.272 S 
ATOM      9  O   UNL d   1      33.240  19.403 -24.437  0.00  0.00    -0.200 OA
ATOM     10  O   UNL d   1      32.676  18.607 -25.086  0.00  0.00    -0.200 OA
BRANCH   8  11
ATOM     11  N   UNL d   1      32.263  18.098 -24.081  0.00  0.00    -0.225 N 
ATOM     12  C   UNL d   1      32.616  17.347 -23.903  0.00  0.00     0.116 A 
ATOM     13  C   UNL d   1      32.136  16.705 -23.728  0.00  0.00     0.118 A 
ATOM     14  C   UNL d   1      32.471  15.965 -23.554  0.00  0.00     0.028 C 
ATOM     15  O   UNL d   1      31.292  16.800 -23.727  0.00  0.00    -0.304 OA
ATOM     16  C   UNL d   1      30.957  17.539 -23.902  0.00  0.00     0.118 A 
ATOM     17  C   UNL d   1      31.438  18.181 -24.077  0.00  0.00     0.116 A 
ATOM     18  C   UNL d   1      30.136  17.619 -23.897  0.00  0.00     0.028 C 
ENDBRANCH   8  11
ENDBRANCH   2   8
BRANCH   1  19
ATOM     19  C   UNL d   1      32.489  20.574 -22.039  0.00  0.00     0.420 C 
ATOM     20  F   UNL d   1      32.258  21.318 -21.732  0.00  0.00    -0.166 F 
ATOM     21  F   UNL d   1      33.231  20.896 -22.230  0.00  0.00    -0.166 F 
ATOM     22  F   UNL d   1      31.740  20.265 -21.842  0.00  0.00    -0.166 F 
ENDBRANCH   1  19
TORSDOF 3
ENDMDL
