MODEL 1
REMARK VINA RESULT:      41.7      0.000      0.000
REMARK  11 active torsions:
REMARK  status: ('A' for Active; 'I' for Inactive)
REMARK    1  A    between atoms: C_2  and  C_1 
REMARK       I    between atoms: N_5  and  C_1 
REMARK    2  A    between atoms: C_4  and  C_2 
REMARK    3  A    between atoms: C_3  and  C_4 
REMARK    4  A    between atoms: O_10  and  C_3 
REMARK    5  A    between atoms: N_9  and  C_4 
REMARK    6  A    between atoms: C_8  and  N_5 
REMARK    7  A    between atoms: C_17  and  N_9 
REMARK    8  A    between atoms: O_16  and  C_11 
REMARK    9  A    between atoms: C_19  and  C_17 
REMARK   10  A    between atoms: C_21  and  C_19 
REMARK   11  A    between atoms: C_20  and  C_21 
ROOT
ATOM      1  C   UNK d   1     -48.007  28.624  34.677  0.00  0.00     0.084 C 
ENDROOT
BRANCH   1   2
ATOM      2  C   UNK d   1     -48.695  28.175  34.548  0.00  0.00     0.259 C 
ATOM      3  N   UNK d   1     -48.866  27.896  33.794  0.00  0.00    -0.321 N 
ATOM      4  H   UNK d   1     -48.359  28.058  33.163  0.00  0.00     0.169 HD
ATOM      5  O   UNK d   1     -49.195  28.018  35.180  0.00  0.00    -0.267 OA
BRANCH   3   6
ATOM      6  C   UNK d   1     -49.560  27.445  33.673  0.00  0.00     0.059 A 
ATOM      7  C   UNK d   1     -50.297  27.803  33.738  0.00  0.00     0.019 A 
ATOM      8  C   UNK d   1     -50.977  27.356  33.618  0.00  0.00     0.026 A 
ATOM      9  C   UNK d   1     -50.924  26.553  33.434  0.00  0.00     0.094 A 
ATOM     10  C   UNK d   1     -50.180  26.199  33.370  0.00  0.00     0.026 A 
ATOM     11  C   UNK d   1     -49.498  26.653  33.491  0.00  0.00     0.019 A 
BRANCH   9  12
ATOM     12  O   UNK d   1     -51.604  26.106  33.314  0.00  0.00    -0.328 OA
ATOM     13  C   UNK d   1     -51.563  25.286  33.316  0.00  0.00     0.181 C 
ENDBRANCH   9  12
ENDBRANCH   3   6
ENDBRANCH   1   2
BRANCH   1  14
ATOM     14  C   UNK d   1     -48.050  29.354  35.044  0.00  0.00     0.124 C 
BRANCH  14  15
ATOM     15  C   UNK d   1     -47.853  29.427  35.841  0.00  0.00     0.194 C 
ATOM     16  O   UNK d   1     -48.449  29.501  36.417  0.00  0.00    -0.645 OA
BRANCH  15  17
ATOM     17  O   UNK d   1     -47.066  29.428  36.073  0.00  0.00    -0.772 OA
ATOM     18  H   UNK d   1     -46.517  28.963  35.671  0.00  0.00     0.167 HD
ENDBRANCH  15  17
ENDBRANCH  14  15
BRANCH  14  19
ATOM     19  N   UNK d   1     -48.294  30.021  34.613  0.00  0.00    -0.347 N 
ATOM     20  H   UNK d   1     -48.802  29.927  33.970  0.00  0.00     0.166 HD
BRANCH  19  21
ATOM     21  C   UNK d   0     -48.028  30.770  34.827  0.00  0.00     0.073 C 
BRANCH  21  22
ATOM     22  C   UNK d   0     -47.812  31.311  34.243  0.00  0.00     0.018 C 
BRANCH  22  23
ATOM     23  C   UNK d   0     -48.184  32.050  34.217  0.00  0.00     0.002 C 
BRANCH  23  24
ATOM     24  C   UNK d   0     -47.750  32.737  34.090  0.00  0.00     0.000 C 
ATOM     25  C   UNK d   0     -48.047  33.308  33.574  0.00  0.00     0.000 C 
ENDBRANCH  23  24
ENDBRANCH  22  23
ENDBRANCH  21  22
ENDBRANCH  19  21
ENDBRANCH  14  19
ENDBRANCH   1  14
TORSDOF 11
ENDMDL
