MODEL 1
REMARK VINA RESULT:      23.4      0.000      0.000
REMARK  1 active torsions:
REMARK  status: ('A' for Active; 'I' for Inactive)
REMARK    1  A    between atoms: C_9  and  C_4 
ROOT
ATOM      1  S   UNL d   1      58.936  49.682  51.271  0.00  0.00    -0.085 SA
ATOM      2  N   UNL d   1      60.422  49.704  50.232  0.00  0.00    -0.207 NA
ATOM      3  C   UNL d   1      59.851  49.700  49.657  0.00  0.00     0.280 A 
ATOM      4  C   UNL d   1      58.598  49.681  50.534  0.00  0.00     0.034 A 
ATOM      5  C   UNL d   1      59.006  49.690  49.793  0.00  0.00     0.069 A 
ATOM      6  C   UNL d   1      59.616  49.689  51.404  0.00  0.00     0.047 A 
ATOM      7  C   UNL d   1      60.299  49.699  50.940  0.00  0.00     0.091 A 
ATOM      8  O   UNL d   1      60.105  49.707  48.875  0.00  0.00    -0.265 OA
ATOM      9  C   UNL d   1      59.675  49.686  52.225  0.00  0.00     0.008 A 
ATOM     10  C   UNL d   1      61.040  49.706  51.298  0.00  0.00     0.020 A 
ATOM     11  C   UNL d   1      61.104  49.703  52.126  0.00  0.00     0.002 A 
ATOM     12  C   UNL d   1      60.421  49.693  52.589  0.00  0.00     0.001 A 
ENDROOT
BRANCH   4  13
ATOM     13  C   UNL d   1      57.769  49.672  50.508  0.00  0.00     0.006 A 
ATOM     14  C   UNL d   1      57.333  49.690  51.201  0.00  0.00     0.001 A 
ATOM     15  C   UNL d   1      56.515  49.681  51.176  0.00  0.00     0.000 A 
ATOM     16  C   UNL d   1      56.127  49.653  50.449  0.00  0.00     0.000 A 
ATOM     17  C   UNL d   1      56.568  49.634  49.742  0.00  0.00     0.000 A 
ATOM     18  C   UNL d   1      57.391  49.644  49.773  0.00  0.00     0.001 A 
ENDBRANCH   4  13
TORSDOF 1
ENDMDL
