MODEL 1
REMARK VINA RESULT:      65.0      0.000      0.000
REMARK  3 active torsions:
REMARK  status: ('A' for Active; 'I' for Inactive)
REMARK    1  A    between atoms: C_6  and  C_1 
REMARK    2  A    between atoms: O_10  and  C_6 
REMARK    3  A    between atoms: C_19  and  O_10 
ROOT
ATOM      1  C   UNL d   1      46.223 -17.479  42.551  0.00  0.00     0.081 A 
ATOM      2  C   UNL d   1      46.308 -18.699  41.742  0.00  0.00     0.056 A 
ATOM      3  C   UNL d   1      46.438 -18.250  41.079  0.00  0.00     0.080 A 
ATOM      4  C   UNL d   1      46.352 -17.030  41.888  0.00  0.00     0.086 A 
ATOM      5  C   UNL d   1      46.199 -18.342  42.479  0.00  0.00     0.013 A 
ATOM      6  N   UNL d   1      46.466 -17.415  41.111  0.00  0.00    -0.246 NA
ATOM      7  C   UNL d   1      46.282 -19.522  41.696  0.00  0.00     0.193 A 
ATOM      8  C   UNL d   1      46.549 -18.596  40.328  0.00  0.00    -0.003 A 
ATOM      9  C   UNL d   1      46.520 -19.434  40.293  0.00  0.00     0.042 A 
ATOM     10  C   UNL d   1      46.391 -19.883  40.956  0.00  0.00     0.019 A 
ATOM     11  O   UNL d   1      46.152 -19.971  42.359  0.00  0.00    -0.287 OA
ATOM     12  C   UNL d   1      45.989 -19.069  43.554  0.00  0.00     0.020 A 
ATOM     13  N   UNL d   1      45.753 -19.107  44.955  0.00  0.00    -0.242 NA
ATOM     14  C   UNL d   1      46.381 -16.196  41.921  0.00  0.00     0.021 C 
ATOM     15  C   UNL d   1      45.884 -18.651  44.282  0.00  0.00     0.099 A 
ATOM     16  C   UNL d   1      46.646 -19.556  39.511  0.00  0.00     0.009 C 
ATOM     17  C   UNL d   1      46.567 -20.095  39.855  0.00  0.00     0.009 C 
ATOM     18  C   UNL d   1      45.732 -19.960  44.869  0.00  0.00     0.099 A 
ATOM     19  C   UNL d   1      45.970 -19.874  43.470  0.00  0.00     0.003 A 
ATOM     20  C   UNL d   1      45.838 -20.330  44.144  0.00  0.00     0.021 A 
ENDROOT
BRANCH   1  21
ATOM     21  C   UNL d   1      46.114 -17.122  43.288  0.00  0.00     0.301 C 
ATOM     22  O   UNL d   1      46.645 -17.243  43.890  0.00  0.00    -0.259 OA
BRANCH  21  23
ATOM     23  O   UNL d   1      45.453 -16.640  43.399  0.00  0.00    -0.273 OA
BRANCH  23  24
ATOM     24  C   UNL d   1      45.470 -16.091  43.920  0.00  0.00     0.103 C 
ATOM     25  C   UNL d   1      45.680 -15.378  43.705  0.00  0.00     0.027 C 
ATOM     26  C   UNL d   1      45.283 -16.248  44.640  0.00  0.00     0.027 C 
ENDBRANCH  23  24
ENDBRANCH  21  23
ENDBRANCH   1  21
TORSDOF 3
ENDMDL
MODEL 2
REMARK VINA RESULT:      66.3      1.187      3.173
REMARK  3 active torsions:
REMARK  status: ('A' for Active; 'I' for Inactive)
REMARK    1  A    between atoms: C_6  and  C_1 
REMARK    2  A    between atoms: O_10  and  C_6 
REMARK    3  A    between atoms: C_19  and  O_10 
ROOT
ATOM      1  C   UNL d   1      46.128 -16.639  43.678  0.00  0.00     0.081 A 
ATOM      2  C   UNL d   1      46.346 -18.087  43.623  0.00  0.00     0.056 A 
ATOM      3  C   UNL d   1      46.316 -18.122  44.433  0.00  0.00     0.080 A 
ATOM      4  C   UNL d   1      46.098 -16.674  44.487  0.00  0.00     0.086 A 
ATOM      5  C   UNL d   1      46.257 -17.368  43.228  0.00  0.00     0.013 A 
ATOM      6  N   UNL d   1      46.194 -17.440  44.899  0.00  0.00    -0.246 NA
ATOM      7  C   UNL d   1      46.468 -18.770  43.176  0.00  0.00     0.193 A 
ATOM      8  C   UNL d   1      46.405 -18.842  44.846  0.00  0.00    -0.003 A 
ATOM      9  C   UNL d   1      46.528 -19.529  44.380  0.00  0.00     0.042 A 
ATOM     10  C   UNL d   1      46.558 -19.494  43.571  0.00  0.00     0.019 A 
ATOM     11  O   UNL d   1      46.498 -18.735  42.365  0.00  0.00    -0.287 OA
ATOM     12  C   UNL d   1      46.306 -17.311  41.915  0.00  0.00     0.020 A 
ATOM     13  N   UNL d   1      46.238 -16.512  40.741  0.00  0.00    -0.242 NA
ATOM     14  C   UNL d   1      45.976 -15.991  44.953  0.00  0.00     0.021 C 
ATOM     15  C   UNL d   1      46.207 -16.547  41.564  0.00  0.00     0.099 A 
ATOM     16  C   UNL d   1      46.586 -20.089  44.951  0.00  0.00     0.009 C 
ATOM     17  C   UNL d   1      46.646 -20.314  44.351  0.00  0.00     0.009 C 
ATOM     18  C   UNL d   1      46.366 -17.241  40.309  0.00  0.00     0.099 A 
ATOM     19  C   UNL d   1      46.426 -18.000  41.510  0.00  0.00     0.003 A 
ATOM     20  C   UNL d   1      46.457 -17.964  40.687  0.00  0.00     0.021 A 
ENDROOT
BRANCH   1  21
ATOM     21  C   UNL d   1      46.038 -15.919  43.283  0.00  0.00     0.301 C 
ATOM     22  O   UNL d   1      45.658 -15.884  42.566  0.00  0.00    -0.259 OA
BRANCH  21  23
ATOM     23  O   UNL d   1      46.344 -15.236  43.632  0.00  0.00    -0.273 OA
BRANCH  23  24
ATOM     24  C   UNL d   1      45.895 -14.636  43.742  0.00  0.00     0.103 C 
ATOM     25  C   UNL d   1      46.213 -13.969  43.972  0.00  0.00     0.027 C 
ATOM     26  C   UNL d   1      45.147 -14.698  43.624  0.00  0.00     0.027 C 
ENDBRANCH  23  24
ENDBRANCH  21  23
ENDBRANCH   1  21
TORSDOF 3
ENDMDL
