MODEL 1
REMARK VINA RESULT:      56.4      0.000      0.000
REMARK  7 active torsions:
REMARK  status: ('A' for Active; 'I' for Inactive)
REMARK    1  A    between atoms: C_11  and  C_3 
REMARK    2  A    between atoms: N_12  and  C_7 
REMARK       I    between atoms: C_9  and  N_15 
REMARK    3  A    between atoms: C_14  and  C_9 
REMARK    4  A    between atoms: C_16  and  C_11 
REMARK    5  A    between atoms: C_17  and  N_12 
REMARK    6  A    between atoms: N_15  and  C_16 
REMARK    7  A    between atoms: C_19  and  C_17 
ROOT
ATOM      1  N   UNL d   1     -55.365-100.370 -44.137  0.00  0.00    -0.190 N 
ATOM      2  C   UNL d   1     -55.015-100.622 -44.845  0.00  0.00     0.187 A 
ATOM      3  C   UNL d   1     -55.607 -99.577 -44.231  0.00  0.00     0.188 A 
ATOM      4  N   UNL d   1     -55.416-100.903 -43.498  0.00  0.00    -0.143 NA
ATOM      5  N   UNL d   1     -55.043 -99.978 -45.375  0.00  0.00    -0.127 NA
ATOM      6  N   UNL d   1     -55.407 -99.348 -44.987  0.00  0.00    -0.127 NA
ATOM      7  C   UNL d   1     -55.121-101.670 -43.571  0.00  0.00     0.182 A 
ATOM      8  C   UNL d   1     -54.720-101.389 -44.917  0.00  0.00     0.044 A 
ATOM      9  C   UNL d   1     -54.773-101.912 -44.284  0.00  0.00     0.044 A 
ENDROOT
BRANCH   3  10
ATOM     10  C   UNL d   1     -55.981 -99.107 -43.663  0.00  0.00     0.061 C 
BRANCH  10  11
ATOM     11  C   UNL d   1     -56.795 -98.996 -43.691  0.00  0.00     0.105 C 
BRANCH  11  12
ATOM     12  N   UNL d   1     -57.223 -98.959 -42.985  0.00  0.00    -0.206 NA
ATOM     13  C   UNL d   1     -58.049 -98.879 -43.012  0.00  0.00     0.279 C 
ATOM     14  O   UNL d   1     -58.475 -98.841 -42.302  0.00  0.00    -0.265 OA
BRANCH  13  15
ATOM     15  C   UNL d   1     -58.432 -98.837 -43.736  0.00  0.00     0.058 A 
ATOM     16  C   UNL d   1     -59.262 -98.797 -43.775  0.00  0.00     0.005 A 
ATOM     17  C   UNL d   1     -59.631 -98.756 -44.500  0.00  0.00     0.000 A 
ATOM     18  C   UNL d   1     -59.188 -98.755 -45.188  0.00  0.00     0.000 A 
ATOM     19  C   UNL d   1     -58.377 -98.795 -45.165  0.00  0.00     0.000 A 
ATOM     20  C   UNL d   1     -57.988 -98.836 -44.435  0.00  0.00     0.005 A 
ENDBRANCH  13  15
ENDBRANCH  11  12
ENDBRANCH  10  11
ENDBRANCH   3  10
BRANCH   7  21
ATOM     21  N   UNL d   1     -55.169-102.206 -42.938  0.00  0.00    -0.224 NA
BRANCH  21  22
ATOM     22  C   UNL d   1     -55.769-102.105 -42.378  0.00  0.00     0.101 C 
BRANCH  22  23
ATOM     23  C   UNL d   1     -55.625-102.246 -41.578  0.00  0.00     0.019 A 
ATOM     24  C   UNL d   1     -54.848-102.392 -41.315  0.00  0.00     0.002 A 
ATOM     25  C   UNL d   1     -54.717-102.531 -40.512  0.00  0.00     0.011 A 
ATOM     26  C   UNL d   1     -55.339-102.528 -39.974  0.00  0.00     0.058 A 
ATOM     27  C   UNL d   1     -56.115-102.382 -40.238  0.00  0.00     0.011 A 
ATOM     28 CL   UNL d   1     -55.208-102.668 -39.171  0.00  0.00    -0.082 Cl
ATOM     29  C   UNL d   1     -56.252-102.242 -41.039  0.00  0.00     0.002 A 
ENDBRANCH  22  23
ENDBRANCH  21  22
ENDBRANCH   7  21
TORSDOF 7
ENDMDL
