MODEL 1
REMARK VINA RESULT:      -9.7      0.000      0.000
REMARK  0 active torsions:
REMARK  status: ('A' for Active; 'I' for Inactive)
ROOT
ATOM      1  C   UNL d   1     -47.729  12.985  23.061  0.00  0.00     0.106 A 
ATOM      2  O   UNL d   1     -48.126  13.629  22.747  0.00  0.00    -0.273 OA
ATOM      3  C   UNL d   1     -48.954  13.626  22.717  0.00  0.00     0.300 A 
ATOM      4  C   UNL d   1     -48.971  12.332  23.317  0.00  0.00     0.007 A 
ATOM      5  C   UNL d   1     -48.154  12.333  23.348  0.00  0.00     0.023 A 
ATOM      6  C   UNL d   1     -49.377  12.977  23.002  0.00  0.00     0.064 A 
ATOM      7  C   UNL d   1     -46.906  12.987  23.092  0.00  0.00     0.062 A 
ATOM      8  C   UNL d   1     -47.751  11.689  23.662  0.00  0.00     0.005 A 
ATOM      9  C   UNL d   1     -46.504  12.336  23.410  0.00  0.00     0.198 A 
ATOM     10  O   UNL d   1     -49.364  14.281  22.397  0.00  0.00    -0.259 OA
ATOM     11  C   UNL d   1     -46.927  11.686  23.695  0.00  0.00     0.042 A 
ATOM     12  C   UNL d   1     -49.395  11.680  23.603  0.00  0.00     0.000 A 
ATOM     13  C   UNL d   1     -50.197  12.978  22.970  0.00  0.00     0.005 A 
ATOM     14  O   UNL d   1     -45.672  12.337  23.441  0.00  0.00    -0.286 OA
ATOM     15  C   UNL d   1     -46.492  13.623  22.813  0.00  0.00     0.005 C 
ATOM     16  C   UNL d   1     -50.219  11.677  23.573  0.00  0.00     0.000 A 
ATOM     17  C   UNL d   1     -50.633  12.331  23.253  0.00  0.00     0.000 A 
ENDROOT
TORSDOF 0
ENDMDL
MODEL 2
REMARK VINA RESULT:      -9.5      1.269      1.934
REMARK  0 active torsions:
REMARK  status: ('A' for Active; 'I' for Inactive)
ROOT
ATOM      1  C   UNL d   1     -47.634  12.661  22.953  0.00  0.00     0.106 A 
ATOM      2  O   UNL d   1     -47.980  11.919  22.960  0.00  0.00    -0.273 OA
ATOM      3  C   UNL d   1     -48.709  11.803  22.583  0.00  0.00     0.300 A 
ATOM      4  C   UNL d   1     -48.731  13.178  22.202  0.00  0.00     0.007 A 
ATOM      5  C   UNL d   1     -48.012  13.295  22.572  0.00  0.00     0.023 A 
ATOM      6  C   UNL d   1     -49.085  12.433  22.204  0.00  0.00     0.064 A 
ATOM      7  C   UNL d   1     -46.909  12.778  23.327  0.00  0.00     0.062 A 
ATOM      8  C   UNL d   1     -47.660  14.037  22.569  0.00  0.00     0.005 A 
ATOM      9  C   UNL d   1     -46.558  13.529  23.321  0.00  0.00     0.198 A 
ATOM     10  O   UNL d   1     -49.066  11.047  22.587  0.00  0.00    -0.259 OA
ATOM     11  C   UNL d   1     -46.934  14.159  22.942  0.00  0.00     0.042 A 
ATOM     12  C   UNL d   1     -49.108  13.810  21.822  0.00  0.00     0.000 A 
ATOM     13  C   UNL d   1     -49.807  12.314  21.833  0.00  0.00     0.005 A 
ATOM     14  O   UNL d   1     -45.826  13.647  23.698  0.00  0.00    -0.286 OA
ATOM     15  C   UNL d   1     -46.541  12.161  23.698  0.00  0.00     0.005 C 
ATOM     16  C   UNL d   1     -49.833  13.694  21.448  0.00  0.00     0.000 A 
ATOM     17  C   UNL d   1     -50.194  12.939  21.449  0.00  0.00     0.000 A 
ENDROOT
TORSDOF 0
ENDMDL
MODEL 3
REMARK VINA RESULT:      -9.5      1.074      2.766
REMARK  0 active torsions:
REMARK  status: ('A' for Active; 'I' for Inactive)
ROOT
ATOM      1  C   UNL d   1     -48.854  12.895  23.184  0.00  0.00     0.106 A 
ATOM      2  O   UNL d   1     -49.022  13.673  22.989  0.00  0.00    -0.273 OA
ATOM      3  C   UNL d   1     -48.402  14.199  22.832  0.00  0.00     0.300 A 
ATOM      4  C   UNL d   1     -47.457  13.156  23.068  0.00  0.00     0.007 A 
ATOM      5  C   UNL d   1     -48.067  12.635  23.224  0.00  0.00     0.023 A 
ATOM      6  C   UNL d   1     -47.619  13.941  22.871  0.00  0.00     0.064 A 
ATOM      7  C   UNL d   1     -49.470  12.371  23.342  0.00  0.00     0.062 A 
ATOM      8  C   UNL d   1     -47.905  11.854  23.420  0.00  0.00     0.005 A 
ATOM      9  C   UNL d   1     -49.301  11.583  23.539  0.00  0.00     0.198 A 
ATOM     10  O   UNL d   1     -48.569  14.994  22.632  0.00  0.00    -0.259 OA
ATOM     11  C   UNL d   1     -48.517  11.325  23.578  0.00  0.00     0.042 A 
ATOM     12  C   UNL d   1     -46.671  12.897  23.107  0.00  0.00     0.000 A 
ATOM     13  C   UNL d   1     -47.008  14.466  22.714  0.00  0.00     0.005 A 
ATOM     14  O   UNL d   1     -49.922  11.053  23.698  0.00  0.00    -0.286 OA
ATOM     15  C   UNL d   1     -50.237  12.624  23.303  0.00  0.00     0.005 C 
ATOM     16  C   UNL d   1     -46.055  13.421  22.950  0.00  0.00     0.000 A 
ATOM     17  C   UNL d   1     -46.217  14.218  22.750  0.00  0.00     0.000 A 
ENDROOT
TORSDOF 0
ENDMDL
MODEL 4
REMARK VINA RESULT:      -9.4      0.933      2.837
REMARK  0 active torsions:
REMARK  status: ('A' for Active; 'I' for Inactive)
ROOT
ATOM      1  C   UNL d   1     -48.090  14.014  22.828  0.00  0.00     0.106 A 
ATOM      2  O   UNL d   1     -47.288  14.178  22.855  0.00  0.00    -0.273 OA
ATOM      3  C   UNL d   1     -46.755  13.583  23.079  0.00  0.00     0.300 A 
ATOM      4  C   UNL d   1     -47.842  12.673  23.246  0.00  0.00     0.007 A 
ATOM      5  C   UNL d   1     -48.369  13.258  23.025  0.00  0.00     0.023 A 
ATOM      6  C   UNL d   1     -47.033  12.831  23.276  0.00  0.00     0.064 A 
ATOM      7  C   UNL d   1     -48.621  14.603  22.605  0.00  0.00     0.062 A 
ATOM      8  C   UNL d   1     -49.175  13.099  22.997  0.00  0.00     0.005 A 
ATOM      9  C   UNL d   1     -49.433  14.439  22.578  0.00  0.00     0.198 A 
ATOM     10  O   UNL d   1     -45.936  13.745  23.108  0.00  0.00    -0.259 OA
ATOM     11  C   UNL d   1     -49.710  13.686  22.774  0.00  0.00     0.042 A 
ATOM     12  C   UNL d   1     -48.120  11.918  23.443  0.00  0.00     0.000 A 
ATOM     13  C   UNL d   1     -46.502  12.245  23.497  0.00  0.00     0.005 A 
ATOM     14  O   UNL d   1     -49.969  15.034  22.353  0.00  0.00    -0.286 OA
ATOM     15  C   UNL d   1     -48.349  15.341  22.413  0.00  0.00     0.005 C 
ATOM     16  C   UNL d   1     -47.590  11.328  23.666  0.00  0.00     0.000 A 
ATOM     17  C   UNL d   1     -46.768  11.486  23.696  0.00  0.00     0.000 A 
ENDROOT
TORSDOF 0
ENDMDL
MODEL 5
REMARK VINA RESULT:      -9.2      1.167      2.992
REMARK  0 active torsions:
REMARK  status: ('A' for Active; 'I' for Inactive)
ROOT
ATOM      1  C   UNL d   1     -47.973  12.391  23.308  0.00  0.00     0.106 A 
ATOM      2  O   UNL d   1     -47.158  12.347  23.380  0.00  0.00    -0.273 OA
ATOM      3  C   UNL d   1     -46.696  13.015  23.217  0.00  0.00     0.300 A 
ATOM      4  C   UNL d   1     -47.876  13.758  22.915  0.00  0.00     0.007 A 
ATOM      5  C   UNL d   1     -48.334  13.100  23.074  0.00  0.00     0.023 A 
ATOM      6  C   UNL d   1     -47.055  13.722  22.984  0.00  0.00     0.064 A 
ATOM      7  C   UNL d   1     -48.434  11.727  23.470  0.00  0.00     0.062 A 
ATOM      8  C   UNL d   1     -49.152  13.138  23.004  0.00  0.00     0.005 A 
ATOM      9  C   UNL d   1     -49.259  11.771  23.398  0.00  0.00     0.198 A 
ATOM     10  O   UNL d   1     -45.864  12.976  23.289  0.00  0.00    -0.259 OA
ATOM     11  C   UNL d   1     -49.618  12.477  23.164  0.00  0.00     0.042 A 
ATOM     12  C   UNL d   1     -48.237  14.467  22.681  0.00  0.00     0.000 A 
ATOM     13  C   UNL d   1     -46.593  14.381  22.824  0.00  0.00     0.005 A 
ATOM     14  O   UNL d   1     -49.725  11.100  23.560  0.00  0.00    -0.286 OA
ATOM     15  C   UNL d   1     -48.082  11.036  23.698  0.00  0.00     0.005 C 
ATOM     16  C   UNL d   1     -47.777  15.131  22.519  0.00  0.00     0.000 A 
ATOM     17  C   UNL d   1     -46.942  15.095  22.590  0.00  0.00     0.000 A 
ENDROOT
TORSDOF 0
ENDMDL
MODEL 6
REMARK VINA RESULT:      -8.8      1.104      1.991
REMARK  0 active torsions:
REMARK  status: ('A' for Active; 'I' for Inactive)
ROOT
ATOM      1  C   UNL d   1     -47.810  13.303  22.848  0.00  0.00     0.106 A 
ATOM      2  O   UNL d   1     -47.672  12.501  22.945  0.00  0.00    -0.273 OA
ATOM      3  C   UNL d   1     -48.311  11.973  22.959  0.00  0.00     0.300 A 
ATOM      4  C   UNL d   1     -49.214  13.063  22.779  0.00  0.00     0.007 A 
ATOM      5  C   UNL d   1     -48.586  13.585  22.764  0.00  0.00     0.023 A 
ATOM      6  C   UNL d   1     -49.083  12.254  22.876  0.00  0.00     0.064 A 
ATOM      7  C   UNL d   1     -47.176  13.828  22.834  0.00  0.00     0.062 A 
ATOM      8  C   UNL d   1     -48.719  14.390  22.668  0.00  0.00     0.005 A 
ATOM      9  C   UNL d   1     -47.315  14.640  22.736  0.00  0.00     0.198 A 
ATOM     10  O   UNL d   1     -48.175  11.154  23.057  0.00  0.00    -0.259 OA
ATOM     11  C   UNL d   1     -48.088  14.921  22.653  0.00  0.00     0.042 A 
ATOM     12  C   UNL d   1     -49.989  13.345  22.695  0.00  0.00     0.000 A 
ATOM     13  C   UNL d   1     -49.713  11.728  22.890  0.00  0.00     0.005 A 
ATOM     14  O   UNL d   1     -46.675  15.172  22.722  0.00  0.00    -0.286 OA
ATOM     15  C   UNL d   1     -46.420  13.553  22.915  0.00  0.00     0.005 C 
ATOM     16  C   UNL d   1     -50.624  12.820  22.709  0.00  0.00     0.000 A 
ATOM     17  C   UNL d   1     -50.492  11.999  22.808  0.00  0.00     0.000 A 
ENDROOT
TORSDOF 0
ENDMDL
MODEL 7
REMARK VINA RESULT:      -8.1      1.836      3.520
REMARK  0 active torsions:
REMARK  status: ('A' for Active; 'I' for Inactive)
ROOT
ATOM      1  C   UNL d   1     -49.222  13.618  21.916  0.00  0.00     0.106 A 
ATOM      2  O   UNL d   1     -48.972  12.945  21.520  0.00  0.00    -0.273 OA
ATOM      3  C   UNL d   1     -48.181  12.705  21.579  0.00  0.00     0.300 A 
ATOM      4  C   UNL d   1     -47.907  13.817  22.431  0.00  0.00     0.007 A 
ATOM      5  C   UNL d   1     -48.686  14.056  22.374  0.00  0.00     0.023 A 
ATOM      6  C   UNL d   1     -47.648  13.141  22.035  0.00  0.00     0.064 A 
ATOM      7  C   UNL d   1     -50.008  13.858  21.859  0.00  0.00     0.062 A 
ATOM      8  C   UNL d   1     -48.943  14.729  22.769  0.00  0.00     0.005 A 
ATOM      9  C   UNL d   1     -50.262  14.538  22.259  0.00  0.00     0.198 A 
ATOM     10  O   UNL d   1     -47.921  12.019  21.177  0.00  0.00    -0.259 OA
ATOM     11  C   UNL d   1     -49.728  14.974  22.715  0.00  0.00     0.042 A 
ATOM     12  C   UNL d   1     -47.372  14.255  22.888  0.00  0.00     0.000 A 
ATOM     13  C   UNL d   1     -46.866  12.899  22.090  0.00  0.00     0.005 A 
ATOM     14  O   UNL d   1     -51.056  14.781  22.201  0.00  0.00    -0.286 OA
ATOM     15  C   UNL d   1     -50.530  13.430  21.412  0.00  0.00     0.005 C 
ATOM     16  C   UNL d   1     -46.586  14.015  22.946  0.00  0.00     0.000 A 
ATOM     17  C   UNL d   1     -46.321  13.329  22.545  0.00  0.00     0.000 A 
ENDROOT
TORSDOF 0
ENDMDL
