MODEL 1
REMARK VINA RESULT:      81.5      0.000      0.000
REMARK  8 active torsions:
REMARK  status: ('A' for Active; 'I' for Inactive)
REMARK    1  A    between atoms: C_7  and  C_1 
REMARK    2  A    between atoms: C_8  and  C_2 
REMARK    3  A    between atoms: S_11  and  C_3 
REMARK    4  A    between atoms: C_10  and  C_4 
REMARK    5  A    between atoms: O_17  and  C_7 
REMARK    6  A    between atoms: C_24  and  S_11 
REMARK    7  A    between atoms: C_15  and  C_23 
REMARK    8  A    between atoms: C_23  and  O_17 
ROOT
ATOM      1  C   UNL d   1     -56.677 -99.631 -45.003  0.00  0.00     0.081 A 
ATOM      2  C   UNL d   1     -57.647 -99.102 -44.106  0.00  0.00     0.045 A 
ATOM      3  C   UNL d   1     -58.190 -99.054 -44.723  0.00  0.00     0.112 A 
ATOM      4  C   UNL d   1     -56.886 -99.392 -44.242  0.00  0.00     0.010 A 
ATOM      5  C   UNL d   1     -57.221 -99.582 -45.619  0.00  0.00     0.087 A 
ATOM      6  N   UNL d   1     -57.978 -99.293 -45.480  0.00  0.00    -0.239 NA
ATOM      7  C   UNL d   1     -57.012 -99.826 -46.400  0.00  0.00     0.021 C 
ENDROOT
BRANCH   4   8
ATOM      8  C   UNL d   1     -56.352 -99.440 -43.636  0.00  0.00     0.000 A 
ATOM      9  C   UNL d   1     -56.085-100.174 -43.372  0.00  0.00     0.001 A 
ATOM     10  C   UNL d   1     -55.551-100.222 -42.766  0.00  0.00     0.011 A 
ATOM     11  C   UNL d   1     -55.266 -99.537 -42.404  0.00  0.00     0.058 A 
ATOM     12  C   UNL d   1     -55.534 -98.803 -42.668  0.00  0.00     0.011 A 
ATOM     13 CL   UNL d   1     -54.723 -99.586 -41.788  0.00  0.00    -0.082 Cl
ATOM     14  C   UNL d   1     -56.068 -98.755 -43.274  0.00  0.00     0.001 A 
ENDBRANCH   4   8
BRANCH   2  15
ATOM     15  C   UNL d   1     -57.865 -98.858 -43.336  0.00  0.00     0.124 C 
ATOM     16  N   UNL d   1     -58.677 -98.773 -43.146  0.00  0.00    -0.146 N 
ENDBRANCH   2  15
BRANCH   1  17
ATOM     17  C   UNL d   1     -55.907 -99.925 -45.147  0.00  0.00     0.302 C 
ATOM     18  O   UNL d   1     -55.279 -99.402 -45.244  0.00  0.00    -0.259 OA
BRANCH  17  19
ATOM     19  O   UNL d   1     -55.788-100.749 -45.190  0.00  0.00    -0.271 OA
BRANCH  19  20
ATOM     20  C   UNL d   1     -55.049-101.060 -45.397  0.00  0.00     0.126 C 
BRANCH  20  21
ATOM     21  C   UNL d   1     -54.808-101.787 -45.097  0.00  0.00     0.027 C 
ATOM     22  C   UNL d   1     -54.822-102.449 -45.569  0.00  0.00     0.002 C 
ENDBRANCH  20  21
ENDBRANCH  19  20
ENDBRANCH  17  19
ENDBRANCH   1  17
BRANCH   3  23
ATOM     23  S   UNL d   1     -58.969 -98.759 -44.589  0.00  0.00    -0.067 SA
BRANCH  23  24
ATOM     24  C   UNL d   1     -59.561 -98.874 -45.149  0.00  0.00     0.037 C 
ATOM     25  C   UNL d   1     -59.403 -98.773 -45.954  0.00  0.00     0.007 C 
ENDBRANCH  23  24
ENDBRANCH   3  23
TORSDOF 8
ENDMDL
