MODEL 1
REMARK VINA RESULT:      16.5      0.000      0.000
REMARK  4 active torsions:
REMARK  status: ('A' for Active; 'I' for Inactive)
REMARK    1  A    between atoms: C_6  and  C_1 
REMARK    2  A    between atoms: C_16  and  C_6 
REMARK    3  A    between atoms: C_9  and  O_12 
REMARK    4  A    between atoms: O_12  and  C_10 
ROOT
ATOM      1  C   UNL d   1      45.458 -14.014  44.665  0.00  0.00     0.139 A 
ATOM      2  C   UNL d   1      45.158 -15.306  44.817  0.00  0.00     0.064 A 
ATOM      3  C   UNL d   1      44.840 -14.541  44.820  0.00  0.00     0.220 A 
ATOM      4  C   UNL d   1      45.964 -15.253  44.661  0.00  0.00     0.105 A 
ATOM      5  O   UNL d   1      46.156 -14.454  44.566  0.00  0.00    -0.304 OA
ATOM      6  C   UNL d   1      46.422 -15.938  44.625  0.00  0.00     0.050 A 
ATOM      7  C   UNL d   1      44.809 -16.045  44.937  0.00  0.00     0.007 A 
ATOM      8  C   UNL d   1      46.069 -16.669  44.745  0.00  0.00     0.105 A 
ATOM      9  O   UNL d   1      44.051 -14.344  44.955  0.00  0.00    -0.284 OA
ATOM     10  C   UNL d   1      45.268 -16.734  44.901  0.00  0.00     0.025 A 
ENDROOT
BRANCH   1  11
ATOM     11  C   UNL d   1      45.395 -13.195  44.617  0.00  0.00     0.028 C 
BRANCH  11  12
ATOM     12  C   UNL d   1      45.302 -12.819  43.881  0.00  0.00     0.005 A 
ATOM     13  C   UNL d   1      44.551 -12.760  43.558  0.00  0.00     0.021 A 
ATOM     14  C   UNL d   1      44.448 -12.389  42.829  0.00  0.00     0.099 A 
ATOM     15  N   UNL d   1      45.102 -12.080  42.428  0.00  0.00    -0.242 NA
ATOM     16  C   UNL d   1      45.856 -12.143  42.758  0.00  0.00     0.099 A 
ATOM     17  C   UNL d   1      45.955 -12.513  43.485  0.00  0.00     0.021 A 
ENDBRANCH  11  12
ENDBRANCH   1  11
BRANCH   8  18
ATOM     18  O   UNL d   1      46.531 -17.354  44.708  0.00  0.00    -0.273 OA
BRANCH  18  19
ATOM     19  C   UNL d   1      46.314 -17.979  44.204  0.00  0.00     0.300 C 
ATOM     20  O   UNL d   1      46.273 -17.851  43.392  0.00  0.00    -0.259 OA
ATOM     21  C   UNL d   1      46.141 -18.721  44.522  0.00  0.00     0.074 C 
ENDBRANCH  18  19
ENDBRANCH   8  18
TORSDOF 4
ENDMDL
MODEL 2
REMARK VINA RESULT:      16.9      1.828      4.298
REMARK  4 active torsions:
REMARK  status: ('A' for Active; 'I' for Inactive)
REMARK    1  A    between atoms: C_6  and  C_1 
REMARK    2  A    between atoms: C_16  and  C_6 
REMARK    3  A    between atoms: C_9  and  O_12 
REMARK    4  A    between atoms: O_12  and  C_10 
ROOT
ATOM      1  C   UNL d   1      45.816 -16.339  44.569  0.00  0.00     0.139 A 
ATOM      2  C   UNL d   1      45.116 -15.203  44.522  0.00  0.00     0.064 A 
ATOM      3  C   UNL d   1      45.068 -16.011  44.698  0.00  0.00     0.220 A 
ATOM      4  C   UNL d   1      45.886 -15.033  44.286  0.00  0.00     0.105 A 
ATOM      5  O   UNL d   1      46.325 -15.734  44.313  0.00  0.00    -0.304 OA
ATOM      6  C   UNL d   1      46.091 -14.262  44.076  0.00  0.00     0.050 A 
ATOM      7  C   UNL d   1      44.551 -14.602  44.548  0.00  0.00     0.007 A 
ATOM      8  C   UNL d   1      45.526 -13.670  44.104  0.00  0.00     0.105 A 
ATOM      9  O   UNL d   1      44.395 -16.412  44.955  0.00  0.00    -0.284 OA
ATOM     10  C   UNL d   1      44.756 -13.827  44.337  0.00  0.00     0.025 A 
ENDROOT
BRANCH   1  11
ATOM     11  C   UNL d   1      46.023 -17.129  44.674  0.00  0.00     0.028 C 
BRANCH  11  12
ATOM     12  C   UNL d   1      46.190 -17.615  44.021  0.00  0.00     0.005 A 
ATOM     13  C   UNL d   1      46.415 -18.392  44.152  0.00  0.00     0.021 A 
ATOM     14  C   UNL d   1      46.584 -18.882  43.511  0.00  0.00     0.099 A 
ATOM     15  N   UNL d   1      46.524 -18.588  42.740  0.00  0.00    -0.242 NA
ATOM     16  C   UNL d   1      46.297 -17.804  42.615  0.00  0.00     0.099 A 
ATOM     17  C   UNL d   1      46.130 -17.318  43.255  0.00  0.00     0.021 A 
ENDBRANCH  11  12
ENDBRANCH   1  11
BRANCH   8  18
ATOM     18  O   UNL d   1      45.734 -12.898  43.893  0.00  0.00    -0.273 OA
BRANCH  18  19
ATOM     19  C   UNL d   1      45.453 -12.567  43.184  0.00  0.00     0.300 C 
ATOM     20  O   UNL d   1      45.845 -12.725  42.478  0.00  0.00    -0.259 OA
ATOM     21  C   UNL d   1      44.785 -12.082  43.194  0.00  0.00     0.074 C 
ENDBRANCH  18  19
ENDBRANCH   8  18
TORSDOF 4
ENDMDL
