MODEL 1
REMARK VINA RESULT:      29.8      0.000      0.000
REMARK  3 active torsions:
REMARK  status: ('A' for Active; 'I' for Inactive)
REMARK    1  A    between atoms: N_7  and  C_1 
REMARK    2  A    between atoms: C_11  and  N_3 
REMARK       I    between atoms: C_9  and  N_7 
REMARK    3  A    between atoms: C_12  and  C_9 
ROOT
ATOM      1  C   UNL d   1      46.248 -18.020  43.603  0.00  0.00     0.169 A 
ATOM      2  C   UNL d   1      46.341 -18.754  43.862  0.00  0.00     0.067 A 
ATOM      3  N   UNL d   1      46.111 -17.561  44.226  0.00  0.00    -0.212 N 
ATOM      4  C   UNL d   1      46.259 -18.752  44.649  0.00  0.00     0.116 A 
ATOM      5  N   UNL d   1      46.118 -18.016  44.871  0.00  0.00    -0.163 NA
ATOM      6  S   UNL d   1      46.491 -19.944  44.273  0.00  0.00     0.213 S 
ATOM      7  C   UNL d   1      46.353 -19.487  44.900  0.00  0.00     0.120 A 
ATOM      8  C   UNL d   1      46.483 -19.491  43.632  0.00  0.00     0.103 A 
ATOM      9  O   UNL d   1      46.483 -20.328  44.955  0.00  0.00    -0.217 OA
ATOM     10  O   UNL d   1      46.606 -20.296  43.703  0.00  0.00    -0.217 OA
ENDROOT
BRANCH   1  11
ATOM     11  N   UNL d   1      46.347 -18.196  42.921  0.00  0.00    -0.187 NA
ATOM     12  C   UNL d   1      45.751 -18.377  42.119  0.00  0.00     0.303 C 
ATOM     13  O   UNL d   1      44.985 -18.335  42.168  0.00  0.00    -0.263 OA
BRANCH  12  14
ATOM     14  C   UNL d   1      46.098 -18.574  41.392  0.00  0.00     0.158 A 
ATOM     15  O   UNL d   1      46.317 -19.350  41.131  0.00  0.00    -0.300 OA
ATOM     16  C   UNL d   1      46.647 -19.282  40.365  0.00  0.00     0.123 A 
ATOM     17  C   UNL d   1      46.638 -18.472  40.143  0.00  0.00     0.029 A 
ATOM     18  C   UNL d   1      46.302 -18.031  40.770  0.00  0.00     0.032 A 
ENDBRANCH  12  14
ENDBRANCH   1  11
BRANCH   3  19
ATOM     19  C   UNL d   1      45.979 -16.733  44.210  0.00  0.00     0.085 A 
ATOM     20  C   UNL d   1      45.297 -16.415  44.589  0.00  0.00     0.031 A 
ATOM     21  C   UNL d   1      45.167 -15.601  44.573  0.00  0.00     0.059 A 
ATOM     22 CL   UNL d   1      44.493 -15.270  44.945  0.00  0.00    -0.082 Cl
ATOM     23  C   UNL d   1      45.717 -15.090  44.178  0.00  0.00     0.011 A 
ATOM     24  C   UNL d   1      46.390 -15.421  43.806  0.00  0.00     0.002 A 
ATOM     25  C   UNL d   1      46.514 -16.236  43.826  0.00  0.00     0.019 A 
ENDBRANCH   3  19
TORSDOF 3
ENDMDL
