MODEL 1
REMARK VINA RESULT:      -0.7      0.000      0.000
REMARK  2 active torsions:
REMARK  status: ('A' for Active; 'I' for Inactive)
REMARK    1  A    between atoms: C_4  and  C_1 
REMARK    2  A    between atoms: C_8  and  C_2 
REMARK       I    between atoms: N_7  and  C_4 
ROOT
ATOM      1  C   UNL d   1      58.449  -0.419  30.075  0.00  0.00     0.081 A 
ATOM      2  C   UNL d   1      59.102   0.045  30.206  0.00  0.00     0.104 A 
ATOM      3  C   UNL d   1      57.954  -0.399  30.728  0.00  0.00     0.033 A 
ATOM      4  O   UNL d   1      59.024   0.376  30.973  0.00  0.00    -0.307 OA
ATOM      5  C   UNL d   1      58.314   0.099  31.290  0.00  0.00     0.100 A 
ATOM      6  C   UNL d   1      57.231  -0.755  30.901  0.00  0.00     0.044 A 
ATOM      7  C   UNL d   1      57.945   0.232  32.016  0.00  0.00     0.028 A 
ATOM      8  C   UNL d   1      56.857  -0.624  31.630  0.00  0.00     0.196 A 
ATOM      9  C   UNL d   1      57.217  -0.126  32.192  0.00  0.00     0.044 A 
ATOM     10  O   UNL d   1      56.145  -0.978  31.793  0.00  0.00    -0.287 OA
ENDROOT
BRANCH   1  11
ATOM     11  C   UNL d   1      58.297  -0.857  29.376  0.00  0.00     0.267 C 
ATOM     12  N   UNL d   1      58.501  -1.644  29.333  0.00  0.00    -0.268 N 
ATOM     13  C   UNL d   1      58.350  -2.082  28.635  0.00  0.00     0.110 A 
ATOM     14  C   UNL d   1      58.863  -2.030  29.978  0.00  0.00     0.110 A 
ATOM     15  C   UNL d   1      58.560  -2.879  28.600  0.00  0.00     0.142 A 
ATOM     16  O   UNL d   1      58.916  -3.256  29.236  0.00  0.00    -0.300 OA
ATOM     17  C   UNL d   1      59.069  -2.824  29.934  0.00  0.00     0.142 A 
ATOM     18  O   UNL d   1      57.942  -0.480  28.741  0.00  0.00    -0.267 OA
ENDBRANCH   1  11
BRANCH   2  19
ATOM     19  C   UNL d   1      59.737   0.175  29.684  0.00  0.00     0.023 A 
ATOM     20  C   UNL d   1      59.600   0.551  28.981  0.00  0.00     0.002 A 
ATOM     21  C   UNL d   1      60.236   0.682  28.459  0.00  0.00     0.000 A 
ATOM     22  C   UNL d   1      60.994   0.433  28.651  0.00  0.00     0.000 A 
ATOM     23  C   UNL d   1      61.127   0.049  29.370  0.00  0.00     0.000 A 
ATOM     24  C   UNL d   1      60.495  -0.080  29.890  0.00  0.00     0.002 A 
ENDBRANCH   2  19
TORSDOF 2
ENDMDL
MODEL 2
REMARK VINA RESULT:      -0.5      1.140      2.886
REMARK  2 active torsions:
REMARK  status: ('A' for Active; 'I' for Inactive)
REMARK    1  A    between atoms: C_4  and  C_1 
REMARK    2  A    between atoms: C_8  and  C_2 
REMARK       I    between atoms: N_7  and  C_4 
ROOT
ATOM      1  C   UNL d   1      59.229  -1.566  29.146  0.00  0.00     0.081 A 
ATOM      2  C   UNL d   1      60.014  -1.457  29.320  0.00  0.00     0.104 A 
ATOM      3  C   UNL d   1      59.083  -2.357  28.989  0.00  0.00     0.033 A 
ATOM      4  O   UNL d   1      60.387  -2.206  29.274  0.00  0.00    -0.307 OA
ATOM      5  C   UNL d   1      59.809  -2.758  29.070  0.00  0.00     0.100 A 
ATOM      6  C   UNL d   1      58.404  -2.777  28.786  0.00  0.00     0.044 A 
ATOM      7  C   UNL d   1      59.843  -3.573  28.946  0.00  0.00     0.028 A 
ATOM      8  C   UNL d   1      58.434  -3.597  28.660  0.00  0.00     0.196 A 
ATOM      9  C   UNL d   1      59.159  -3.998  28.741  0.00  0.00     0.044 A 
ATOM     10  O   UNL d   1      57.761  -4.005  28.460  0.00  0.00    -0.287 OA
ENDROOT
BRANCH   1  11
ATOM     11  C   UNL d   1      58.648  -0.962  29.127  0.00  0.00     0.267 C 
ATOM     12  N   UNL d   1      58.158  -0.844  29.766  0.00  0.00    -0.268 N 
ATOM     13  C   UNL d   1      57.576  -0.240  29.748  0.00  0.00     0.110 A 
ATOM     14  C   UNL d   1      58.222  -1.318  30.450  0.00  0.00     0.110 A 
ATOM     15  C   UNL d   1      57.084  -0.128  30.400  0.00  0.00     0.142 A 
ATOM     16  O   UNL d   1      57.150  -0.595  31.070  0.00  0.00    -0.300 OA
ATOM     17  C   UNL d   1      57.727  -1.198  31.094  0.00  0.00     0.142 A 
ATOM     18  O   UNL d   1      58.582  -0.495  28.456  0.00  0.00    -0.267 OA
ENDBRANCH   1  11
BRANCH   2  19
ATOM     19  C   UNL d   1      60.390  -0.739  29.511  0.00  0.00     0.023 A 
ATOM     20  C   UNL d   1      60.514  -0.191  28.928  0.00  0.00     0.002 A 
ATOM     21  C   UNL d   1      60.890   0.527  29.119  0.00  0.00     0.000 A 
ATOM     22  C   UNL d   1      61.133   0.682  29.888  0.00  0.00     0.000 A 
ATOM     23  C   UNL d   1      61.004   0.119  30.477  0.00  0.00     0.000 A 
ATOM     24  C   UNL d   1      60.630  -0.596  30.288  0.00  0.00     0.002 A 
ENDBRANCH   2  19
TORSDOF 2
ENDMDL
MODEL 3
REMARK VINA RESULT:       1.1      0.926      3.064
REMARK  2 active torsions:
REMARK  status: ('A' for Active; 'I' for Inactive)
REMARK    1  A    between atoms: C_4  and  C_1 
REMARK    2  A    between atoms: C_8  and  C_2 
REMARK       I    between atoms: N_7  and  C_4 
ROOT
ATOM      1  C   UNL d   1      58.661  -0.205  29.966  0.00  0.00     0.081 A 
ATOM      2  C   UNL d   1      58.472  -0.019  30.732  0.00  0.00     0.104 A 
ATOM      3  C   UNL d   1      59.427   0.034  29.799  0.00  0.00     0.033 A 
ATOM      4  O   UNL d   1      59.142   0.353  31.073  0.00  0.00    -0.307 OA
ATOM      5  C   UNL d   1      59.729   0.383  30.492  0.00  0.00     0.100 A 
ATOM      6  C   UNL d   1      59.900  -0.011  29.125  0.00  0.00     0.044 A 
ATOM      7  C   UNL d   1      60.498   0.682  30.500  0.00  0.00     0.028 A 
ATOM      8  C   UNL d   1      60.674   0.288  29.129  0.00  0.00     0.196 A 
ATOM      9  C   UNL d   1      60.975   0.637  29.822  0.00  0.00     0.044 A 
ATOM     10  O   UNL d   1      61.133   0.240  28.462  0.00  0.00    -0.287 OA
ENDROOT
BRANCH   1  11
ATOM     11  C   UNL d   1      58.151  -0.585  29.419  0.00  0.00     0.267 C 
ATOM     12  N   UNL d   1      58.272  -1.366  29.221  0.00  0.00    -0.268 N 
ATOM     13  C   UNL d   1      57.763  -1.746  28.674  0.00  0.00     0.110 A 
ATOM     14  C   UNL d   1      58.900  -1.802  29.554  0.00  0.00     0.110 A 
ATOM     15  C   UNL d   1      57.892  -2.537  28.479  0.00  0.00     0.142 A 
ATOM     16  O   UNL d   1      58.510  -2.963  28.809  0.00  0.00    -0.300 OA
ATOM     17  C   UNL d   1      59.020  -2.589  29.353  0.00  0.00     0.142 A 
ATOM     18  O   UNL d   1      57.533  -0.159  29.090  0.00  0.00    -0.267 OA
ENDBRANCH   1  11
BRANCH   2  19
ATOM     19  C   UNL d   1      57.750  -0.166  31.121  0.00  0.00     0.023 A 
ATOM     20  C   UNL d   1      57.656  -0.858  31.530  0.00  0.00     0.002 A 
ATOM     21  C   UNL d   1      56.933  -1.005  31.918  0.00  0.00     0.000 A 
ATOM     22  C   UNL d   1      56.322  -0.457  31.888  0.00  0.00     0.000 A 
ATOM     23  C   UNL d   1      56.425   0.246  31.469  0.00  0.00     0.000 A 
ATOM     24  C   UNL d   1      57.144   0.393  31.083  0.00  0.00     0.002 A 
ENDBRANCH   2  19
TORSDOF 2
ENDMDL
