MODEL 1
REMARK VINA RESULT:      81.9      0.000      0.000
REMARK  4 active torsions:
REMARK  status: ('A' for Active; 'I' for Inactive)
REMARK    1  A    between atoms: C_6  and  S_1 
REMARK    2  A    between atoms: N_8  and  S_1 
REMARK    3  A    between atoms: C_17  and  N_8 
REMARK    4  A    between atoms: N_16  and  C_15 
ROOT
ATOM      1  N   UNL d   1     -56.462-102.699 -38.995  0.00  0.00    -0.273 N 
ATOM      2  C   UNL d   1     -55.849-102.704 -38.420  0.00  0.00     0.265 A 
ATOM      3  C   UNL d   1     -56.117-102.538 -39.727  0.00  0.00     0.067 A 
ATOM      4  C   UNL d   1     -55.311-102.418 -39.778  0.00  0.00     0.022 A 
ATOM      5  C   UNL d   1     -55.436-102.216 -41.187  0.00  0.00     0.105 A 
ATOM      6  C   UNL d   1     -56.588-102.497 -40.404  0.00  0.00     0.017 A 
ATOM      7  C   UNL d   1     -54.980-102.491 -39.011  0.00  0.00     0.063 A 
ATOM      8  C   UNL d   1     -54.966-102.256 -40.511  0.00  0.00     0.015 A 
ATOM      9  C   UNL d   1     -56.251-102.337 -41.132  0.00  0.00     0.014 A 
ATOM     10  O   UNL d   1     -56.031-102.853 -37.627  0.00  0.00    -0.267 OA
ATOM     11  C   UNL d   1     -57.276-102.821 -38.938  0.00  0.00     0.083 A 
ATOM     12  C   UNL d   1     -57.395-102.620 -40.337  0.00  0.00     0.003 A 
ATOM     13  C   UNL d   1     -57.747-102.781 -39.615  0.00  0.00     0.019 A 
ENDROOT
BRANCH   5  14
ATOM     14  S   UNL d   1     -55.085-102.052 -41.925  0.00  0.00     0.285 S 
ATOM     15  O   UNL d   1     -54.918-101.288 -41.659  0.00  0.00    -0.198 OA
ATOM     16  O   UNL d   1     -55.261-102.825 -42.179  0.00  0.00    -0.198 OA
BRANCH  14  17
ATOM     17  N   UNL d   1     -54.738-101.890 -42.654  0.00  0.00    -0.158 NA
BRANCH  17  18
ATOM     18  C   UNL d   1     -55.076-101.325 -43.151  0.00  0.00     0.094 A 
ATOM     19  C   UNL d   1     -54.722-100.590 -43.240  0.00  0.00     0.021 A 
ATOM     20  C   UNL d   1     -55.060-100.025 -43.737  0.00  0.00     0.019 A 
ATOM     21  C   UNL d   1     -55.752-100.195 -44.146  0.00  0.00     0.064 A 
ATOM     22  C   UNL d   1     -56.109-100.935 -44.058  0.00  0.00     0.019 A 
ATOM     23  C   UNL d   1     -55.771-101.500 -43.561  0.00  0.00     0.021 A 
BRANCH  21  24
ATOM     24  N   UNL d   1     -56.090 -99.631 -44.643  0.00  0.00    -0.301 N 
ATOM     25  C   UNL d   1     -56.909 -99.604 -44.741  0.00  0.00     0.100 C 
ATOM     26  C   UNL d   1     -55.609 -99.092 -45.043  0.00  0.00     0.100 C 
ENDBRANCH  21  24
ENDBRANCH  17  18
ENDBRANCH  14  17
ENDBRANCH   5  14
TORSDOF 4
ENDMDL
