MODEL 1
REMARK VINA RESULT:      36.1      0.000      0.000
REMARK  2 active torsions:
REMARK  status: ('A' for Active; 'I' for Inactive)
REMARK    1  A    between atoms: C_3  and  C_1 
REMARK       I    between atoms: N_6  and  C_3 
REMARK    2  A    between atoms: C_12  and  N_6 
ROOT
ATOM      1  C   UNL d   1     -54.793-101.584 -39.543  0.00  0.00     0.008 A 
ATOM      2  S   UNL d   1     -54.975-102.563 -38.683  0.00  0.00    -0.086 SA
ATOM      3  C   UNL d   1     -54.935-102.386 -39.472  0.00  0.00     0.030 A 
ATOM      4  C   UNL d   1     -54.860-101.888 -38.266  0.00  0.00     0.035 A 
ATOM      5  C   UNL d   1     -54.800-101.709 -40.976  0.00  0.00     0.085 A 
ATOM      6  C   UNL d   1     -54.725-101.248 -40.296  0.00  0.00     0.020 A 
ATOM      7  C   UNL d   1     -54.745-101.269 -38.789  0.00  0.00     0.007 A 
ATOM      8  C   UNL d   1     -55.013-102.867 -40.161  0.00  0.00     0.008 A 
ATOM      9  C   UNL d   1     -54.944-102.519 -40.908  0.00  0.00     0.020 A 
ENDROOT
BRANCH   5  10
ATOM     10  N   UNL d   1     -54.730-101.361 -41.724  0.00  0.00    -0.208 NA
ATOM     11  C   UNL d   1     -55.003-101.761 -42.392  0.00  0.00     0.285 C 
ATOM     12  O   UNL d   1     -55.342-102.504 -42.313  0.00  0.00    -0.265 OA
BRANCH  11  13
ATOM     13  C   UNL d   1     -54.934-101.415 -43.134  0.00  0.00     0.088 A 
ATOM     14  S   UNL d   1     -55.061-100.601 -43.316  0.00  0.00    -0.071 SA
ATOM     15  C   UNL d   1     -54.933-100.494 -44.125  0.00  0.00     0.087 A 
ATOM     16 CL   UNL d   1     -54.993 -99.826 -44.514  0.00  0.00    -0.075 Cl
ATOM     17  C   UNL d   1     -54.720-101.267 -44.453  0.00  0.00     0.019 A 
ATOM     18  C   UNL d   1     -54.723-101.815 -43.849  0.00  0.00     0.013 A 
ENDBRANCH  11  13
ENDBRANCH   5  10
TORSDOF 2
ENDMDL
