MODEL 1
REMARK VINA RESULT:      50.1      0.000      0.000
REMARK  4 active torsions:
REMARK  status: ('A' for Active; 'I' for Inactive)
REMARK    1  A    between atoms: C_10  and  C_1 
REMARK       I    between atoms: C_5  and  N_3 
REMARK    2  A    between atoms: O_18  and  C_5 
REMARK    3  A    between atoms: N_9  and  C_10 
REMARK    4  A    between atoms: C_22  and  O_18 
ROOT
ATOM      1  C   UNL d   1      46.229 -17.858  44.213  0.00  0.00     0.059 A 
ATOM      2  C   UNL d   1      46.438 -19.093  43.528  0.00  0.00     0.121 A 
ATOM      3  C   UNL d   1      46.359 -18.671  44.237  0.00  0.00     0.214 A 
ATOM      4  C   UNL d   1      46.385 -18.697  42.798  0.00  0.00     0.032 A 
ATOM      5  C   UNL d   1      46.254 -17.883  42.775  0.00  0.00     0.059 A 
ATOM      6  C   UNL d   1      46.176 -17.462  43.483  0.00  0.00     0.016 A 
ATOM      7  N   UNL d   1      46.567 -19.896  43.543  0.00  0.00    -0.241 NA
ATOM      8 CL   UNL d   1      46.202 -17.487  42.045  0.00  0.00    -0.082 Cl
ATOM      9  O   UNL d   1      46.411 -19.061  44.955  0.00  0.00    -0.285 OA
ATOM     10  C   UNL d   1      46.462 -19.113  42.098  0.00  0.00     0.004 A 
ATOM     11  C   UNL d   1      46.647 -20.330  42.842  0.00  0.00     0.099 A 
ATOM     12  C   UNL d   1      46.595 -19.938  42.110  0.00  0.00     0.021 A 
ENDROOT
BRANCH   1  13
ATOM     13  C   UNL d   1      46.149 -17.427  44.911  0.00  0.00     0.084 C 
BRANCH  13  14
ATOM     14  N   UNL d   1      45.896 -16.650  44.903  0.00  0.00    -0.300 N 
ATOM     15  C   UNL d   1      45.096 -16.464  44.904  0.00  0.00     0.100 A 
ATOM     16  C   UNL d   1      44.843 -15.687  44.896  0.00  0.00     0.104 A 
ATOM     17  N   UNL d   1      45.404 -15.073  44.886  0.00  0.00    -0.249 N 
ATOM     18  C   UNL d   1      46.217 -15.257  44.886  0.00  0.00     0.104 A 
ATOM     19  C   UNL d   1      45.152 -14.284  44.878  0.00  0.00     0.378 C 
ATOM     20  C   UNL d   1      46.458 -16.036  44.894  0.00  0.00     0.100 A 
ATOM     21  O   UNL d   1      44.354 -14.113  44.879  0.00  0.00    -0.237 OA
BRANCH  19  22
ATOM     22  O   UNL d   1      45.702 -13.682  44.869  0.00  0.00    -0.257 OA
BRANCH  22  23
ATOM     23  C   UNL d   1      45.490 -12.924  44.597  0.00  0.00     0.128 C 
ATOM     24  C   UNL d   1      45.823 -12.235  44.563  0.00  0.00     0.029 C 
ENDBRANCH  22  23
ENDBRANCH  19  22
ENDBRANCH  13  14
ENDBRANCH   1  13
TORSDOF 4
ENDMDL
