MODEL 1
REMARK VINA RESULT:      23.2      0.000      0.000
REMARK  3 active torsions:
REMARK  status: ('A' for Active; 'I' for Inactive)
REMARK    1  A    between atoms: C_6  and  C_2 
REMARK    2  A    between atoms: C_7  and  C_6 
REMARK    3  A    between atoms: C_8  and  C_7 
ROOT
ATOM      1  N   UNL d   1      14.122  12.491  -2.481  0.00  0.00    -0.225 NA
ATOM      2  C   UNL d   1      13.396  12.054  -2.451  0.00  0.00     0.163 A 
ATOM      3  N   UNL d   1      13.302  11.780  -1.681  0.00  0.00    -0.225 NA
ATOM      4  C   UNL d   1      14.447  12.473  -1.741  0.00  0.00     0.101 A 
ATOM      5  C   UNL d   1      13.947  12.028  -1.213  0.00  0.00     0.101 A 
ATOM      6  C   UNL d   1      15.161  12.801  -1.414  0.00  0.00     0.021 A 
ATOM      7  C   UNL d   1      14.141  11.917  -0.419  0.00  0.00     0.021 A 
ATOM      8  C   UNL d   1      14.818  12.236  -0.137  0.00  0.00     0.002 A 
ATOM      9  C   UNL d   1      15.320  12.672  -0.627  0.00  0.00     0.002 A 
ENDROOT
BRANCH   2  10
ATOM     10  C   UNL d   1      13.035  12.052  -3.194  0.00  0.00     0.039 C 
BRANCH  10  11
ATOM     11  C   UNL d   1      13.483  12.203  -3.860  0.00  0.00     0.003 C 
BRANCH  11  12
ATOM     12  C   UNL d   1      13.358  12.901  -4.288  0.00  0.00     0.000 A 
ATOM     13  C   UNL d   1      12.877  13.501  -3.988  0.00  0.00     0.001 A 
ATOM     14  C   UNL d   1      12.770  14.182  -4.433  0.00  0.00     0.011 A 
ATOM     15  C   UNL d   1      13.127  14.277  -5.157  0.00  0.00     0.058 A 
ATOM     16  C   UNL d   1      13.608  13.676  -5.455  0.00  0.00     0.011 A 
ATOM     17 CL   UNL d   1      13.002  14.977  -5.587  0.00  0.00    -0.082 Cl
ATOM     18  C   UNL d   1      13.718  12.994  -5.015  0.00  0.00     0.001 A 
ENDBRANCH  11  12
ENDBRANCH  10  11
ENDBRANCH   2  10
TORSDOF 3
ENDMDL
