MODEL 1
REMARK VINA RESULT:      -8.6      0.000      0.000
REMARK  4 active torsions:
REMARK  status: ('A' for Active; 'I' for Inactive)
REMARK    1  A    between atoms: C_4  and  C_10 
REMARK    2  A    between atoms: C_18  and  C_7 
REMARK       I    between atoms: C_10  and  N_17 
REMARK    3  A    between atoms: N_17  and  C_20 
REMARK    4  A    between atoms: C_20  and  C_18 
ROOT
ATOM      1  C   UNL d   1      54.008  32.443  54.316  0.00  0.00     0.042 C 
ENDROOT
BRANCH   1   2
ATOM      2  C   UNL d   1      53.734  31.711  54.037  0.00  0.00     0.102 A 
ATOM      3  N   UNL d   1      53.646  31.031  54.485  0.00  0.00    -0.227 NA
ATOM      4  C   UNL d   1      53.363  30.435  54.003  0.00  0.00     0.148 A 
ATOM      5  N   UNL d   1      53.272  30.742  53.241  0.00  0.00    -0.288 N 
ATOM      6  C   UNL d   1      53.171  29.645  54.143  0.00  0.00     0.035 A 
ATOM      7  C   UNL d   1      53.504  31.538  53.265  0.00  0.00     0.101 A 
ATOM      8  C   UNL d   1      52.993  30.269  52.629  0.00  0.00     0.082 A 
ATOM      9  C   UNL d   1      52.804  29.485  52.774  0.00  0.00     0.019 A 
ATOM     10  C   UNL d   1      52.893  29.166  53.537  0.00  0.00     0.004 A 
ATOM     11  C   UNL d   1      53.259  29.323  54.909  0.00  0.00     0.003 C 
ENDBRANCH   1   2
BRANCH   1  12
ATOM     12  C   UNL d   1      53.528  33.115  54.256  0.00  0.00     0.104 C 
BRANCH  12  13
ATOM     13  N   UNL d   1      53.664  33.761  54.742  0.00  0.00    -0.205 NA
ATOM     14  C   UNL d   1      53.235  34.461  54.631  0.00  0.00     0.302 C 
ATOM     15  O   UNL d   1      53.373  35.099  55.116  0.00  0.00    -0.263 OA
BRANCH  14  16
ATOM     16  C   UNL d   1      52.670  34.502  54.029  0.00  0.00     0.158 A 
ATOM     17  O   UNL d   1      51.915  34.188  53.954  0.00  0.00    -0.296 OA
ATOM     18  C   UNL d   1      51.609  34.415  53.221  0.00  0.00     0.134 A 
ATOM     19 BR   UNL d   1      50.870  34.233  52.900  0.00  0.00    -0.022 Br
ATOM     20  C   UNL d   1      52.186  34.866  52.859  0.00  0.00     0.034 A 
ATOM     21  C   UNL d   1      52.841  34.926  53.343  0.00  0.00     0.032 A 
ENDBRANCH  14  16
ENDBRANCH  12  13
ENDBRANCH   1  12
TORSDOF 4
ENDMDL
MODEL 2
REMARK VINA RESULT:      -7.8      2.207      4.042
REMARK  4 active torsions:
REMARK  status: ('A' for Active; 'I' for Inactive)
REMARK    1  A    between atoms: C_4  and  C_10 
REMARK    2  A    between atoms: C_18  and  C_7 
REMARK       I    between atoms: C_10  and  N_17 
REMARK    3  A    between atoms: N_17  and  C_20 
REMARK    4  A    between atoms: C_20  and  C_18 
ROOT
ATOM      1  C   UNL d   1      52.911  34.931  53.798  0.00  0.00     0.042 C 
ENDROOT
BRANCH   1   2
ATOM      2  C   UNL d   1      52.242  34.773  53.334  0.00  0.00     0.102 A 
ATOM      3  N   UNL d   1      51.464  34.883  53.564  0.00  0.00    -0.227 NA
ATOM      4  C   UNL d   1      50.975  34.661  52.948  0.00  0.00     0.148 A 
ATOM      5  N   UNL d   1      51.450  34.408  52.321  0.00  0.00    -0.288 N 
ATOM      6  C   UNL d   1      50.154  34.651  52.860  0.00  0.00     0.035 A 
ATOM      7  C   UNL d   1      52.240  34.479  52.564  0.00  0.00     0.101 A 
ATOM      8  C   UNL d   1      51.113  34.149  51.617  0.00  0.00     0.082 A 
ATOM      9  C   UNL d   1      50.298  34.141  51.536  0.00  0.00     0.019 A 
ATOM     10  C   UNL d   1      49.810  34.393  52.161  0.00  0.00     0.004 A 
ATOM     11  C   UNL d   1      49.664  34.904  53.487  0.00  0.00     0.003 C 
ENDBRANCH   1   2
BRANCH   1  12
ATOM     12  C   UNL d   1      53.346  34.306  54.125  0.00  0.00     0.104 C 
BRANCH  12  13
ATOM     13  N   UNL d   1      54.015  34.461  54.572  0.00  0.00    -0.205 NA
ATOM     14  C   UNL d   1      54.478  33.837  54.858  0.00  0.00     0.302 C 
ATOM     15  O   UNL d   1      55.141  33.997  55.301  0.00  0.00    -0.263 OA
BRANCH  14  16
ATOM     16  C   UNL d   1      54.260  33.058  54.688  0.00  0.00     0.158 A 
ATOM     17  O   UNL d   1      54.281  32.613  53.998  0.00  0.00    -0.296 OA
ATOM     18  C   UNL d   1      53.989  31.859  54.163  0.00  0.00     0.134 A 
ATOM     19 BR   UNL d   1      53.904  31.221  53.645  0.00  0.00    -0.022 Br
ATOM     20  C   UNL d   1      53.793  31.855  54.956  0.00  0.00     0.034 A 
ATOM     21  C   UNL d   1      53.954  32.583  55.289  0.00  0.00     0.032 A 
ENDBRANCH  14  16
ENDBRANCH  12  13
ENDBRANCH   1  12
TORSDOF 4
ENDMDL
MODEL 3
REMARK VINA RESULT:      -7.4      2.251      4.631
REMARK  4 active torsions:
REMARK  status: ('A' for Active; 'I' for Inactive)
REMARK    1  A    between atoms: C_4  and  C_10 
REMARK    2  A    between atoms: C_18  and  C_7 
REMARK       I    between atoms: C_10  and  N_17 
REMARK    3  A    between atoms: N_17  and  C_20 
REMARK    4  A    between atoms: C_20  and  C_18 
ROOT
ATOM      1  C   UNL d   1      54.076  32.139  53.426  0.00  0.00     0.042 C 
ENDROOT
BRANCH   1   2
ATOM      2  C   UNL d   1      53.816  32.864  53.735  0.00  0.00     0.102 A 
ATOM      3  N   UNL d   1      53.364  33.419  53.337  0.00  0.00    -0.227 NA
ATOM      4  C   UNL d   1      53.227  34.052  53.835  0.00  0.00     0.148 A 
ATOM      5  N   UNL d   1      53.598  33.896  54.556  0.00  0.00    -0.288 N 
ATOM      6  C   UNL d   1      52.815  34.760  53.740  0.00  0.00     0.035 A 
ATOM      7  C   UNL d   1      53.964  33.154  54.492  0.00  0.00     0.101 A 
ATOM      8  C   UNL d   1      53.558  34.437  55.174  0.00  0.00     0.082 A 
ATOM      9  C   UNL d   1      53.147  35.139  55.074  0.00  0.00     0.019 A 
ATOM     10  C   UNL d   1      52.771  35.306  54.352  0.00  0.00     0.004 A 
ATOM     11  C   UNL d   1      52.436  34.929  53.014  0.00  0.00     0.003 C 
ENDBRANCH   1   2
BRANCH   1  12
ATOM     12  C   UNL d   1      53.559  31.492  53.397  0.00  0.00     0.104 C 
BRANCH  12  13
ATOM     13  N   UNL d   1      53.372  31.149  52.676  0.00  0.00    -0.205 NA
ATOM     14  C   UNL d   1      53.119  30.361  52.645  0.00  0.00     0.302 C 
ATOM     15  O   UNL d   1      52.934  30.026  51.927  0.00  0.00    -0.263 OA
BRANCH  14  16
ATOM     16  C   UNL d   1      53.057  29.925  53.344  0.00  0.00     0.158 A 
ATOM     17  O   UNL d   1      53.614  29.552  53.817  0.00  0.00    -0.296 OA
ATOM     18  C   UNL d   1      53.224  29.199  54.454  0.00  0.00     0.134 A 
ATOM     19 BR   UNL d   1      53.553  28.763  55.073  0.00  0.00    -0.022 Br
ATOM     20  C   UNL d   1      52.431  29.363  54.358  0.00  0.00     0.034 A 
ATOM     21  C   UNL d   1      52.314  29.808  53.683  0.00  0.00     0.032 A 
ENDBRANCH  14  16
ENDBRANCH  12  13
ENDBRANCH   1  12
TORSDOF 4
ENDMDL
MODEL 4
REMARK VINA RESULT:      -7.1      2.338      4.533
REMARK  4 active torsions:
REMARK  status: ('A' for Active; 'I' for Inactive)
REMARK    1  A    between atoms: C_4  and  C_10 
REMARK    2  A    between atoms: C_18  and  C_7 
REMARK       I    between atoms: C_10  and  N_17 
REMARK    3  A    between atoms: N_17  and  C_20 
REMARK    4  A    between atoms: C_20  and  C_18 
ROOT
ATOM      1  C   UNL d   1      52.341  33.579  52.441  0.00  0.00     0.042 C 
ENDROOT
BRANCH   1   2
ATOM      2  C   UNL d   1      51.587  33.923  52.506  0.00  0.00     0.102 A 
ATOM      3  N   UNL d   1      51.020  33.946  51.915  0.00  0.00    -0.227 NA
ATOM      4  C   UNL d   1      50.360  34.332  52.202  0.00  0.00     0.148 A 
ATOM      5  N   UNL d   1      50.512  34.555  52.983  0.00  0.00    -0.288 N 
ATOM      6  C   UNL d   1      49.630  34.519  51.866  0.00  0.00     0.035 A 
ATOM      7  C   UNL d   1      51.278  34.298  53.170  0.00  0.00     0.101 A 
ATOM      8  C   UNL d   1      49.944  34.957  53.423  0.00  0.00     0.082 A 
ATOM      9  C   UNL d   1      49.222  35.139  53.083  0.00  0.00     0.019 A 
ATOM     10  C   UNL d   1      49.059  34.920  52.298  0.00  0.00     0.004 A 
ATOM     11  C   UNL d   1      49.465  34.298  51.077  0.00  0.00     0.003 C 
ENDBRANCH   1   2
BRANCH   1  12
ATOM     12  C   UNL d   1      52.629  33.095  53.048  0.00  0.00     0.104 C 
BRANCH  12  13
ATOM     13  N   UNL d   1      52.858  32.325  52.886  0.00  0.00    -0.205 NA
ATOM     14  C   UNL d   1      53.453  31.966  53.336  0.00  0.00     0.302 C 
ATOM     15  O   UNL d   1      53.676  31.201  53.170  0.00  0.00    -0.263 OA
BRANCH  14  16
ATOM     16  C   UNL d   1      53.814  32.389  53.947  0.00  0.00     0.158 A 
ATOM     17  O   UNL d   1      54.346  33.014  53.950  0.00  0.00    -0.296 OA
ATOM     18  C   UNL d   1      54.513  33.211  54.735  0.00  0.00     0.134 A 
ATOM     19 BR   UNL d   1      55.017  33.803  55.015  0.00  0.00    -0.022 Br
ATOM     20  C   UNL d   1      54.078  32.700  55.200  0.00  0.00     0.034 A 
ATOM     21  C   UNL d   1      53.645  32.192  54.730  0.00  0.00     0.032 A 
ENDBRANCH  14  16
ENDBRANCH  12  13
ENDBRANCH   1  12
TORSDOF 4
ENDMDL
MODEL 5
REMARK VINA RESULT:      -7.0      1.580      2.056
REMARK  4 active torsions:
REMARK  status: ('A' for Active; 'I' for Inactive)
REMARK    1  A    between atoms: C_4  and  C_10 
REMARK    2  A    between atoms: C_18  and  C_7 
REMARK       I    between atoms: C_10  and  N_17 
REMARK    3  A    between atoms: N_17  and  C_20 
REMARK    4  A    between atoms: C_20  and  C_18 
ROOT
ATOM      1  C   UNL d   1      52.334  32.862  52.768  0.00  0.00     0.042 C 
ENDROOT
BRANCH   1   2
ATOM      2  C   UNL d   1      52.440  32.054  52.929  0.00  0.00     0.102 A 
ATOM      3  N   UNL d   1      53.158  31.661  52.949  0.00  0.00    -0.227 NA
ATOM      4  C   UNL d   1      53.022  30.876  53.127  0.00  0.00     0.148 A 
ATOM      5  N   UNL d   1      52.208  30.771  53.221  0.00  0.00    -0.288 N 
ATOM      6  C   UNL d   1      53.524  30.227  53.220  0.00  0.00     0.035 A 
ATOM      7  C   UNL d   1      51.847  31.507  53.097  0.00  0.00     0.101 A 
ATOM      8  C   UNL d   1      51.898  30.031  53.404  0.00  0.00     0.082 A 
ATOM      9  C   UNL d   1      52.402  29.391  53.495  0.00  0.00     0.019 A 
ATOM     10  C   UNL d   1      53.223  29.486  53.403  0.00  0.00     0.004 A 
ATOM     11  C   UNL d   1      54.349  30.321  53.127  0.00  0.00     0.003 C 
ENDBRANCH   1   2
BRANCH   1  12
ATOM     12  C   UNL d   1      52.668  33.431  53.268  0.00  0.00     0.104 C 
BRANCH  12  13
ATOM     13  N   UNL d   1      52.458  34.220  53.191  0.00  0.00    -0.205 NA
ATOM     14  C   UNL d   1      52.793  34.789  53.689  0.00  0.00     0.302 C 
ATOM     15  O   UNL d   1      52.580  35.570  53.608  0.00  0.00    -0.263 OA
BRANCH  14  16
ATOM     16  C   UNL d   1      53.340  34.557  54.264  0.00  0.00     0.158 A 
ATOM     17  O   UNL d   1      54.111  34.281  54.215  0.00  0.00    -0.296 OA
ATOM     18  C   UNL d   1      54.386  34.136  54.981  0.00  0.00     0.134 A 
ATOM     19 BR   UNL d   1      55.128  33.853  55.210  0.00  0.00    -0.022 Br
ATOM     20  C   UNL d   1      53.774  34.327  55.486  0.00  0.00     0.034 A 
ATOM     21  C   UNL d   1      53.128  34.587  55.060  0.00  0.00     0.032 A 
ENDBRANCH  14  16
ENDBRANCH  12  13
ENDBRANCH   1  12
TORSDOF 4
ENDMDL
MODEL 6
REMARK VINA RESULT:      -6.2      2.862      4.533
REMARK  4 active torsions:
REMARK  status: ('A' for Active; 'I' for Inactive)
REMARK    1  A    between atoms: C_4  and  C_10 
REMARK    2  A    between atoms: C_18  and  C_7 
REMARK       I    between atoms: C_10  and  N_17 
REMARK    3  A    between atoms: N_17  and  C_20 
REMARK    4  A    between atoms: C_20  and  C_18 
ROOT
ATOM      1  C   UNL d   1      50.778  34.450  51.830  0.00  0.00     0.042 C 
ENDROOT
BRANCH   1   2
ATOM      2  C   UNL d   1      51.325  34.249  52.421  0.00  0.00     0.102 A 
ATOM      3  N   UNL d   1      51.743  34.778  52.886  0.00  0.00    -0.227 NA
ATOM      4  C   UNL d   1      52.220  34.357  53.398  0.00  0.00     0.148 A 
ATOM      5  N   UNL d   1      52.102  33.552  53.255  0.00  0.00    -0.288 N 
ATOM      6  C   UNL d   1      52.754  34.587  53.983  0.00  0.00     0.035 A 
ATOM      7  C   UNL d   1      51.543  33.487  52.645  0.00  0.00     0.101 A 
ATOM      8  C   UNL d   1      52.510  32.984  53.689  0.00  0.00     0.082 A 
ATOM      9  C   UNL d   1      53.039  33.219  54.269  0.00  0.00     0.019 A 
ATOM     10  C   UNL d   1      53.165  34.027  54.420  0.00  0.00     0.004 A 
ATOM     11  C   UNL d   1      52.882  35.398  54.136  0.00  0.00     0.003 C 
ENDBRANCH   1   2
BRANCH   1  12
ATOM     12  C   UNL d   1      49.976  34.535  52.019  0.00  0.00     0.104 C 
BRANCH  12  13
ATOM     13  N   UNL d   1      49.401  34.310  51.479  0.00  0.00    -0.205 NA
ATOM     14  C   UNL d   1      48.641  34.635  51.522  0.00  0.00     0.302 C 
ATOM     15  O   UNL d   1      48.075  34.408  50.984  0.00  0.00    -0.263 OA
BRANCH  14  16
ATOM     16  C   UNL d   1      48.468  35.187  52.112  0.00  0.00     0.158 A 
ATOM     17  O   UNL d   1      48.528  35.162  52.930  0.00  0.00    -0.296 OA
ATOM     18  C   UNL d   1      48.271  35.887  53.234  0.00  0.00     0.134 A 
ATOM     19 BR   UNL d   1      48.231  36.121  54.025  0.00  0.00    -0.022 Br
ATOM     20  C   UNL d   1      48.057  36.344  52.592  0.00  0.00     0.034 A 
ATOM     21  C   UNL d   1      48.173  35.927  51.899  0.00  0.00     0.032 A 
ENDBRANCH  14  16
ENDBRANCH  12  13
ENDBRANCH   1  12
TORSDOF 4
ENDMDL
MODEL 7
REMARK VINA RESULT:      -5.8     10.099     10.759
REMARK  4 active torsions:
REMARK  status: ('A' for Active; 'I' for Inactive)
REMARK    1  A    between atoms: C_4  and  C_10 
REMARK    2  A    between atoms: C_18  and  C_7 
REMARK       I    between atoms: C_10  and  N_17 
REMARK    3  A    between atoms: N_17  and  C_20 
REMARK    4  A    between atoms: C_20  and  C_18 
ROOT
ATOM      1  C   UNL d   1      45.407  30.447  59.436  0.00  0.00     0.042 C 
ENDROOT
BRANCH   1   2
ATOM      2  C   UNL d   1      45.264  29.941  58.793  0.00  0.00     0.102 A 
ATOM      3  N   UNL d   1      45.405  29.134  58.780  0.00  0.00    -0.227 NA
ATOM      4  C   UNL d   1      45.190  28.843  58.047  0.00  0.00     0.148 A 
ATOM      5  N   UNL d   1      44.911  29.474  57.592  0.00  0.00    -0.288 N 
ATOM      6  C   UNL d   1      45.207  28.087  57.718  0.00  0.00     0.035 A 
ATOM      7  C   UNL d   1      44.958  30.157  58.060  0.00  0.00     0.101 A 
ATOM      8  C   UNL d   1      44.652  29.353  56.821  0.00  0.00     0.082 A 
ATOM      9  C   UNL d   1      44.670  28.600  56.500  0.00  0.00     0.019 A 
ATOM     10  C   UNL d   1      44.950  27.958  56.949  0.00  0.00     0.004 A 
ATOM     11  C   UNL d   1      45.487  27.441  58.168  0.00  0.00     0.003 C 
ENDBRANCH   1   2
BRANCH   1  12
ATOM     12  C   UNL d   1      45.017  30.322  60.155  0.00  0.00     0.104 C 
BRANCH  12  13
ATOM     13  N   UNL d   1      44.790  30.962  60.615  0.00  0.00    -0.205 NA
ATOM     14  C   UNL d   1      44.578  30.849  61.408  0.00  0.00     0.302 C 
ATOM     15  O   UNL d   1      44.354  31.487  61.859  0.00  0.00    -0.263 OA
BRANCH  14  16
ATOM     16  C   UNL d   1      44.596  30.088  61.730  0.00  0.00     0.158 A 
ATOM     17  O   UNL d   1      44.314  29.366  61.462  0.00  0.00    -0.296 OA
ATOM     18  C   UNL d   1      44.494  28.789  62.025  0.00  0.00     0.134 A 
ATOM     19 BR   UNL d   1      44.322  27.981  61.999  0.00  0.00    -0.022 Br
ATOM     20  C   UNL d   1      44.885  29.171  62.631  0.00  0.00     0.034 A 
ATOM     21  C   UNL d   1      44.954  29.968  62.462  0.00  0.00     0.032 A 
ENDBRANCH  14  16
ENDBRANCH  12  13
ENDBRANCH   1  12
TORSDOF 4
ENDMDL
