MODEL 1
REMARK VINA RESULT:      -3.0      0.000      0.000
REMARK  4 active torsions:
REMARK  status: ('A' for Active; 'I' for Inactive)
REMARK    1  A    between atoms: C_8  and  C_1 
REMARK    2  A    between atoms: C_10  and  C_5 
REMARK    3  A    between atoms: N_9  and  C_10 
REMARK    4  A    between atoms: O_19  and  C_14 
ROOT
ATOM      1  C   UNL d   1      56.978  -0.092  31.823  0.00  0.00     0.066 A 
ATOM      2  C   UNL d   1      57.695   0.293  31.958  0.00  0.00     0.200 A 
ATOM      3  C   UNL d   1      58.161  -0.098  30.665  0.00  0.00     0.108 A 
ATOM      4  C   UNL d   1      58.284   0.295  31.392  0.00  0.00     0.062 A 
ATOM      5  C   UNL d   1      58.756  -0.090  30.105  0.00  0.00     0.079 A 
ATOM      6  C   UNL d   1      56.855  -0.485  31.096  0.00  0.00     0.126 A 
ATOM      7  O   UNL d   1      57.438  -0.490  30.520  0.00  0.00    -0.305 OA
ATOM      8  C   UNL d   1      58.998   0.679  31.529  0.00  0.00     0.009 A 
ATOM      9  C   UNL d   1      59.467   0.289  30.234  0.00  0.00     0.199 A 
ATOM     10  O   UNL d   1      57.817   0.680  32.674  0.00  0.00    -0.286 OA
ATOM     11  C   UNL d   1      59.591   0.682  30.961  0.00  0.00     0.042 A 
ATOM     12  O   UNL d   1      60.054   0.294  29.677  0.00  0.00    -0.286 OA
ENDROOT
BRANCH   1  13
ATOM     13  C   UNL d   1      56.341  -0.093  32.438  0.00  0.00     0.027 A 
ATOM     14  C   UNL d   1      56.119  -0.845  32.839  0.00  0.00     0.094 A 
ATOM     15  C   UNL d   1      55.471  -0.855  33.468  0.00  0.00     0.024 A 
ATOM     16  C   UNL d   1      55.061  -0.088  33.674  0.00  0.00     0.002 A 
ATOM     17  C   UNL d   1      55.283   0.664  33.273  0.00  0.00     0.000 A 
ATOM     18  C   UNL d   1      55.923   0.676  32.652  0.00  0.00     0.002 A 
BRANCH  14  19
ATOM     19  O   UNL d   1      56.530  -1.612  32.633  0.00  0.00    -0.328 OA
ATOM     20  C   UNL d   1      56.201  -2.393  32.905  0.00  0.00     0.181 C 
ENDBRANCH  14  19
ENDBRANCH   1  13
BRANCH   5  21
ATOM     21  C   UNL d   1      58.633  -0.481  29.382  0.00  0.00     0.085 C 
BRANCH  21  22
ATOM     22  N   UNL d   1      58.995  -1.208  29.244  0.00  0.00    -0.302 N 
ATOM     23  C   UNL d   1      58.558  -1.897  29.304  0.00  0.00     0.080 A 
ATOM     24  C   UNL d   1      58.918  -2.618  29.166  0.00  0.00     0.019 A 
ATOM     25  C   UNL d   1      59.713  -2.659  28.968  0.00  0.00     0.003 A 
ATOM     26  C   UNL d   1      60.150  -1.970  28.908  0.00  0.00     0.019 A 
ATOM     27  C   UNL d   1      60.070  -3.378  28.832  0.00  0.00     0.000 C 
ATOM     28  C   UNL d   1      59.800  -1.251  29.043  0.00  0.00     0.080 A 
ENDBRANCH  21  22
ENDBRANCH   5  21
TORSDOF 4
ENDMDL
MODEL 2
REMARK VINA RESULT:      -0.2      1.276      4.541
REMARK  4 active torsions:
REMARK  status: ('A' for Active; 'I' for Inactive)
REMARK    1  A    between atoms: C_8  and  C_1 
REMARK    2  A    between atoms: C_10  and  C_5 
REMARK    3  A    between atoms: N_9  and  C_10 
REMARK    4  A    between atoms: O_19  and  C_14 
ROOT
ATOM      1  C   UNL d   1      59.121   0.084  30.361  0.00  0.00     0.066 A 
ATOM      2  C   UNL d   1      59.342   0.285  31.130  0.00  0.00     0.200 A 
ATOM      3  C   UNL d   1      57.972   0.278  31.537  0.00  0.00     0.108 A 
ATOM      4  C   UNL d   1      58.781   0.383  31.717  0.00  0.00     0.062 A 
ATOM      5  C   UNL d   1      57.418   0.377  32.129  0.00  0.00     0.079 A 
ATOM      6  C   UNL d   1      58.313  -0.021  30.181  0.00  0.00     0.126 A 
ATOM      7  O   UNL d   1      57.740   0.074  30.761  0.00  0.00    -0.305 OA
ATOM      8  C   UNL d   1      59.003   0.583  32.482  0.00  0.00     0.009 A 
ATOM      9  C   UNL d   1      57.632   0.577  32.892  0.00  0.00     0.199 A 
ATOM     10  O   UNL d   1      60.138   0.389  31.308  0.00  0.00    -0.286 OA
ATOM     11  C   UNL d   1      58.440   0.682  33.072  0.00  0.00     0.042 A 
ATOM     12  O   UNL d   1      57.080   0.674  33.476  0.00  0.00    -0.286 OA
ENDROOT
BRANCH   1  13
ATOM     13  C   UNL d   1      59.731  -0.022  29.728  0.00  0.00     0.027 A 
ATOM     14  C   UNL d   1      59.727  -0.749  29.231  0.00  0.00     0.094 A 
ATOM     15  C   UNL d   1      60.345  -0.865  28.583  0.00  0.00     0.024 A 
ATOM     16  C   UNL d   1      60.959  -0.228  28.457  0.00  0.00     0.002 A 
ATOM     17  C   UNL d   1      60.964   0.500  28.954  0.00  0.00     0.000 A 
ATOM     18  C   UNL d   1      60.354   0.616  29.595  0.00  0.00     0.002 A 
BRANCH  14  19
ATOM     19  O   UNL d   1      59.112  -1.386  29.357  0.00  0.00    -0.328 OA
ATOM     20  C   UNL d   1      59.237  -2.209  29.043  0.00  0.00     0.181 C 
ENDBRANCH  14  19
ENDBRANCH   1  13
BRANCH   5  21
ATOM     21  C   UNL d   1      56.614   0.273  31.950  0.00  0.00     0.085 C 
BRANCH  21  22
ATOM     22  N   UNL d   1      56.179  -0.305  32.345  0.00  0.00    -0.302 N 
ATOM     23  C   UNL d   1      55.594  -0.083  32.872  0.00  0.00     0.080 A 
ATOM     24  C   UNL d   1      55.163  -0.657  33.263  0.00  0.00     0.019 A 
ATOM     25  C   UNL d   1      55.310  -1.454  33.133  0.00  0.00     0.003 A 
ATOM     26  C   UNL d   1      55.894  -1.676  32.606  0.00  0.00     0.019 A 
ATOM     27  C   UNL d   1      54.879  -2.024  33.523  0.00  0.00     0.000 C 
ATOM     28  C   UNL d   1      56.327  -1.112  32.214  0.00  0.00     0.080 A 
ENDBRANCH  21  22
ENDBRANCH   5  21
TORSDOF 4
ENDMDL
MODEL 3
REMARK VINA RESULT:      -0.1      1.698      5.222
REMARK  4 active torsions:
REMARK  status: ('A' for Active; 'I' for Inactive)
REMARK    1  A    between atoms: C_8  and  C_1 
REMARK    2  A    between atoms: C_10  and  C_5 
REMARK    3  A    between atoms: N_9  and  C_10 
REMARK    4  A    between atoms: O_19  and  C_14 
ROOT
ATOM      1  C   UNL d   1      57.894  -0.177  30.893  0.00  0.00     0.066 A 
ATOM      2  C   UNL d   1      57.442  -0.838  31.092  0.00  0.00     0.200 A 
ATOM      3  C   UNL d   1      56.732  -0.072  32.067  0.00  0.00     0.108 A 
ATOM      4  C   UNL d   1      56.866  -0.795  31.670  0.00  0.00     0.062 A 
ATOM      5  C   UNL d   1      56.154  -0.039  32.643  0.00  0.00     0.079 A 
ATOM      6  C   UNL d   1      57.760   0.545  31.290  0.00  0.00     0.126 A 
ATOM      7  O   UNL d   1      57.185   0.602  31.872  0.00  0.00    -0.305 OA
ATOM      8  C   UNL d   1      56.417  -1.454  31.866  0.00  0.00     0.009 A 
ATOM      9  C   UNL d   1      55.704  -0.690  32.843  0.00  0.00     0.199 A 
ATOM     10  O   UNL d   1      57.574  -1.550  30.701  0.00  0.00    -0.286 OA
ATOM     11  C   UNL d   1      55.838  -1.412  32.447  0.00  0.00     0.042 A 
ATOM     12  O   UNL d   1      55.132  -0.653  33.415  0.00  0.00    -0.286 OA
ENDROOT
BRANCH   1  13
ATOM     13  C   UNL d   1      58.518  -0.227  30.266  0.00  0.00     0.027 A 
ATOM     14  C   UNL d   1      58.393   0.172  29.491  0.00  0.00     0.094 A 
ATOM     15  C   UNL d   1      59.023   0.126  28.846  0.00  0.00     0.024 A 
ATOM     16  C   UNL d   1      59.774  -0.330  29.010  0.00  0.00     0.002 A 
ATOM     17  C   UNL d   1      59.899  -0.728  29.786  0.00  0.00     0.000 A 
ATOM     18  C   UNL d   1      59.277  -0.684  30.424  0.00  0.00     0.002 A 
BRANCH  14  19
ATOM     19  O   UNL d   1      57.641   0.628  29.326  0.00  0.00    -0.328 OA
ATOM     20  C   UNL d   1      57.194   0.510  28.565  0.00  0.00     0.181 C 
ENDBRANCH  14  19
ENDBRANCH   1  13
BRANCH   5  21
ATOM     21  C   UNL d   1      56.020   0.680  33.038  0.00  0.00     0.085 C 
BRANCH  21  22
ATOM     22  N   UNL d   1      55.850   0.679  33.844  0.00  0.00    -0.302 N 
ATOM     23  C   UNL d   1      55.071   0.680  34.094  0.00  0.00     0.080 A 
ATOM     24  C   UNL d   1      54.903   0.679  34.894  0.00  0.00     0.019 A 
ATOM     25  C   UNL d   1      55.507   0.676  35.450  0.00  0.00     0.003 A 
ATOM     26  C   UNL d   1      56.286   0.675  35.199  0.00  0.00     0.019 A 
ATOM     27  C   UNL d   1      55.338   0.675  36.246  0.00  0.00     0.000 C 
ATOM     28  C   UNL d   1      56.460   0.676  34.407  0.00  0.00     0.080 A 
ENDBRANCH  21  22
ENDBRANCH   5  21
TORSDOF 4
ENDMDL
