MODEL 1
REMARK VINA RESULT:      63.8      0.000      0.000
REMARK  6 active torsions:
REMARK  status: ('A' for Active; 'I' for Inactive)
REMARK    1  A    between atoms: N_2  and  S_1 
REMARK    2  A    between atoms: C_3  and  S_1 
REMARK    3  A    between atoms: C_8  and  N_2 
REMARK    4  A    between atoms: C_6  and  O_7 
REMARK    5  A    between atoms: O_7  and  C_13 
REMARK    6  A    between atoms: O_16  and  C_10 
ROOT
ATOM      1  C   UNL d   1     -48.920  28.004  34.752  0.00  0.00     0.105 A 
ATOM      2  C   UNL d   1     -48.878  27.890  33.943  0.00  0.00     0.015 A 
ATOM      3  C   UNL d   1     -49.524  27.646  35.191  0.00  0.00     0.015 A 
ATOM      4  C   UNL d   1     -50.038  27.063  34.007  0.00  0.00     0.100 A 
ATOM      5  C   UNL d   1     -50.079  27.177  34.816  0.00  0.00     0.025 A 
ATOM      6  C   UNL d   1     -49.434  27.421  33.568  0.00  0.00     0.025 A 
ENDROOT
BRANCH   1   7
ATOM      7  S   UNL d   1     -48.354  28.480  35.124  0.00  0.00     0.285 S 
ATOM      8  O   UNL d   1     -48.459  28.709  35.910  0.00  0.00    -0.198 OA
ATOM      9  O   UNL d   1     -47.686  28.724  34.706  0.00  0.00    -0.198 OA
BRANCH   7  10
ATOM     10  N   UNL d   1     -47.692  28.943  35.309  0.00  0.00    -0.157 NA
BRANCH  10  11
ATOM     11  C   UNL d   1     -47.713  29.765  35.170  0.00  0.00     0.113 A 
ATOM     12  C   UNL d   1     -48.151  30.064  34.538  0.00  0.00     0.119 A 
ATOM     13  N   UNL d   1     -48.173  30.886  34.399  0.00  0.00    -0.241 NA
ATOM     14  C   UNL d   1     -47.752  31.399  34.900  0.00  0.00     0.099 A 
ATOM     15  C   UNL d   1     -47.312  31.093  35.537  0.00  0.00     0.022 A 
ATOM     16  C   UNL d   1     -47.297  30.276  35.666  0.00  0.00     0.023 A 
ENDBRANCH  10  11
ENDBRANCH   7  10
ENDBRANCH   1   7
BRANCH   4  17
ATOM     17  O   UNL d   1     -50.601  26.587  33.625  0.00  0.00    -0.305 OA
BRANCH  17  18
ATOM     18  C   UNL d   1     -50.465  25.777  33.520  0.00  0.00     0.122 A 
ATOM     19  C   UNL d   1     -51.100  25.257  33.483  0.00  0.00     0.117 A 
ATOM     20  C   UNL d   1     -50.962  24.450  33.378  0.00  0.00     0.026 A 
ATOM     21  C   UNL d   1     -50.195  24.170  33.311  0.00  0.00     0.002 A 
ATOM     22  C   UNL d   1     -49.558  24.694  33.348  0.00  0.00     0.002 A 
ATOM     23  C   UNL d   1     -49.696  25.500  33.453  0.00  0.00     0.027 A 
BRANCH  19  24
ATOM     24  O   UNL d   1     -51.864  25.545  33.551  0.00  0.00    -0.326 OA
ATOM     25  C   UNL d   1     -52.494  25.035  33.619  0.00  0.00     0.181 C 
ENDBRANCH  19  24
ENDBRANCH  17  18
ENDBRANCH   4  17
TORSDOF 6
ENDMDL
MODEL 2
REMARK VINA RESULT:      66.4      1.619      5.347
REMARK  6 active torsions:
REMARK  status: ('A' for Active; 'I' for Inactive)
REMARK    1  A    between atoms: N_2  and  S_1 
REMARK    2  A    between atoms: C_3  and  S_1 
REMARK    3  A    between atoms: C_8  and  N_2 
REMARK    4  A    between atoms: C_6  and  O_7 
REMARK    5  A    between atoms: O_7  and  C_13 
REMARK    6  A    between atoms: O_16  and  C_10 
ROOT
ATOM      1  C   UNL d   1     -49.704  27.433  34.536  0.00  0.00     0.105 A 
ATOM      2  C   UNL d   1     -49.071  27.757  34.131  0.00  0.00     0.015 A 
ATOM      3  C   UNL d   1     -49.765  27.530  35.356  0.00  0.00     0.015 A 
ATOM      4  C   UNL d   1     -48.560  28.273  35.358  0.00  0.00     0.100 A 
ATOM      5  C   UNL d   1     -49.192  27.949  35.762  0.00  0.00     0.025 A 
ATOM      6  C   UNL d   1     -48.499  28.176  34.538  0.00  0.00     0.025 A 
ENDROOT
BRANCH   1   7
ATOM      7  S   UNL d   1     -50.279  27.010  34.117  0.00  0.00     0.285 S 
ATOM      8  O   UNL d   1     -50.967  26.759  34.500  0.00  0.00    -0.198 OA
ATOM      9  O   UNL d   1     -50.163  26.840  33.319  0.00  0.00    -0.198 OA
BRANCH   7  10
ATOM     10  N   UNL d   1     -50.720  26.611  33.540  0.00  0.00    -0.157 NA
BRANCH  10  11
ATOM     11  C   UNL d   1     -50.705  25.778  33.512  0.00  0.00     0.113 A 
ATOM     12  C   UNL d   1     -50.001  25.386  33.334  0.00  0.00     0.119 A 
ATOM     13  N   UNL d   1     -49.985  24.553  33.306  0.00  0.00    -0.241 NA
ATOM     14  C   UNL d   1     -50.681  24.123  33.458  0.00  0.00     0.099 A 
ATOM     15  C   UNL d   1     -51.388  24.523  33.638  0.00  0.00     0.022 A 
ATOM     16  C   UNL d   1     -51.393  25.350  33.663  0.00  0.00     0.023 A 
ENDBRANCH  10  11
ENDBRANCH   7  10
ENDBRANCH   1   7
BRANCH   4  17
ATOM     17  O   UNL d   1     -47.977  28.699  35.769  0.00  0.00    -0.305 OA
BRANCH  17  18
ATOM     18  C   UNL d   1     -47.807  29.484  35.562  0.00  0.00     0.122 A 
ATOM     19  C   UNL d   1     -47.289  29.924  36.024  0.00  0.00     0.117 A 
ATOM     20  C   UNL d   1     -47.121  30.705  35.817  0.00  0.00     0.026 A 
ATOM     21  C   UNL d   1     -47.470  31.039  35.155  0.00  0.00     0.002 A 
ATOM     22  C   UNL d   1     -47.991  30.595  34.692  0.00  0.00     0.002 A 
ATOM     23  C   UNL d   1     -48.159  29.814  34.899  0.00  0.00     0.027 A 
BRANCH  19  24
ATOM     24  O   UNL d   1     -46.944  29.583  36.684  0.00  0.00    -0.326 OA
ATOM     25  C   UNL d   1     -46.891  29.996  37.383  0.00  0.00     0.181 C 
ENDBRANCH  19  24
ENDBRANCH  17  18
ENDBRANCH   4  17
TORSDOF 6
ENDMDL
