MODEL 1
REMARK VINA RESULT:      55.6      0.000      0.000
REMARK  4 active torsions:
REMARK  status: ('A' for Active; 'I' for Inactive)
REMARK    1  A    between atoms: S_3  and  N_1 
REMARK    2  A    between atoms: C_7  and  C_4 
REMARK    3  A    between atoms: C_12  and  C_5 
REMARK    4  A    between atoms: O_24  and  C_21 
ROOT
ATOM      1  N   UNL d   1      46.028 -18.853  40.832  0.00  0.00    -0.155 N 
ATOM      2  N   UNL d   1      45.835 -18.617  40.078  0.00  0.00    -0.156 NA
ATOM      3  C   UNL d   1      45.868 -18.240  41.341  0.00  0.00     0.096 A 
ATOM      4  C   UNL d   1      45.554 -17.854  40.119  0.00  0.00     0.103 A 
ATOM      5  C   UNL d   1      45.570 -17.612  40.898  0.00  0.00     0.041 A 
ENDROOT
BRANCH   3   6
ATOM      6  C   UNL d   1      45.981 -18.242  42.159  0.00  0.00     0.020 A 
ATOM      7  C   UNL d   1      46.206 -18.937  42.542  0.00  0.00     0.022 A 
ATOM      8  C   UNL d   1      46.320 -18.938  43.359  0.00  0.00     0.099 A 
ATOM      9  N   UNL d   1      46.545 -19.633  43.743  0.00  0.00    -0.241 NA
ATOM     10  C   UNL d   1      46.209 -18.249  43.789  0.00  0.00     0.099 A 
ATOM     11  C   UNL d   1      46.645 -19.607  44.513  0.00  0.00     0.120 A 
ATOM     12  C   UNL d   1      46.534 -18.918  44.943  0.00  0.00     0.120 A 
ATOM     13  N   UNL d   1      46.323 -18.251  44.607  0.00  0.00    -0.241 NA
ATOM     14  C   UNL d   1      45.984 -17.555  43.406  0.00  0.00     0.021 A 
ATOM     15  C   UNL d   1      45.871 -17.553  42.589  0.00  0.00     0.003 A 
ENDBRANCH   3   6
BRANCH   1  16
ATOM     16  S   UNL d   1      46.331 -19.579  41.051  0.00  0.00     0.266 S 
ATOM     17  O   UNL d   1      46.006 -19.483  41.821  0.00  0.00    -0.203 OA
ATOM     18  O   UNL d   1      46.644 -20.327  41.277  0.00  0.00    -0.203 OA
ATOM     19  C   UNL d   1      46.647 -19.676  40.308  0.00  0.00     0.165 C 
ENDBRANCH   1  16
BRANCH   4  20
ATOM     20  C   UNL d   1      45.297 -17.402  39.494  0.00  0.00     0.020 A 
ATOM     21  C   UNL d   1      44.528 -17.158  39.440  0.00  0.00     0.004 A 
ATOM     22  C   UNL d   1      44.255 -16.692  38.799  0.00  0.00     0.024 A 
ATOM     23  C   UNL d   1      44.793 -16.478  38.205  0.00  0.00     0.094 A 
ATOM     24  C   UNL d   1      45.581 -16.736  38.272  0.00  0.00     0.024 A 
ATOM     25  C   UNL d   1      45.832 -17.186  38.897  0.00  0.00     0.004 A 
BRANCH  23  26
ATOM     26  O   UNL d   1      44.555 -16.042  37.597  0.00  0.00    -0.328 OA
ATOM     27  C   UNL d   1      45.104 -15.604  37.156  0.00  0.00     0.181 C 
ENDBRANCH  23  26
ENDBRANCH   4  20
TORSDOF 4
ENDMDL
MODEL 2
REMARK VINA RESULT:      57.7      2.354      5.805
REMARK  4 active torsions:
REMARK  status: ('A' for Active; 'I' for Inactive)
REMARK    1  A    between atoms: S_3  and  N_1 
REMARK    2  A    between atoms: C_7  and  C_4 
REMARK    3  A    between atoms: C_12  and  C_5 
REMARK    4  A    between atoms: O_24  and  C_21 
ROOT
ATOM      1  N   UNL d   1      44.755 -16.585  38.107  0.00  0.00    -0.155 N 
ATOM      2  N   UNL d   1      44.685 -17.154  38.685  0.00  0.00    -0.156 NA
ATOM      3  C   UNL d   1      45.468 -16.208  38.205  0.00  0.00     0.096 A 
ATOM      4  C   UNL d   1      45.359 -17.129  39.143  0.00  0.00     0.103 A 
ATOM      5  C   UNL d   1      45.849 -16.545  38.852  0.00  0.00     0.041 A 
ENDROOT
BRANCH   3   6
ATOM      6  C   UNL d   1      45.762 -15.593  37.739  0.00  0.00     0.020 A 
ATOM      7  C   UNL d   1      45.586 -14.810  37.930  0.00  0.00     0.022 A 
ATOM      8  C   UNL d   1      45.881 -14.196  37.465  0.00  0.00     0.099 A 
ATOM      9  N   UNL d   1      45.705 -13.413  37.656  0.00  0.00    -0.241 NA
ATOM     10  C   UNL d   1      46.348 -14.364  36.812  0.00  0.00     0.099 A 
ATOM     11  C   UNL d   1      45.995 -12.854  37.201  0.00  0.00     0.120 A 
ATOM     12  C   UNL d   1      46.462 -13.021  36.549  0.00  0.00     0.120 A 
ATOM     13  N   UNL d   1      46.643 -13.749  36.347  0.00  0.00    -0.241 NA
ATOM     14  C   UNL d   1      46.524 -15.147  36.622  0.00  0.00     0.021 A 
ATOM     15  C   UNL d   1      46.230 -15.760  37.086  0.00  0.00     0.003 A 
ENDBRANCH   3   6
BRANCH   1  16
ATOM     16  S   UNL d   1      44.208 -16.415  37.525  0.00  0.00     0.266 S 
ATOM     17  O   UNL d   1      43.890 -15.800  38.004  0.00  0.00    -0.203 OA
ATOM     18  O   UNL d   1      43.645 -16.240  36.925  0.00  0.00    -0.203 OA
ATOM     19  C   UNL d   1      44.513 -17.009  37.061  0.00  0.00     0.165 C 
ENDBRANCH   1  16
BRANCH   4  20
ATOM     20  C   UNL d   1      45.522 -17.602  39.783  0.00  0.00     0.020 A 
ATOM     21  C   UNL d   1      45.112 -17.526  40.477  0.00  0.00     0.004 A 
ATOM     22  C   UNL d   1      45.274 -18.010  41.142  0.00  0.00     0.024 A 
ATOM     23  C   UNL d   1      45.872 -18.582  41.083  0.00  0.00     0.094 A 
ATOM     24  C   UNL d   1      46.285 -18.649  40.363  0.00  0.00     0.024 A 
ATOM     25  C   UNL d   1      46.119 -18.175  39.728  0.00  0.00     0.004 A 
BRANCH  23  26
ATOM     26  O   UNL d   1      46.037 -19.044  41.695  0.00  0.00    -0.328 OA
ATOM     27  C   UNL d   1      46.457 -18.745  42.345  0.00  0.00     0.181 C 
ENDBRANCH  23  26
ENDBRANCH   4  20
TORSDOF 4
ENDMDL
