MODEL 1
REMARK VINA RESULT:      -4.8      0.000      0.000
REMARK  4 active torsions:
REMARK  status: ('A' for Active; 'I' for Inactive)
REMARK    1  A    between atoms: N_3  and  C_1 
REMARK    2  A    between atoms: C_4  and  C_2 
REMARK       I    between atoms: C_6  and  N_3 
REMARK    3  A    between atoms: C_11  and  C_6 
REMARK    4  A    between atoms: C_13  and  C_11 
ROOT
ATOM      1  N   UNL d   1      58.747   0.673  30.989  0.00  0.00    -0.201 NA
ATOM      2  C   UNL d   1      58.147   0.556  31.532  0.00  0.00     0.280 C 
ATOM      3  O   UNL d   1      58.300   0.668  32.342  0.00  0.00    -0.265 OA
ENDROOT
BRANCH   2   4
ATOM      4  C   UNL d   1      57.396   0.329  31.296  0.00  0.00     0.062 C 
BRANCH   4   5
ATOM      5  C   UNL d   1      56.844   0.064  31.845  0.00  0.00     0.005 A 
ATOM      6  C   UNL d   1      56.771  -0.746  32.006  0.00  0.00     0.003 A 
ATOM      7  C   UNL d   1      56.215  -1.005  32.559  0.00  0.00     0.030 A 
ATOM      8  C   UNL d   1      55.732  -0.464  32.951  0.00  0.00     0.140 A 
ATOM      9  C   UNL d   1      55.806   0.333  32.790  0.00  0.00     0.030 A 
ATOM     10  F   UNL d   1      55.184  -0.735  33.496  0.00  0.00    -0.204 F 
ATOM     11  C   UNL d   1      56.356   0.610  32.241  0.00  0.00     0.003 A 
ENDBRANCH   4   5
ENDBRANCH   2   4
BRANCH   1  12
ATOM     12  C   UNL d   1      58.590   0.560  30.188  0.00  0.00     0.119 A 
ATOM     13  C   UNL d   1      59.134   0.304  29.629  0.00  0.00     0.084 A 
ATOM     14  C   UNL d   1      58.748   0.267  28.900  0.00  0.00     0.014 A 
ATOM     15  C   UNL d   1      57.959   0.504  29.015  0.00  0.00     0.037 A 
ATOM     16  S   UNL d   1      57.875   0.682  29.813  0.00  0.00    -0.067 SA
BRANCH  13  17
ATOM     17  C   UNL d   1      59.926   0.114  29.763  0.00  0.00     0.299 C 
ATOM     18  O   UNL d   1      60.448   0.682  30.047  0.00  0.00    -0.264 OA
ATOM     19  N   UNL d   1      60.193  -0.655  29.609  0.00  0.00    -0.102 N 
ENDBRANCH  13  17
ENDBRANCH   1  12
TORSDOF 4
ENDMDL
MODEL 2
REMARK VINA RESULT:      -4.4      1.373      1.738
REMARK  4 active torsions:
REMARK  status: ('A' for Active; 'I' for Inactive)
REMARK    1  A    between atoms: N_3  and  C_1 
REMARK    2  A    between atoms: C_4  and  C_2 
REMARK       I    between atoms: C_6  and  N_3 
REMARK    3  A    between atoms: C_11  and  C_6 
REMARK    4  A    between atoms: C_13  and  C_11 
ROOT
ATOM      1  N   UNL d   1      57.525  -0.734  30.790  0.00  0.00    -0.201 NA
ATOM      2  C   UNL d   1      57.002  -0.703  31.418  0.00  0.00     0.280 C 
ATOM      3  O   UNL d   1      56.385  -1.259  31.466  0.00  0.00    -0.265 OA
ENDROOT
BRANCH   2   4
ATOM      4  C   UNL d   1      57.073  -0.135  32.004  0.00  0.00     0.062 C 
BRANCH   4   5
ATOM      5  C   UNL d   1      56.487  -0.042  32.574  0.00  0.00     0.005 A 
ATOM      6  C   UNL d   1      55.955   0.593  32.526  0.00  0.00     0.003 A 
ATOM      7  C   UNL d   1      55.370   0.679  33.101  0.00  0.00     0.030 A 
ATOM      8  C   UNL d   1      55.309   0.141  33.722  0.00  0.00     0.140 A 
ATOM      9  C   UNL d   1      55.834  -0.484  33.767  0.00  0.00     0.030 A 
ATOM     10  F   UNL d   1      54.724   0.239  34.285  0.00  0.00    -0.204 F 
ATOM     11  C   UNL d   1      56.426  -0.586  33.201  0.00  0.00     0.003 A 
ENDBRANCH   4   5
ENDBRANCH   2   4
BRANCH   1  12
ATOM     12  C   UNL d   1      58.135  -0.181  30.748  0.00  0.00     0.119 A 
ATOM     13  C   UNL d   1      58.459   0.117  30.055  0.00  0.00     0.084 A 
ATOM     14  C   UNL d   1      59.052   0.653  30.264  0.00  0.00     0.014 A 
ATOM     15  C   UNL d   1      59.090   0.682  31.094  0.00  0.00     0.037 A 
ATOM     16  S   UNL d   1      58.520   0.163  31.380  0.00  0.00    -0.067 SA
BRANCH  13  17
ATOM     17  C   UNL d   1      58.237  -0.078  29.284  0.00  0.00     0.299 C 
ATOM     18  O   UNL d   1      57.705   0.393  28.872  0.00  0.00    -0.264 OA
ATOM     19  N   UNL d   1      58.557  -0.755  28.927  0.00  0.00    -0.102 N 
ENDBRANCH  13  17
ENDBRANCH   1  12
TORSDOF 4
ENDMDL
MODEL 3
REMARK VINA RESULT:      -3.7      2.394      4.221
REMARK  4 active torsions:
REMARK  status: ('A' for Active; 'I' for Inactive)
REMARK    1  A    between atoms: N_3  and  C_1 
REMARK    2  A    between atoms: C_4  and  C_2 
REMARK       I    between atoms: C_6  and  N_3 
REMARK    3  A    between atoms: C_11  and  C_6 
REMARK    4  A    between atoms: C_13  and  C_11 
ROOT
ATOM      1  N   UNL d   1      57.004  -0.971  31.519  0.00  0.00    -0.201 NA
ATOM      2  C   UNL d   1      57.490  -0.767  30.894  0.00  0.00     0.280 C 
ATOM      3  O   UNL d   1      57.628  -1.317  30.285  0.00  0.00    -0.265 OA
ENDROOT
BRANCH   2   4
ATOM      4  C   UNL d   1      57.845  -0.030  30.854  0.00  0.00     0.062 C 
BRANCH   4   5
ATOM      5  C   UNL d   1      58.380   0.148  30.255  0.00  0.00     0.005 A 
ATOM      6  C   UNL d   1      59.196   0.099  30.396  0.00  0.00     0.003 A 
ATOM      7  C   UNL d   1      59.727   0.279  29.790  0.00  0.00     0.030 A 
ATOM      8  C   UNL d   1      59.453   0.507  29.047  0.00  0.00     0.140 A 
ATOM      9  C   UNL d   1      58.649   0.554  28.911  0.00  0.00     0.030 A 
ATOM     10  F   UNL d   1      59.991   0.682  28.455  0.00  0.00    -0.204 F 
ATOM     11  C   UNL d   1      58.104   0.378  29.504  0.00  0.00     0.003 A 
ENDBRANCH   4   5
ENDBRANCH   2   4
BRANCH   1  12
ATOM     12  C   UNL d   1      56.871  -0.423  32.120  0.00  0.00     0.119 A 
ATOM     13  C   UNL d   1      56.370  -0.533  32.761  0.00  0.00     0.084 A 
ATOM     14  C   UNL d   1      56.400   0.149  33.225  0.00  0.00     0.014 A 
ATOM     15  C   UNL d   1      56.926   0.682  32.863  0.00  0.00     0.037 A 
ATOM     16  S   UNL d   1      57.209   0.317  32.183  0.00  0.00    -0.067 SA
BRANCH  13  17
ATOM     17  C   UNL d   1      55.914  -1.203  32.920  0.00  0.00     0.299 C 
ATOM     18  O   UNL d   1      56.271  -1.936  33.020  0.00  0.00    -0.264 OA
ATOM     19  N   UNL d   1      55.091  -1.130  32.980  0.00  0.00    -0.102 N 
ENDBRANCH  13  17
ENDBRANCH   1  12
TORSDOF 4
ENDMDL
