MODEL 1
REMARK VINA RESULT:      36.5      0.000      0.000
REMARK  8 active torsions:
REMARK  status: ('A' for Active; 'I' for Inactive)
REMARK    1  A    between atoms: C_16  and  N_1 
REMARK    2  A    between atoms: S_7  and  C_2 
REMARK       I    between atoms: C_6  and  N_12 
REMARK    3  A    between atoms: C_9  and  C_6 
REMARK    4  A    between atoms: C_13  and  S_7 
REMARK    5  A    between atoms: C_8  and  C_13 
REMARK    6  A    between atoms: N_12  and  C_22 
REMARK    7  A    between atoms: C_22  and  C_16 
REMARK    8  A    between atoms: O_24  and  C_18 
ROOT
ATOM      1  N   UNL d   1      44.753 -16.549  38.112  0.00  0.00    -0.302 N 
ATOM      2  C   UNL d   1      45.235 -15.745  37.156  0.00  0.00     0.049 A 
ATOM      3  C   UNL d   1      45.447 -16.204  37.810  0.00  0.00     0.087 A 
ATOM      4  C   UNL d   1      44.411 -15.803  37.048  0.00  0.00     0.024 A 
ATOM      5  C   UNL d   1      44.115 -16.304  37.645  0.00  0.00     0.065 A 
ATOM      6  C   UNL d   1      43.892 -15.477  36.500  0.00  0.00     0.002 A 
ATOM      7  C   UNL d   1      43.301 -16.469  37.682  0.00  0.00     0.018 A 
ATOM      8  C   UNL d   1      43.090 -15.638  36.535  0.00  0.00     0.000 A 
ATOM      9  C   UNL d   1      42.794 -16.139  37.132  0.00  0.00     0.002 A 
ENDROOT
BRANCH   1  10
ATOM     10  C   UNL d   1      44.710 -17.050  38.766  0.00  0.00     0.101 C 
BRANCH  10  11
ATOM     11  C   UNL d   1      45.364 -17.504  38.985  0.00  0.00     0.121 C 
BRANCH  11  12
ATOM     12  N   UNL d   1      45.497 -17.684  39.779  0.00  0.00    -0.205 NA
ATOM     13  C   UNL d   1      46.083 -18.223  39.986  0.00  0.00     0.279 C 
ATOM     14  O   UNL d   1      46.540 -18.586  39.402  0.00  0.00    -0.265 OA
BRANCH  13  15
ATOM     15  C   UNL d   1      46.217 -18.404  40.779  0.00  0.00     0.058 A 
ATOM     16  C   UNL d   1      46.492 -19.165  40.994  0.00  0.00     0.007 A 
ATOM     17  C   UNL d   1      46.626 -19.346  41.787  0.00  0.00     0.024 A 
ATOM     18  C   UNL d   1      46.484 -18.766  42.363  0.00  0.00     0.094 A 
ATOM     19  C   UNL d   1      46.214 -18.017  42.149  0.00  0.00     0.024 A 
ATOM     20  C   UNL d   1      46.082 -17.842  41.363  0.00  0.00     0.007 A 
BRANCH  18  21
ATOM     21  O   UNL d   1      46.617 -18.938  43.172  0.00  0.00    -0.328 OA
ATOM     22  C   UNL d   1      45.988 -19.035  43.704  0.00  0.00     0.181 C 
ENDBRANCH  18  21
ENDBRANCH  13  15
ENDBRANCH  11  12
ENDBRANCH  10  11
ENDBRANCH   1  10
BRANCH   2  23
ATOM     23  S   UNL d   1      45.746 -15.302  36.684  0.00  0.00    -0.080 SA
BRANCH  23  24
ATOM     24  C   UNL d   1      46.374 -14.887  37.030  0.00  0.00     0.100 C 
BRANCH  24  25
ATOM     25  C   UNL d   1      46.393 -14.066  37.012  0.00  0.00     0.303 C 
ATOM     26  O   UNL d   1      46.157 -13.667  36.330  0.00  0.00    -0.263 OA
ATOM     27  N   UNL d   1      46.646 -13.641  37.672  0.00  0.00    -0.102 N 
ENDBRANCH  24  25
ENDBRANCH  23  24
ENDBRANCH   2  23
TORSDOF 8
ENDMDL
MODEL 2
REMARK VINA RESULT:      38.1      2.147      6.022
REMARK  8 active torsions:
REMARK  status: ('A' for Active; 'I' for Inactive)
REMARK    1  A    between atoms: C_16  and  N_1 
REMARK    2  A    between atoms: S_7  and  C_2 
REMARK       I    between atoms: C_6  and  N_12 
REMARK    3  A    between atoms: C_9  and  C_6 
REMARK    4  A    between atoms: C_13  and  S_7 
REMARK    5  A    between atoms: C_8  and  C_13 
REMARK    6  A    between atoms: N_12  and  C_22 
REMARK    7  A    between atoms: C_22  and  C_16 
REMARK    8  A    between atoms: O_24  and  C_18 
ROOT
ATOM      1  N   UNL d   1      46.417 -18.167  41.581  0.00  0.00    -0.302 N 
ATOM      2  C   UNL d   1      46.265 -18.032  42.905  0.00  0.00     0.049 A 
ATOM      3  C   UNL d   1      46.284 -17.616  42.191  0.00  0.00     0.087 A 
ATOM      4  C   UNL d   1      46.385 -18.840  42.744  0.00  0.00     0.024 A 
ATOM      5  C   UNL d   1      46.480 -18.920  41.920  0.00  0.00     0.065 A 
ATOM      6  C   UNL d   1      46.423 -19.509  43.221  0.00  0.00     0.002 A 
ATOM      7  C   UNL d   1      46.610 -19.671  41.588  0.00  0.00     0.018 A 
ATOM      8  C   UNL d   1      46.551 -20.249  42.896  0.00  0.00     0.000 A 
ATOM      9  C   UNL d   1      46.645 -20.329  42.072  0.00  0.00     0.002 A 
ENDROOT
BRANCH   1  10
ATOM     10  C   UNL d   1      46.477 -17.990  40.778  0.00  0.00     0.101 C 
BRANCH  10  11
ATOM     11  C   UNL d   1      45.796 -17.854  40.332  0.00  0.00     0.121 C 
BRANCH  11  12
ATOM     12  N   UNL d   1      45.824 -17.362  39.670  0.00  0.00    -0.205 NA
ATOM     13  C   UNL d   1      45.148 -17.240  39.218  0.00  0.00     0.279 C 
ATOM     14  O   UNL d   1      44.438 -17.608  39.423  0.00  0.00    -0.265 OA
BRANCH  13  15
ATOM     15  C   UNL d   1      45.176 -16.747  38.557  0.00  0.00     0.058 A 
ATOM     16  C   UNL d   1      44.514 -16.694  38.048  0.00  0.00     0.007 A 
ATOM     17  C   UNL d   1      44.541 -16.202  37.387  0.00  0.00     0.024 A 
ATOM     18  C   UNL d   1      45.231 -15.766  37.236  0.00  0.00     0.094 A 
ATOM     19  C   UNL d   1      45.882 -15.821  37.739  0.00  0.00     0.024 A 
ATOM     20  C   UNL d   1      45.851 -16.309  38.392  0.00  0.00     0.007 A 
BRANCH  18  21
ATOM     21  O   UNL d   1      45.271 -15.263  36.567  0.00  0.00    -0.328 OA
ATOM     22  C   UNL d   1      45.819 -14.644  36.522  0.00  0.00     0.181 C 
ENDBRANCH  18  21
ENDBRANCH  13  15
ENDBRANCH  11  12
ENDBRANCH  10  11
ENDBRANCH   1  10
BRANCH   2  23
ATOM     23  S   UNL d   1      46.147 -17.709  43.655  0.00  0.00    -0.080 SA
BRANCH  23  24
ATOM     24  C   UNL d   1      45.976 -16.902  43.736  0.00  0.00     0.100 C 
BRANCH  24  25
ATOM     25  C   UNL d   1      45.743 -16.596  44.462  0.00  0.00     0.303 C 
ATOM     26  O   UNL d   1      46.195 -16.008  44.821  0.00  0.00    -0.263 OA
ATOM     27  N   UNL d   1      45.060 -16.874  44.830  0.00  0.00    -0.102 N 
ENDBRANCH  24  25
ENDBRANCH  23  24
ENDBRANCH   2  23
TORSDOF 8
ENDMDL
