MODEL 1
REMARK VINA RESULT:      42.1      0.000      0.000
REMARK  6 active torsions:
REMARK  status: ('A' for Active; 'I' for Inactive)
REMARK    1  A    between atoms: S_3  and  C_1 
REMARK    2  A    between atoms: C_11  and  S_3 
REMARK    3  A    between atoms: N_8  and  C_4 
REMARK    4  A    between atoms: C_7  and  C_5 
REMARK    5  A    between atoms: C_18  and  N_8 
REMARK    6  A    between atoms: C_17  and  C_18 
ROOT
ATOM      1  C   UNL d   1      13.642  13.308  -3.476  0.00  0.00     0.212 A 
ATOM      2  N   UNL d   1      13.590  13.100  -4.270  0.00  0.00    -0.205 NA
ATOM      3  C   UNL d   1      13.390  12.665  -3.024  0.00  0.00     0.213 A 
ATOM      4  C   UNL d   1      13.306  12.326  -4.311  0.00  0.00     0.208 A 
ATOM      5  O   UNL d   1      13.183  12.059  -3.545  0.00  0.00    -0.267 OA
ENDROOT
BRANCH   1   6
ATOM      6  S   UNL d   1      13.910  14.056  -3.256  0.00  0.00     0.230 S 
ATOM      7  O   UNL d   1      13.462  14.727  -3.419  0.00  0.00    -0.215 OA
ATOM      8  O   UNL d   1      14.640  14.135  -2.865  0.00  0.00    -0.215 OA
BRANCH   6   9
ATOM      9  C   UNL d   1      14.186  14.800  -3.033  0.00  0.00     0.090 A 
ATOM     10  C   UNL d   1      14.424  14.940  -2.252  0.00  0.00     0.011 A 
ATOM     11  C   UNL d   1      14.700  15.688  -2.031  0.00  0.00     0.001 A 
ATOM     12  C   UNL d   1      14.739  16.297  -2.594  0.00  0.00     0.000 A 
ATOM     13  C   UNL d   1      14.501  16.158  -3.375  0.00  0.00     0.001 A 
ATOM     14  C   UNL d   1      14.224  15.404  -3.590  0.00  0.00     0.011 A 
ENDBRANCH   6   9
ENDBRANCH   1   6
BRANCH   3  15
ATOM     15  N   UNL d   1      13.351  12.631  -2.199  0.00  0.00    -0.219 NA
BRANCH  15  16
ATOM     16  C   UNL d   1      13.504  11.928  -1.803  0.00  0.00     0.103 C 
BRANCH  16  17
ATOM     17  C   UNL d   1      14.168  11.879  -1.318  0.00  0.00     0.038 A 
ATOM     18  C   UNL d   1      14.924  11.832  -1.650  0.00  0.00     0.101 A 
ATOM     19  N   UNL d   1      15.585  11.784  -1.161  0.00  0.00    -0.242 NA
ATOM     20  C   UNL d   1      15.484  11.782  -0.346  0.00  0.00     0.099 A 
ATOM     21  C   UNL d   1      14.736  11.829  -0.015  0.00  0.00     0.021 A 
ATOM     22  C   UNL d   1      14.071  11.878  -0.504  0.00  0.00     0.005 A 
ENDBRANCH  16  17
ENDBRANCH  15  16
ENDBRANCH   3  15
BRANCH   4  23
ATOM     23  C   UNL d   1      13.255  12.119  -5.100  0.00  0.00     0.141 A 
ATOM     24  O   UNL d   1      12.769  11.780  -5.669  0.00  0.00    -0.302 OA
ATOM     25  C   UNL d   1      13.172  11.780  -6.388  0.00  0.00     0.123 A 
ATOM     26  C   UNL d   1      13.913  12.122  -6.258  0.00  0.00     0.029 A 
ATOM     27  C   UNL d   1      13.964  12.330  -5.465  0.00  0.00     0.030 A 
ENDBRANCH   4  23
TORSDOF 6
ENDMDL
