MODEL 1
REMARK VINA RESULT:      26.6      0.000      0.000
REMARK  8 active torsions:
REMARK  status: ('A' for Active; 'I' for Inactive)
REMARK    1  A    between atoms: C_22  and  N_1 
REMARK       I    between atoms: N_8  and  C_12 
REMARK    2  A    between atoms: C_12  and  C_27 
REMARK    3  A    between atoms: C_23  and  N_13 
REMARK    4  A    between atoms: C_30  and  C_22 
REMARK    5  A    between atoms: C_26  and  C_23 
REMARK    6  A    between atoms: C_27  and  C_31 
REMARK    7  A    between atoms: C_32  and  C_30 
REMARK    8  A    between atoms: C_31  and  C_32 
ROOT
ATOM      1  C   UNL d   1     -42.404-121.473 -52.910  0.00  0.00     0.002 C 
ENDROOT
BRANCH   1   2
ATOM      2  C   UNL d   1     -42.296-122.240 -52.611  0.00  0.00     0.005 C 
BRANCH   2   3
ATOM      3  C   UNL d   1     -41.601-122.432 -52.200  0.00  0.00     0.061 C 
BRANCH   3   4
ATOM      4  C   UNL d   1     -41.434-122.053 -51.477  0.00  0.00     0.265 C 
ATOM      5  N   UNL d   1     -41.362-122.496 -50.775  0.00  0.00    -0.269 N 
ATOM      6  C   UNL d   1     -41.197-122.114 -50.064  0.00  0.00     0.102 A 
ATOM      7  C   UNL d   1     -41.456-123.314 -50.788  0.00  0.00     0.102 A 
ATOM      8  C   UNL d   1     -41.125-122.552 -49.364  0.00  0.00     0.100 A 
ATOM      9  N   UNL d   1     -41.219-123.370 -49.378  0.00  0.00    -0.300 N 
ATOM     10  C   UNL d   1     -41.385-123.752 -50.088  0.00  0.00     0.100 A 
ATOM     11  O   UNL d   1     -41.337-121.232 -51.453  0.00  0.00    -0.267 OA
BRANCH   9  12
ATOM     12  C   UNL d   1     -41.148-123.806 -48.681  0.00  0.00     0.080 C 
BRANCH  12  13
ATOM     13  C   UNL d   1     -41.642-123.646 -48.042  0.00  0.00     0.018 A 
ATOM     14  C   UNL d   1     -42.446-123.816 -48.093  0.00  0.00     0.002 A 
ATOM     15  C   UNL d   1     -42.947-123.657 -47.451  0.00  0.00     0.000 A 
ATOM     16  C   UNL d   1     -42.637-123.327 -46.761  0.00  0.00     0.000 A 
ATOM     17  C   UNL d   1     -41.826-123.157 -46.713  0.00  0.00     0.000 A 
ATOM     18  C   UNL d   1     -41.332-123.316 -47.352  0.00  0.00     0.002 A 
ENDBRANCH  12  13
ENDBRANCH   9  12
ENDBRANCH   3   4
ENDBRANCH   2   3
ENDBRANCH   1   2
BRANCH   1  19
ATOM     19  C   UNL d   1     -42.263-121.311 -53.708  0.00  0.00     0.019 C 
BRANCH  19  20
ATOM     20  C   UNL d   1     -42.103-121.921 -54.237  0.00  0.00     0.085 C 
BRANCH  20  21
ATOM     21  N   UNL d   1     -42.124-121.778 -55.052  0.00  0.00    -0.249 N 
ATOM     22  C   UNL d   1     -41.755-121.104 -55.368  0.00  0.00     0.268 A 
ATOM     23  C   UNL d   1     -41.778-120.964 -56.179  0.00  0.00     0.076 A 
ATOM     24  O   UNL d   1     -41.366-120.576 -54.868  0.00  0.00    -0.267 OA
ATOM     25  C   UNL d   1     -41.411-120.294 -56.489  0.00  0.00     0.033 A 
ATOM     26  C   UNL d   1     -42.167-121.492 -56.680  0.00  0.00     0.090 A 
ATOM     27  C   UNL d   1     -41.433-120.152 -57.303  0.00  0.00     0.119 A 
ATOM     28  O   UNL d   1     -41.123-119.543 -57.765  0.00  0.00    -0.300 OA
ATOM     29  C   UNL d   1     -41.821-120.680 -57.804  0.00  0.00     0.121 A 
ATOM     30  C   UNL d   1     -41.321-119.698 -58.547  0.00  0.00     0.304 A 
ATOM     31  O   UNL d   1     -41.750-120.394 -58.572  0.00  0.00    -0.299 OA
ATOM     32  C   UNL d   1     -42.189-121.350 -57.491  0.00  0.00     0.046 A 
ATOM     33  N   UNL d   1     -42.533-122.160 -56.370  0.00  0.00    -0.218 NA
ATOM     34  C   UNL d   1     -42.513-122.306 -55.553  0.00  0.00     0.208 A 
ATOM     35  S   UNL d   1     -42.884-122.982 -55.244  0.00  0.00    -0.038 SA
ENDBRANCH  20  21
ENDBRANCH  19  20
ENDBRANCH   1  19
TORSDOF 8
ENDMDL
MODEL 2
REMARK VINA RESULT:      26.8      1.700      7.865
REMARK  8 active torsions:
REMARK  status: ('A' for Active; 'I' for Inactive)
REMARK    1  A    between atoms: C_22  and  N_1 
REMARK       I    between atoms: N_8  and  C_12 
REMARK    2  A    between atoms: C_12  and  C_27 
REMARK    3  A    between atoms: C_23  and  N_13 
REMARK    4  A    between atoms: C_30  and  C_22 
REMARK    5  A    between atoms: C_26  and  C_23 
REMARK    6  A    between atoms: C_27  and  C_31 
REMARK    7  A    between atoms: C_32  and  C_30 
REMARK    8  A    between atoms: C_31  and  C_32 
ROOT
ATOM      1  C   UNL d   1     -41.144-121.880 -52.272  0.00  0.00     0.002 C 
ENDROOT
BRANCH   1   2
ATOM      2  C   UNL d   1     -41.177-121.937 -53.099  0.00  0.00     0.005 C 
BRANCH   2   3
ATOM      3  C   UNL d   1     -41.638-121.402 -53.535  0.00  0.00     0.061 C 
BRANCH   3   4
ATOM      4  C   UNL d   1     -42.282-121.683 -53.981  0.00  0.00     0.265 C 
ATOM      5  N   UNL d   1     -42.280-121.619 -54.812  0.00  0.00    -0.269 N 
ATOM      6  C   UNL d   1     -42.922-121.900 -55.246  0.00  0.00     0.102 A 
ATOM      7  C   UNL d   1     -41.641-121.277 -55.202  0.00  0.00     0.102 A 
ATOM      8  C   UNL d   1     -42.924-121.838 -56.072  0.00  0.00     0.100 A 
ATOM      9  N   UNL d   1     -42.284-121.496 -56.461  0.00  0.00    -0.300 N 
ATOM     10  C   UNL d   1     -41.643-121.215 -56.028  0.00  0.00     0.100 A 
ATOM     11  O   UNL d   1     -42.929-122.029 -53.600  0.00  0.00    -0.267 OA
BRANCH   9  12
ATOM     12  C   UNL d   1     -42.285-121.434 -57.284  0.00  0.00     0.080 C 
BRANCH  12  13
ATOM     13  C   UNL d   1     -41.946-120.780 -57.650  0.00  0.00     0.018 A 
ATOM     14  C   UNL d   1     -42.088-120.638 -58.449  0.00  0.00     0.002 A 
ATOM     15  C   UNL d   1     -41.747-119.979 -58.821  0.00  0.00     0.000 A 
ATOM     16  C   UNL d   1     -41.266-119.467 -58.390  0.00  0.00     0.000 A 
ATOM     17  C   UNL d   1     -41.125-119.614 -57.585  0.00  0.00     0.000 A 
ATOM     18  C   UNL d   1     -41.464-120.268 -57.218  0.00  0.00     0.002 A 
ENDBRANCH  12  13
ENDBRANCH   9  12
ENDBRANCH   3   4
ENDBRANCH   2   3
ENDBRANCH   1   2
BRANCH   1  19
ATOM     19  C   UNL d   1     -41.361-122.521 -51.799  0.00  0.00     0.019 C 
BRANCH  19  20
ATOM     20  C   UNL d   1     -41.123-122.561 -51.011  0.00  0.00     0.085 C 
BRANCH  20  21
ATOM     21  N   UNL d   1     -41.632-122.875 -50.440  0.00  0.00    -0.249 N 
ATOM     22  C   UNL d   1     -41.634-122.571 -49.667  0.00  0.00     0.268 A 
ATOM     23  C   UNL d   1     -42.141-122.885 -49.101  0.00  0.00     0.076 A 
ATOM     24  O   UNL d   1     -41.125-121.953 -49.469  0.00  0.00    -0.267 OA
ATOM     25  C   UNL d   1     -42.140-122.581 -48.335  0.00  0.00     0.033 A 
ATOM     26  C   UNL d   1     -42.651-123.504 -49.299  0.00  0.00     0.090 A 
ATOM     27  C   UNL d   1     -42.649-122.895 -47.765  0.00  0.00     0.119 A 
ATOM     28  O   UNL d   1     -42.770-122.710 -46.971  0.00  0.00    -0.300 OA
ATOM     29  C   UNL d   1     -43.158-123.514 -47.963  0.00  0.00     0.121 A 
ATOM     30  C   UNL d   1     -43.352-123.213 -46.684  0.00  0.00     0.304 A 
ATOM     31  O   UNL d   1     -43.591-123.707 -47.291  0.00  0.00    -0.299 OA
ATOM     32  C   UNL d   1     -43.158-123.817 -48.732  0.00  0.00     0.046 A 
ATOM     33  N   UNL d   1     -42.652-123.807 -50.064  0.00  0.00    -0.218 NA
ATOM     34  C   UNL d   1     -42.141-123.494 -50.639  0.00  0.00     0.208 A 
ATOM     35  S   UNL d   1     -42.146-123.803 -51.410  0.00  0.00    -0.038 SA
ENDBRANCH  20  21
ENDBRANCH  19  20
ENDBRANCH   1  19
TORSDOF 8
ENDMDL
