MODEL 1
REMARK VINA RESULT:      -0.1      0.000      0.000
REMARK  8 active torsions:
REMARK  status: ('A' for Active; 'I' for Inactive)
REMARK    1  A    between atoms: N_2  and  S_1 
REMARK    2  A    between atoms: C_3  and  S_1 
REMARK    3  A    between atoms: C_4  and  C_7 
REMARK    4  A    between atoms: O_17  and  C_4 
REMARK    5  A    between atoms: C_23  and  O_17 
REMARK    6  A    between atoms: C_18  and  C_24 
REMARK    7  A    between atoms: C_27  and  C_23 
REMARK    8  A    between atoms: C_24  and  C_27 
ROOT
ATOM      1  C   UNL d   1     -41.952-122.530 -53.546  0.00  0.00     0.104 A 
ATOM      2  C   UNL d   1     -41.887-123.162 -52.032  0.00  0.00     0.064 A 
ATOM      3  C   UNL d   1     -42.100-123.322 -53.416  0.00  0.00     0.013 A 
ATOM      4  C   UNL d   1     -41.766-122.039 -52.900  0.00  0.00     0.013 A 
ATOM      5  C   UNL d   1     -42.073-123.653 -52.673  0.00  0.00     0.006 A 
ATOM      6  C   UNL d   1     -41.734-122.358 -52.148  0.00  0.00     0.006 A 
ENDROOT
BRANCH   2   7
ATOM      7  C   UNL d   1     -41.859-123.497 -51.277  0.00  0.00     0.300 C 
ATOM      8  O   UNL d   1     -41.123-123.817 -51.032  0.00  0.00    -0.259 OA
BRANCH   7   9
ATOM      9  O   UNL d   1     -42.487-123.524 -50.787  0.00  0.00    -0.271 OA
BRANCH   9  10
ATOM     10  C   UNL d   1     -42.426-123.775 -50.004  0.00  0.00     0.126 C 
BRANCH  10  11
ATOM     11  C   UNL d   1     -42.712-123.329 -49.366  0.00  0.00     0.027 C 
BRANCH  11  12
ATOM     12  C   UNL d   1     -42.780-123.650 -48.626  0.00  0.00     0.002 C 
BRANCH  12  13
ATOM     13  C   UNL d   1     -42.409-123.289 -47.970  0.00  0.00     0.003 A 
ATOM     14  C   UNL d   1     -41.597-123.207 -47.965  0.00  0.00     0.021 A 
ATOM     15  C   UNL d   1     -41.225-122.855 -47.326  0.00  0.00     0.099 A 
ATOM     16  N   UNL d   1     -41.672-122.579 -46.680  0.00  0.00    -0.242 NA
ATOM     17  C   UNL d   1     -42.484-122.663 -46.688  0.00  0.00     0.099 A 
ATOM     18  C   UNL d   1     -42.836-123.022 -47.343  0.00  0.00     0.021 A 
ENDBRANCH  12  13
ENDBRANCH  11  12
ENDBRANCH  10  11
ENDBRANCH   9  10
ENDBRANCH   7   9
ENDBRANCH   2   7
BRANCH   1  19
ATOM     19  S   UNL d   1     -41.985-122.211 -54.314  0.00  0.00     0.272 S 
ATOM     20  O   UNL d   1     -42.696-121.811 -54.124  0.00  0.00    -0.200 OA
ATOM     21  O   UNL d   1     -41.275-122.601 -54.530  0.00  0.00    -0.200 OA
BRANCH  19  22
ATOM     22  N   UNL d   1     -42.010-121.895 -55.087  0.00  0.00    -0.225 N 
ATOM     23  C   UNL d   1     -41.471-121.335 -55.336  0.00  0.00     0.118 A 
ATOM     24  C   UNL d   1     -41.517-121.037 -56.111  0.00  0.00     0.142 A 
ATOM     25  O   UNL d   1     -42.098-121.300 -56.627  0.00  0.00    -0.300 OA
ATOM     26  C   UNL d   1     -42.640-121.868 -56.370  0.00  0.00     0.142 A 
ATOM     27  C   UNL d   1     -42.613-122.171 -55.621  0.00  0.00     0.118 A 
ENDBRANCH  19  22
ENDBRANCH   1  19
TORSDOF 8
ENDMDL
