MODEL 1
REMARK VINA RESULT:      -4.9      0.000      0.000
REMARK  4 active torsions:
REMARK  status: ('A' for Active; 'I' for Inactive)
REMARK    1  A    between atoms: C_11  and  C_9 
REMARK       I    between atoms: N_17  and  C_11 
REMARK    2  A    between atoms: C_19  and  N_17 
REMARK    3  A    between atoms: C_20  and  C_19 
REMARK    4  A    between atoms: C_21  and  C_20 
ROOT
ATOM      1  C   UNL d   1     -42.433-122.790 -50.152  0.00  0.00     0.081 A 
ATOM      2  C   UNL d   1     -41.655-122.757 -49.881  0.00  0.00     0.117 A 
ATOM      3  N   UNL d   1     -41.480-123.000 -49.110  0.00  0.00    -0.221 NA
ATOM      4  N   UNL d   1     -42.854-123.304 -48.891  0.00  0.00    -0.258 N 
ATOM      5  C   UNL d   1     -42.079-123.274 -48.614  0.00  0.00     0.151 A 
ATOM      6  C   UNL d   1     -43.043-123.063 -49.661  0.00  0.00     0.268 A 
ATOM      7  C   UNL d   1     -42.442-122.516 -50.933  0.00  0.00     0.018 A 
ATOM      8  S   UNL d   1     -41.190-122.466 -50.490  0.00  0.00    -0.063 SA
ATOM      9  C   UNL d   1     -41.674-122.316 -51.139  0.00  0.00     0.089 A 
ATOM     10  C   UNL d   1     -41.902-123.511 -47.857  0.00  0.00     0.035 A 
ATOM     11  C   UNL d   1     -43.460-123.577 -48.399  0.00  0.00     0.084 A 
ATOM     12  O   UNL d   1     -43.813-123.094 -49.932  0.00  0.00    -0.267 OA
ATOM     13  C   UNL d   1     -43.269-123.816 -47.634  0.00  0.00     0.019 A 
ATOM     14  C   UNL d   1     -42.492-123.783 -47.363  0.00  0.00     0.004 A 
ATOM     15  C   UNL d   1     -41.123-123.477 -47.590  0.00  0.00     0.003 C 
ENDROOT
BRANCH   9  16
ATOM     16  C   UNL d   1     -41.432-122.019 -51.869  0.00  0.00     0.285 C 
ATOM     17  O   UNL d   1     -41.125-121.257 -51.924  0.00  0.00    -0.265 OA
ATOM     18  N   UNL d   1     -41.498-122.484 -52.547  0.00  0.00    -0.206 NA
BRANCH  18  19
ATOM     19  C   UNL d   1     -41.256-122.186 -53.277  0.00  0.00     0.102 C 
BRANCH  19  20
ATOM     20  C   UNL d   1     -41.311-122.643 -53.947  0.00  0.00     0.021 C 
BRANCH  20  21
ATOM     21  C   UNL d   1     -41.772-122.392 -54.593  0.00  0.00     0.002 C 
ATOM     22  C   UNL d   1     -41.448-122.342 -55.343  0.00  0.00     0.000 C 
ENDBRANCH  20  21
ENDBRANCH  19  20
ENDBRANCH  18  19
ENDBRANCH   9  16
TORSDOF 4
ENDMDL
MODEL 2
REMARK VINA RESULT:      -3.2      1.170      5.157
REMARK  4 active torsions:
REMARK  status: ('A' for Active; 'I' for Inactive)
REMARK    1  A    between atoms: C_11  and  C_9 
REMARK       I    between atoms: N_17  and  C_11 
REMARK    2  A    between atoms: C_19  and  N_17 
REMARK    3  A    between atoms: C_20  and  C_19 
REMARK    4  A    between atoms: C_21  and  C_20 
ROOT
ATOM      1  C   UNL d   1     -41.942-122.098 -52.708  0.00  0.00     0.081 A 
ATOM      2  C   UNL d   1     -41.549-122.819 -52.782  0.00  0.00     0.117 A 
ATOM      3  N   UNL d   1     -41.408-123.131 -53.536  0.00  0.00    -0.221 NA
ATOM      4  N   UNL d   1     -42.049-122.005 -54.126  0.00  0.00    -0.258 N 
ATOM      5  C   UNL d   1     -41.657-122.725 -54.208  0.00  0.00     0.151 A 
ATOM      6  C   UNL d   1     -42.197-121.681 -53.378  0.00  0.00     0.268 A 
ATOM      7  C   UNL d   1     -42.005-121.925 -51.901  0.00  0.00     0.018 A 
ATOM      8  S   UNL d   1     -41.372-123.086 -52.029  0.00  0.00    -0.063 SA
ATOM      9  C   UNL d   1     -41.652-122.537 -51.484  0.00  0.00     0.089 A 
ATOM     10  C   UNL d   1     -41.517-123.036 -54.946  0.00  0.00     0.035 A 
ATOM     11  C   UNL d   1     -42.303-121.593 -54.797  0.00  0.00     0.084 A 
ATOM     12  O   UNL d   1     -42.586-120.967 -53.301  0.00  0.00    -0.267 OA
ATOM     13  C   UNL d   1     -42.154-121.917 -55.539  0.00  0.00     0.019 A 
ATOM     14  C   UNL d   1     -41.762-122.637 -55.614  0.00  0.00     0.004 A 
ATOM     15  C   UNL d   1     -41.123-123.758 -55.016  0.00  0.00     0.003 C 
ENDROOT
BRANCH   9  16
ATOM     16  C   UNL d   1     -41.591-122.588 -50.663  0.00  0.00     0.285 C 
ATOM     17  O   UNL d   1     -41.123-122.052 -50.249  0.00  0.00    -0.265 OA
ATOM     18  N   UNL d   1     -41.998-123.177 -50.255  0.00  0.00    -0.206 NA
BRANCH  18  19
ATOM     19  C   UNL d   1     -41.937-123.228 -49.433  0.00  0.00     0.102 C 
BRANCH  19  20
ATOM     20  C   UNL d   1     -42.596-123.372 -48.980  0.00  0.00     0.021 C 
BRANCH  20  21
ATOM     21  C   UNL d   1     -42.522-123.729 -48.231  0.00  0.00     0.002 C 
ATOM     22  C   UNL d   1     -42.986-123.481 -47.604  0.00  0.00     0.000 C 
ENDBRANCH  20  21
ENDBRANCH  19  20
ENDBRANCH  18  19
ENDBRANCH   9  16
TORSDOF 4
ENDMDL
