MODEL 1
REMARK VINA RESULT:      -6.5      0.000      0.000
REMARK  4 active torsions:
REMARK  status: ('A' for Active; 'I' for Inactive)
REMARK    1  A    between atoms: C_6  and  N_1 
REMARK    2  A    between atoms: N_7  and  C_5 
REMARK    3  A    between atoms: C_8  and  C_6 
REMARK    4  A    between atoms: C_12  and  N_7 
ROOT
ATOM      1  N   UNL d   1     -49.438  12.510  22.729  0.00  0.00    -0.227 N 
ATOM      2  C   UNL d   1     -48.869  11.929  22.863  0.00  0.00     0.300 A 
ATOM      3  S   UNL d   1     -48.134  12.134  23.167  0.00  0.00    -0.003 SA
ATOM      4  C   UNL d   1     -48.535  13.504  23.206  0.00  0.00     0.292 A 
ATOM      5  C   UNL d   1     -47.966  12.923  23.340  0.00  0.00     0.172 A 
ATOM      6  O   UNL d   1     -49.037  11.140  22.690  0.00  0.00    -0.259 OA
ATOM      7  O   UNL d   1     -48.572  14.397  23.317  0.00  0.00    -0.264 OA
ENDROOT
BRANCH   5   8
ATOM      8  N   UNL d   1     -47.229  13.131  23.646  0.00  0.00    -0.234 NA
BRANCH   8   9
ATOM      9  C   UNL d   1     -46.556  13.079  23.172  0.00  0.00     0.082 A 
ATOM     10  C   UNL d   1     -46.357  13.712  22.668  0.00  0.00     0.019 A 
ATOM     11  C   UNL d   1     -45.688  13.661  22.197  0.00  0.00     0.002 A 
ATOM     12  C   UNL d   1     -45.213  12.983  22.219  0.00  0.00     0.000 A 
ATOM     13  C   UNL d   1     -45.416  12.351  22.725  0.00  0.00     0.002 A 
ATOM     14  C   UNL d   1     -44.539  12.923  21.749  0.00  0.00     0.000 C 
ATOM     15  C   UNL d   1     -46.091  12.412  23.197  0.00  0.00     0.019 A 
ENDBRANCH   8   9
ENDBRANCH   5   8
BRANCH   1  16
ATOM     16  C   UNL d   1     -50.286  12.509  22.410  0.00  0.00     0.157 C 
BRANCH  16  17
ATOM     17  C   UNL d   1     -50.557  13.165  21.826  0.00  0.00     0.230 C 
ATOM     18  O   UNL d   1     -51.064  13.850  22.138  0.00  0.00    -0.643 OA
ATOM     19  O   UNL d   1     -50.321  13.122  20.961  0.00  0.00    -0.643 OA
ENDBRANCH  16  17
ENDBRANCH   1  16
TORSDOF 4
ENDMDL
MODEL 2
REMARK VINA RESULT:      -5.9      1.814      3.997
REMARK  4 active torsions:
REMARK  status: ('A' for Active; 'I' for Inactive)
REMARK    1  A    between atoms: C_6  and  N_1 
REMARK    2  A    between atoms: N_7  and  C_5 
REMARK    3  A    between atoms: C_8  and  C_6 
REMARK    4  A    between atoms: C_12  and  N_7 
ROOT
ATOM      1  N   UNL d   1     -47.459  11.985  23.227  0.00  0.00    -0.227 N 
ATOM      2  C   UNL d   1     -48.241  11.784  23.065  0.00  0.00     0.300 A 
ATOM      3  S   UNL d   1     -48.706  12.279  22.603  0.00  0.00    -0.003 SA
ATOM      4  C   UNL d   1     -47.607  13.179  22.464  0.00  0.00     0.292 A 
ATOM      5  C   UNL d   1     -48.389  12.978  22.301  0.00  0.00     0.172 A 
ATOM      6  O   UNL d   1     -48.558  11.086  23.366  0.00  0.00    -0.259 OA
ATOM      7  O   UNL d   1     -47.068  13.868  22.248  0.00  0.00    -0.264 OA
ENDROOT
BRANCH   5   8
ATOM      8  N   UNL d   1     -48.855  13.477  21.837  0.00  0.00    -0.234 NA
BRANCH   8   9
ATOM      9  C   UNL d   1     -49.388  13.995  22.196  0.00  0.00     0.082 A 
ATOM     10  C   UNL d   1     -50.206  13.891  22.077  0.00  0.00     0.019 A 
ATOM     11  C   UNL d   1     -50.736  14.405  22.433  0.00  0.00     0.002 A 
ATOM     12  C   UNL d   1     -50.461  15.024  22.908  0.00  0.00     0.000 A 
ATOM     13  C   UNL d   1     -49.640  15.124  23.025  0.00  0.00     0.002 A 
ATOM     14  C   UNL d   1     -50.987  15.545  23.270  0.00  0.00     0.000 C 
ATOM     15  C   UNL d   1     -49.114  14.603  22.662  0.00  0.00     0.019 A 
ENDBRANCH   8   9
ENDBRANCH   5   8
BRANCH   1  16
ATOM     16  C   UNL d   1     -46.787  11.600  23.698  0.00  0.00     0.157 C 
BRANCH  16  17
ATOM     17  C   UNL d   1     -45.947  11.536  23.331  0.00  0.00     0.230 C 
ATOM     18  O   UNL d   1     -45.702  10.762  22.924  0.00  0.00    -0.643 OA
ATOM     19  O   UNL d   1     -45.382  12.232  23.377  0.00  0.00    -0.643 OA
ENDBRANCH  16  17
ENDBRANCH   1  16
TORSDOF 4
ENDMDL
MODEL 3
REMARK VINA RESULT:      -5.9      1.761      3.983
REMARK  4 active torsions:
REMARK  status: ('A' for Active; 'I' for Inactive)
REMARK    1  A    between atoms: C_6  and  N_1 
REMARK    2  A    between atoms: N_7  and  C_5 
REMARK    3  A    between atoms: C_8  and  C_6 
REMARK    4  A    between atoms: C_12  and  N_7 
ROOT
ATOM      1  N   UNL d   1     -46.282  12.808  22.941  0.00  0.00    -0.227 N 
ATOM      2  C   UNL d   1     -46.929  12.385  23.226  0.00  0.00     0.300 A 
ATOM      3  S   UNL d   1     -47.653  12.759  23.328  0.00  0.00    -0.003 SA
ATOM      4  C   UNL d   1     -47.085  13.982  22.858  0.00  0.00     0.292 A 
ATOM      5  C   UNL d   1     -47.732  13.559  23.144  0.00  0.00     0.172 A 
ATOM      6  O   UNL d   1     -46.850  11.586  23.411  0.00  0.00    -0.259 OA
ATOM      7  O   UNL d   1     -46.944  14.834  22.601  0.00  0.00    -0.264 OA
ENDROOT
BRANCH   5   8
ATOM      8  N   UNL d   1     -48.459  13.937  23.246  0.00  0.00    -0.234 NA
BRANCH   8   9
ATOM      9  C   UNL d   1     -49.111  13.704  22.796  0.00  0.00     0.082 A 
ATOM     10  C   UNL d   1     -49.720  13.262  23.153  0.00  0.00     0.019 A 
ATOM     11  C   UNL d   1     -50.368  13.030  22.707  0.00  0.00     0.002 A 
ATOM     12  C   UNL d   1     -50.417  13.234  21.906  0.00  0.00     0.000 A 
ATOM     13  C   UNL d   1     -49.804  13.678  21.553  0.00  0.00     0.002 A 
ATOM     14  C   UNL d   1     -51.064  13.005  21.450  0.00  0.00     0.000 C 
ATOM     15  C   UNL d   1     -49.156  13.907  22.009  0.00  0.00     0.019 A 
ENDBRANCH   8   9
ENDBRANCH   5   8
BRANCH   1  16
ATOM     16  C   UNL d   1     -45.418  12.604  22.757  0.00  0.00     0.157 C 
BRANCH  16  17
ATOM     17  C   UNL d   1     -44.996  12.995  22.041  0.00  0.00     0.230 C 
ATOM     18  O   UNL d   1     -44.498  13.741  22.178  0.00  0.00    -0.643 OA
ATOM     19  O   UNL d   1     -45.079  12.640  21.221  0.00  0.00    -0.643 OA
ENDBRANCH  16  17
ENDBRANCH   1  16
TORSDOF 4
ENDMDL
MODEL 4
REMARK VINA RESULT:      -5.2      8.583      9.306
REMARK  4 active torsions:
REMARK  status: ('A' for Active; 'I' for Inactive)
REMARK    1  A    between atoms: C_6  and  N_1 
REMARK    2  A    between atoms: N_7  and  C_5 
REMARK    3  A    between atoms: C_8  and  C_6 
REMARK    4  A    between atoms: C_12  and  N_7 
ROOT
ATOM      1  N   UNL d   1     -39.723  15.544  18.449  0.00  0.00    -0.227 N 
ATOM      2  C   UNL d   1     -38.996  15.518  18.835  0.00  0.00     0.300 A 
ATOM      3  S   UNL d   1     -38.955  15.628  19.647  0.00  0.00    -0.003 SA
ATOM      4  C   UNL d   1     -40.373  15.791  19.693  0.00  0.00     0.292 A 
ATOM      5  C   UNL d   1     -39.645  15.765  20.078  0.00  0.00     0.172 A 
ATOM      6  O   UNL d   1     -38.306  15.381  18.404  0.00  0.00    -0.259 OA
ATOM      7  O   UNL d   1     -41.226  15.922  19.951  0.00  0.00    -0.264 OA
ENDROOT
BRANCH   5   8
ATOM      8  N   UNL d   1     -39.607  15.876  20.895  0.00  0.00    -0.234 NA
BRANCH   8   9
ATOM      9  C   UNL d   1     -39.352  15.262  21.383  0.00  0.00     0.082 A 
ATOM     10  C   UNL d   1     -38.639  15.340  21.806  0.00  0.00     0.019 A 
ATOM     11  C   UNL d   1     -38.385  14.730  22.291  0.00  0.00     0.002 A 
ATOM     12  C   UNL d   1     -38.835  14.038  22.361  0.00  0.00     0.000 A 
ATOM     13  C   UNL d   1     -39.549  13.964  21.935  0.00  0.00     0.002 A 
ATOM     14  C   UNL d   1     -38.588  13.420  22.846  0.00  0.00     0.000 C 
ATOM     15  C   UNL d   1     -39.797  14.583  21.449  0.00  0.00     0.019 A 
ENDBRANCH   8   9
ENDBRANCH   5   8
BRANCH   1  16
ATOM     16  C   UNL d   1     -39.992  15.452  17.588  0.00  0.00     0.157 C 
BRANCH  16  17
ATOM     17  C   UNL d   1     -40.728  14.938  17.389  0.00  0.00     0.230 C 
ATOM     18  O   UNL d   1     -41.464  15.340  17.043  0.00  0.00    -0.643 OA
ATOM     19  O   UNL d   1     -40.712  14.053  17.538  0.00  0.00    -0.643 OA
ENDBRANCH  16  17
ENDBRANCH   1  16
TORSDOF 4
ENDMDL
MODEL 5
REMARK VINA RESULT:      -4.7      8.612     10.187
REMARK  4 active torsions:
REMARK  status: ('A' for Active; 'I' for Inactive)
REMARK    1  A    between atoms: C_6  and  N_1 
REMARK    2  A    between atoms: N_7  and  C_5 
REMARK    3  A    between atoms: C_8  and  C_6 
REMARK    4  A    between atoms: C_12  and  N_7 
ROOT
ATOM      1  N   UNL d   1     -38.907  15.196  16.931  0.00  0.00    -0.227 N 
ATOM      2  C   UNL d   1     -38.717  15.629  17.606  0.00  0.00     0.300 A 
ATOM      3  S   UNL d   1     -39.288  15.769  18.179  0.00  0.00    -0.003 SA
ATOM      4  C   UNL d   1     -40.242  15.044  17.403  0.00  0.00     0.292 A 
ATOM      5  C   UNL d   1     -40.053  15.476  18.079  0.00  0.00     0.172 A 
ATOM      6  O   UNL d   1     -37.953  15.921  17.708  0.00  0.00    -0.259 OA
ATOM      7  O   UNL d   1     -40.986  14.641  17.092  0.00  0.00    -0.264 OA
ENDROOT
BRANCH   5   8
ATOM      8  N   UNL d   1     -40.629  15.615  18.653  0.00  0.00    -0.234 NA
BRANCH   8   9
ATOM      9  C   UNL d   1     -40.507  15.362  19.429  0.00  0.00     0.082 A 
ATOM     10  C   UNL d   1     -40.358  15.922  20.027  0.00  0.00     0.019 A 
ATOM     11  C   UNL d   1     -40.237  15.670  20.798  0.00  0.00     0.002 A 
ATOM     12  C   UNL d   1     -40.262  14.863  20.981  0.00  0.00     0.000 A 
ATOM     13  C   UNL d   1     -40.411  14.305  20.379  0.00  0.00     0.002 A 
ATOM     14  C   UNL d   1     -40.141  14.601  21.753  0.00  0.00     0.000 C 
ATOM     15  C   UNL d   1     -40.532  14.568  19.606  0.00  0.00     0.019 A 
ENDBRANCH   8   9
ENDBRANCH   5   8
BRANCH   1  16
ATOM     16  C   UNL d   1     -38.448  14.931  16.195  0.00  0.00     0.157 C 
BRANCH  16  17
ATOM     17  C   UNL d   1     -38.313  14.036  16.037  0.00  0.00     0.230 C 
ATOM     18  O   UNL d   1     -38.091  13.495  16.732  0.00  0.00    -0.643 OA
ATOM     19  O   UNL d   1     -38.399  13.708  15.206  0.00  0.00    -0.643 OA
ENDBRANCH  16  17
ENDBRANCH   1  16
TORSDOF 4
ENDMDL
