MODEL 1
REMARK VINA RESULT:      43.9      0.000      0.000
REMARK  6 active torsions:
REMARK  status: ('A' for Active; 'I' for Inactive)
REMARK       I    between atoms: C_2  and  N_1 
REMARK    1  A    between atoms: C_3  and  N_1 
REMARK    2  A    between atoms: C_6  and  C_2 
REMARK    3  A    between atoms: N_7  and  C_3 
REMARK    4  A    between atoms: C_8  and  N_7 
REMARK    5  A    between atoms: C_12  and  C_8 
REMARK    6  A    between atoms: C_9  and  C_12 
ROOT
ATOM      1  C   UNL d   1      60.248  49.253  51.388  0.00  0.00     0.179 C 
ATOM      2  S   UNL d   1      60.745  49.559  51.960  0.00  0.00    -0.040 SA
ENDROOT
BRANCH   1   3
ATOM      3  N   UNL d   1      60.362  48.491  51.106  0.00  0.00    -0.299 N 
ATOM      4  C   UNL d   1      61.095  48.277  50.838  0.00  0.00     0.259 C 
ATOM      5  O   UNL d   1      61.715  48.810  50.847  0.00  0.00    -0.267 OA
ATOM      6  H   UNL d   1      59.747  47.962  51.096  0.00  0.00     0.171 HD
BRANCH   4   7
ATOM      7  C   UNL d   1      61.215  47.508  50.551  0.00  0.00     0.056 A 
ATOM      8  C   UNL d   1      60.634  46.949  50.638  0.00  0.00     0.005 A 
ATOM      9  C   UNL d   1      60.747  46.186  50.357  0.00  0.00     0.000 A 
ATOM     10  C   UNL d   1      61.454  45.996  49.987  0.00  0.00     0.000 A 
ATOM     11  C   UNL d   1      62.035  46.555  49.900  0.00  0.00     0.000 A 
ATOM     12  C   UNL d   1      61.921  47.317  50.181  0.00  0.00     0.005 A 
ENDBRANCH   4   7
ENDBRANCH   1   3
BRANCH   1  13
ATOM     13  N   UNL d   1      59.632  49.704  51.090  0.00  0.00    -0.330 N 
ATOM     14  H   UNL d   1      59.716  50.506  51.004  0.00  0.00     0.168 HD
BRANCH  13  15
ATOM     15  C   UNL d   1      58.936  49.335  50.882  0.00  0.00     0.074 C 
BRANCH  15  16
ATOM     16  C   UNL d   1      58.485  49.642  50.262  0.00  0.00     0.018 C 
BRANCH  16  17
ATOM     17  C   UNL d   1      57.663  49.499  50.231  0.00  0.00     0.002 A 
ATOM     18  C   UNL d   1      57.182  49.675  50.883  0.00  0.00     0.000 A 
ATOM     19  C   UNL d   1      56.371  49.533  50.847  0.00  0.00     0.000 A 
ATOM     20  C   UNL d   1      56.035  49.214  50.159  0.00  0.00     0.000 A 
ATOM     21  C   UNL d   1      56.511  49.038  49.509  0.00  0.00     0.000 A 
ATOM     22  C   UNL d   1      57.327  49.180  49.543  0.00  0.00     0.000 A 
ENDBRANCH  16  17
ENDBRANCH  15  16
ENDBRANCH  13  15
ENDBRANCH   1  13
TORSDOF 6
ENDMDL
MODEL 2
REMARK VINA RESULT:      44.1      1.038      4.470
REMARK  6 active torsions:
REMARK  status: ('A' for Active; 'I' for Inactive)
REMARK       I    between atoms: C_2  and  N_1 
REMARK    1  A    between atoms: C_3  and  N_1 
REMARK    2  A    between atoms: C_6  and  C_2 
REMARK    3  A    between atoms: N_7  and  C_3 
REMARK    4  A    between atoms: C_8  and  N_7 
REMARK    5  A    between atoms: C_12  and  C_8 
REMARK    6  A    between atoms: C_9  and  C_12 
ROOT
ATOM      1  C   UNL d   1      59.601  49.543  50.769  0.00  0.00     0.179 C 
ATOM      2  S   UNL d   1      59.633  49.708  51.569  0.00  0.00    -0.040 SA
ENDROOT
BRANCH   1   3
ATOM      3  N   UNL d   1      58.882  49.544  50.374  0.00  0.00    -0.299 N 
ATOM      4  C   UNL d   1      58.200  49.618  50.804  0.00  0.00     0.259 C 
ATOM      5  O   UNL d   1      58.224  49.690  51.617  0.00  0.00    -0.267 OA
ATOM      6  H   UNL d   1      58.859  49.472  49.567  0.00  0.00     0.171 HD
BRANCH   4   7
ATOM      7  C   UNL d   1      57.470  49.620  50.409  0.00  0.00     0.056 A 
ATOM      8  C   UNL d   1      56.782  49.538  50.831  0.00  0.00     0.005 A 
ATOM      9  C   UNL d   1      56.057  49.540  50.446  0.00  0.00     0.000 A 
ATOM     10  C   UNL d   1      56.036  49.624  49.630  0.00  0.00     0.000 A 
ATOM     11  C   UNL d   1      56.724  49.706  49.208  0.00  0.00     0.000 A 
ATOM     12  C   UNL d   1      57.448  49.705  49.594  0.00  0.00     0.005 A 
ENDBRANCH   4   7
ENDBRANCH   1   3
BRANCH   1  13
ATOM     13  N   UNL d   1      60.287  49.374  50.354  0.00  0.00    -0.330 N 
ATOM     14  H   UNL d   1      60.371  49.619  49.585  0.00  0.00     0.168 HD
BRANCH  13  15
ATOM     15  C   UNL d   1      60.882  48.957  50.723  0.00  0.00     0.074 C 
BRANCH  15  16
ATOM     16  C   UNL d   1      60.752  48.169  50.935  0.00  0.00     0.018 C 
BRANCH  16  17
ATOM     17  C   UNL d   1      61.150  47.556  50.532  0.00  0.00     0.002 A 
ATOM     18  C   UNL d   1      60.852  46.781  50.550  0.00  0.00     0.000 A 
ATOM     19  C   UNL d   1      61.248  46.179  50.150  0.00  0.00     0.000 A 
ATOM     20  C   UNL d   1      61.944  46.345  49.731  0.00  0.00     0.000 A 
ATOM     21  C   UNL d   1      62.242  47.114  49.712  0.00  0.00     0.000 A 
ATOM     22  C   UNL d   1      61.845  47.722  50.113  0.00  0.00     0.000 A 
ENDBRANCH  16  17
ENDBRANCH  15  16
ENDBRANCH  13  15
ENDBRANCH   1  13
TORSDOF 6
ENDMDL
