MODEL 1
REMARK VINA RESULT:      -7.4      0.000      0.000
REMARK  4 active torsions:
REMARK  status: ('A' for Active; 'I' for Inactive)
REMARK    1  A    between atoms: C_5  and  N_1 
REMARK       I    between atoms: C_2  and  N_3 
REMARK    2  A    between atoms: C_6  and  C_2 
REMARK    3  A    between atoms: N_3  and  C_4 
REMARK    4  A    between atoms: O_18  and  C_11 
ROOT
ATOM      1  C   UNL d   1     -49.392  13.576  23.210  0.00  0.00     0.108 A 
ATOM      2  C   UNL d   1     -50.424  14.453  22.987  0.00  0.00     0.128 A 
ATOM      3  C   UNL d   1     -49.639  14.338  23.062  0.00  0.00     0.045 A 
ATOM      4  C   UNL d   1     -49.902  12.970  23.278  0.00  0.00     0.112 A 
ATOM      5  C   UNL d   1     -50.963  13.899  23.045  0.00  0.00     0.026 A 
ATOM      6  C   UNL d   1     -50.723  13.121  23.196  0.00  0.00     0.027 A 
ENDROOT
BRANCH   1   7
ATOM      7  N   UNL d   1     -48.524  13.415  23.297  0.00  0.00    -0.204 NA
ATOM      8  C   UNL d   1     -48.023  13.626  22.663  0.00  0.00     0.302 C 
ATOM      9  O   UNL d   1     -48.368  13.969  21.998  0.00  0.00    -0.263 OA
BRANCH   8  10
ATOM     10  C   UNL d   1     -47.206  13.500  22.687  0.00  0.00     0.158 A 
ATOM     11  O   UNL d   1     -46.789  12.786  22.695  0.00  0.00    -0.300 OA
ATOM     12  C   UNL d   1     -45.977  12.976  22.721  0.00  0.00     0.123 A 
ATOM     13  C   UNL d   1     -45.923  13.815  22.728  0.00  0.00     0.029 A 
ATOM     14  C   UNL d   1     -46.674  14.098  22.706  0.00  0.00     0.032 A 
ENDBRANCH   8  10
ENDBRANCH   1   7
BRANCH   4  15
ATOM     15  O   UNL d   1     -49.662  12.191  23.429  0.00  0.00    -0.327 OA
ATOM     16  C   UNL d   1     -50.260  11.609  23.697  0.00  0.00     0.181 C 
ENDBRANCH   4  15
BRANCH   2  17
ATOM     17  N   UNL d   1     -50.688  15.293  22.825  0.00  0.00    -0.114 N 
ATOM     18  O   UNL d   1     -50.560  15.918  23.407  0.00  0.00    -0.532 OA
ATOM     19  O   UNL d   1     -51.064  15.450  22.090  0.00  0.00    -0.532 OA
ENDBRANCH   2  17
TORSDOF 4
ENDMDL
MODEL 2
REMARK VINA RESULT:      -7.2      1.522      4.067
REMARK  4 active torsions:
REMARK  status: ('A' for Active; 'I' for Inactive)
REMARK    1  A    between atoms: C_5  and  N_1 
REMARK       I    between atoms: C_2  and  N_3 
REMARK    2  A    between atoms: C_6  and  C_2 
REMARK    3  A    between atoms: N_3  and  C_4 
REMARK    4  A    between atoms: O_18  and  C_11 
ROOT
ATOM      1  C   UNL d   1     -47.799  13.566  23.093  0.00  0.00     0.108 A 
ATOM      2  C   UNL d   1     -46.472  13.246  22.950  0.00  0.00     0.128 A 
ATOM      3  C   UNL d   1     -47.207  13.011  23.149  0.00  0.00     0.045 A 
ATOM      4  C   UNL d   1     -47.660  14.312  22.853  0.00  0.00     0.112 A 
ATOM      5  C   UNL d   1     -46.283  13.958  22.710  0.00  0.00     0.026 A 
ATOM      6  C   UNL d   1     -46.877  14.532  22.650  0.00  0.00     0.027 A 
ENDROOT
BRANCH   1   7
ATOM      7  N   UNL d   1     -48.628  13.335  23.308  0.00  0.00    -0.204 NA
ATOM      8  C   UNL d   1     -48.949  12.656  22.942  0.00  0.00     0.302 C 
ATOM      9  O   UNL d   1     -48.475  12.246  22.407  0.00  0.00    -0.263 OA
BRANCH   8  10
ATOM     10  C   UNL d   1     -49.716  12.391  23.102  0.00  0.00     0.158 A 
ATOM     11  O   UNL d   1     -50.428  12.614  22.747  0.00  0.00    -0.300 OA
ATOM     12  C   UNL d   1     -51.036  12.178  23.118  0.00  0.00     0.123 A 
ATOM     13  C   UNL d   1     -50.667  11.692  23.698  0.00  0.00     0.029 A 
ATOM     14  C   UNL d   1     -49.879  11.844  23.663  0.00  0.00     0.032 A 
ENDBRANCH   8  10
ENDBRANCH   1   7
BRANCH   4  15
ATOM     15  O   UNL d   1     -48.255  14.886  22.792  0.00  0.00    -0.327 OA
ATOM     16  C   UNL d   1     -48.166  15.526  22.200  0.00  0.00     0.181 C 
ENDBRANCH   4  15
BRANCH   2  17
ATOM     17  N   UNL d   1     -45.826  12.630  23.013  0.00  0.00    -0.114 N 
ATOM     18  O   UNL d   1     -45.235  12.541  22.389  0.00  0.00    -0.532 OA
ATOM     19  O   UNL d   1     -45.815  12.143  23.698  0.00  0.00    -0.532 OA
ENDBRANCH   2  17
TORSDOF 4
ENDMDL
MODEL 3
REMARK VINA RESULT:      -6.3      1.770      2.654
REMARK  4 active torsions:
REMARK  status: ('A' for Active; 'I' for Inactive)
REMARK    1  A    between atoms: C_5  and  N_1 
REMARK       I    between atoms: C_2  and  N_3 
REMARK    2  A    between atoms: C_6  and  C_2 
REMARK    3  A    between atoms: N_3  and  C_4 
REMARK    4  A    between atoms: O_18  and  C_11 
ROOT
ATOM      1  C   UNL d   1     -48.041  13.165  22.590  0.00  0.00     0.108 A 
ATOM      2  C   UNL d   1     -49.396  13.137  22.369  0.00  0.00     0.128 A 
ATOM      3  C   UNL d   1     -48.713  12.732  22.434  0.00  0.00     0.045 A 
ATOM      4  C   UNL d   1     -48.057  13.956  22.675  0.00  0.00     0.112 A 
ATOM      5  C   UNL d   1     -49.466  13.905  22.442  0.00  0.00     0.026 A 
ATOM      6  C   UNL d   1     -48.790  14.357  22.601  0.00  0.00     0.027 A 
ENDROOT
BRANCH   1   7
ATOM      7  N   UNL d   1     -47.265  12.743  22.668  0.00  0.00    -0.204 NA
ATOM      8  C   UNL d   1     -47.207  12.139  23.242  0.00  0.00     0.302 C 
ATOM      9  O   UNL d   1     -47.873  11.976  23.697  0.00  0.00    -0.263 OA
BRANCH   8  10
ATOM     10  C   UNL d   1     -46.509  11.711  23.361  0.00  0.00     0.158 A 
ATOM     11  O   UNL d   1     -45.727  11.944  23.231  0.00  0.00    -0.300 OA
ATOM     12  C   UNL d   1     -45.240  11.300  23.442  0.00  0.00     0.123 A 
ATOM     13  C   UNL d   1     -45.751  10.682  23.698  0.00  0.00     0.029 A 
ATOM     14  C   UNL d   1     -46.502  10.960  23.638  0.00  0.00     0.032 A 
ENDBRANCH   8  10
ENDBRANCH   1   7
BRANCH   4  15
ATOM     15  O   UNL d   1     -47.380  14.408  22.834  0.00  0.00    -0.327 OA
ATOM     16  C   UNL d   1     -47.377  15.255  22.612  0.00  0.00     0.181 C 
ENDBRANCH   4  15
BRANCH   2  17
ATOM     17  N   UNL d   1     -50.129  12.654  22.197  0.00  0.00    -0.114 N 
ATOM     18  O   UNL d   1     -50.487  12.656  21.410  0.00  0.00    -0.532 OA
ATOM     19  O   UNL d   1     -50.456  12.201  22.825  0.00  0.00    -0.532 OA
ENDBRANCH   2  17
TORSDOF 4
ENDMDL
MODEL 4
REMARK VINA RESULT:      -5.8      8.725     10.665
REMARK  4 active torsions:
REMARK  status: ('A' for Active; 'I' for Inactive)
REMARK    1  A    between atoms: C_5  and  N_1 
REMARK       I    between atoms: C_2  and  N_3 
REMARK    2  A    between atoms: C_6  and  C_2 
REMARK    3  A    between atoms: N_3  and  C_4 
REMARK    4  A    between atoms: O_18  and  C_11 
ROOT
ATOM      1  C   UNL d   1     -40.222  14.666  17.991  0.00  0.00     0.108 A 
ATOM      2  C   UNL d   1     -39.308  13.901  17.310  0.00  0.00     0.128 A 
ATOM      3  C   UNL d   1     -39.662  14.075  18.003  0.00  0.00     0.045 A 
ATOM      4  C   UNL d   1     -40.414  15.056  17.325  0.00  0.00     0.112 A 
ATOM      5  C   UNL d   1     -39.457  14.249  16.635  0.00  0.00     0.026 A 
ATOM      6  C   UNL d   1     -40.026  14.851  16.610  0.00  0.00     0.027 A 
ENDROOT
BRANCH   1   7
ATOM      7  N   UNL d   1     -40.634  14.883  18.746  0.00  0.00    -0.204 NA
ATOM      8  C   UNL d   1     -40.168  15.180  19.372  0.00  0.00     0.302 C 
ATOM      9  O   UNL d   1     -39.357  15.252  19.247  0.00  0.00    -0.263 OA
BRANCH   8  10
ATOM     10  C   UNL d   1     -40.495  15.400  20.099  0.00  0.00     0.158 A 
ATOM     11  O   UNL d   1     -41.147  15.884  20.251  0.00  0.00    -0.300 OA
ATOM     12  C   UNL d   1     -41.238  15.922  21.080  0.00  0.00     0.123 A 
ATOM     13  C   UNL d   1     -40.627  15.450  21.413  0.00  0.00     0.029 A 
ATOM     14  C   UNL d   1     -40.201  15.152  20.801  0.00  0.00     0.032 A 
ENDBRANCH   8  10
ENDBRANCH   1   7
BRANCH   4  15
ATOM     15  O   UNL d   1     -40.983  15.658  17.300  0.00  0.00    -0.327 OA
ATOM     16  C   UNL d   1     -41.286  15.921  16.522  0.00  0.00     0.181 C 
ENDBRANCH   4  15
BRANCH   2  17
ATOM     17  N   UNL d   1     -38.693  13.251  17.331  0.00  0.00    -0.114 N 
ATOM     18  O   UNL d   1     -38.842  12.513  17.757  0.00  0.00    -0.532 OA
ATOM     19  O   UNL d   1     -37.970  13.382  16.924  0.00  0.00    -0.532 OA
ENDBRANCH   2  17
TORSDOF 4
ENDMDL
MODEL 5
REMARK VINA RESULT:      -5.6      9.612     10.485
REMARK  4 active torsions:
REMARK  status: ('A' for Active; 'I' for Inactive)
REMARK    1  A    between atoms: C_5  and  N_1 
REMARK       I    between atoms: C_2  and  N_3 
REMARK    2  A    between atoms: C_6  and  C_2 
REMARK    3  A    between atoms: N_3  and  C_4 
REMARK    4  A    between atoms: O_18  and  C_11 
ROOT
ATOM      1  C   UNL d   1     -39.379  14.531  18.685  0.00  0.00     0.108 A 
ATOM      2  C   UNL d   1     -40.052  14.713  17.502  0.00  0.00     0.128 A 
ATOM      3  C   UNL d   1     -39.893  14.976  18.238  0.00  0.00     0.045 A 
ATOM      4  C   UNL d   1     -39.046  13.862  18.409  0.00  0.00     0.112 A 
ATOM      5  C   UNL d   1     -39.756  14.071  17.186  0.00  0.00     0.026 A 
ATOM      6  C   UNL d   1     -39.232  13.609  17.632  0.00  0.00     0.027 A 
ENDROOT
BRANCH   1   7
ATOM      7  N   UNL d   1     -39.181  14.797  19.508  0.00  0.00    -0.204 NA
ATOM      8  C   UNL d   1     -39.813  14.911  20.042  0.00  0.00     0.302 C 
ATOM      9  O   UNL d   1     -40.578  14.768  19.770  0.00  0.00    -0.263 OA
BRANCH   8  10
ATOM     10  C   UNL d   1     -39.691  15.158  20.821  0.00  0.00     0.158 A 
ATOM     11  O   UNL d   1     -39.227  14.811  21.411  0.00  0.00    -0.300 OA
ATOM     12  C   UNL d   1     -39.300  15.287  22.093  0.00  0.00     0.123 A 
ATOM     13  C   UNL d   1     -39.817  15.920  21.894  0.00  0.00     0.029 A 
ATOM     14  C   UNL d   1     -40.033  15.814  21.128  0.00  0.00     0.032 A 
ENDBRANCH   8  10
ENDBRANCH   1   7
BRANCH   4  15
ATOM     15  O   UNL d   1     -38.522  13.400  18.855  0.00  0.00    -0.327 OA
ATOM     16  C   UNL d   1     -38.034  12.800  18.444  0.00  0.00     0.181 C 
ENDBRANCH   4  15
BRANCH   2  17
ATOM     17  N   UNL d   1     -40.618  15.209  17.017  0.00  0.00    -0.114 N 
ATOM     18  O   UNL d   1     -41.437  14.959  16.899  0.00  0.00    -0.532 OA
ATOM     19  O   UNL d   1     -40.326  15.922  16.682  0.00  0.00    -0.532 OA
ENDBRANCH   2  17
TORSDOF 4
ENDMDL
MODEL 6
REMARK VINA RESULT:      -5.2      9.020     10.502
REMARK  4 active torsions:
REMARK  status: ('A' for Active; 'I' for Inactive)
REMARK    1  A    between atoms: C_5  and  N_1 
REMARK       I    between atoms: C_2  and  N_3 
REMARK    2  A    between atoms: C_6  and  C_2 
REMARK    3  A    between atoms: N_3  and  C_4 
REMARK    4  A    between atoms: O_18  and  C_11 
ROOT
ATOM      1  C   UNL d   1     -40.004  15.038  18.369  0.00  0.00     0.108 A 
ATOM      2  C   UNL d   1     -40.549  15.277  19.606  0.00  0.00     0.128 A 
ATOM      3  C   UNL d   1     -40.001  14.895  19.170  0.00  0.00     0.045 A 
ATOM      4  C   UNL d   1     -40.525  15.533  18.028  0.00  0.00     0.112 A 
ATOM      5  C   UNL d   1     -41.077  15.768  19.325  0.00  0.00     0.026 A 
ATOM      6  C   UNL d   1     -41.090  15.921  18.511  0.00  0.00     0.027 A 
ENDROOT
BRANCH   1   7
ATOM      7  N   UNL d   1     -39.407  14.628  17.857  0.00  0.00    -0.204 NA
ATOM      8  C   UNL d   1     -39.333  13.799  17.932  0.00  0.00     0.302 C 
ATOM      9  O   UNL d   1     -39.819  13.418  18.477  0.00  0.00    -0.263 OA
BRANCH   8  10
ATOM     10  C   UNL d   1     -38.794  13.363  17.482  0.00  0.00     0.158 A 
ATOM     11  O   UNL d   1     -38.435  13.561  16.765  0.00  0.00    -0.300 OA
ATOM     12  C   UNL d   1     -37.940  12.923  16.553  0.00  0.00     0.123 A 
ATOM     13  C   UNL d   1     -38.014  12.345  17.160  0.00  0.00     0.029 A 
ATOM     14  C   UNL d   1     -38.531  12.639  17.699  0.00  0.00     0.032 A 
ENDBRANCH   8  10
ENDBRANCH   1   7
BRANCH   4  15
ATOM     15  O   UNL d   1     -40.537  15.686  17.213  0.00  0.00    -0.327 OA
ATOM     16  C   UNL d   1     -41.294  15.921  16.840  0.00  0.00     0.181 C 
ENDBRANCH   4  15
BRANCH   2  17
ATOM     17  N   UNL d   1     -40.540  15.115  20.486  0.00  0.00    -0.114 N 
ATOM     18  O   UNL d   1     -41.035  14.494  20.828  0.00  0.00    -0.532 OA
ATOM     19  O   UNL d   1     -40.035  15.585  20.966  0.00  0.00    -0.532 OA
ENDBRANCH   2  17
TORSDOF 4
ENDMDL
MODEL 7
REMARK VINA RESULT:      -5.0      8.649     10.189
REMARK  4 active torsions:
REMARK  status: ('A' for Active; 'I' for Inactive)
REMARK    1  A    between atoms: C_5  and  N_1 
REMARK       I    between atoms: C_2  and  N_3 
REMARK    2  A    between atoms: C_6  and  C_2 
REMARK    3  A    between atoms: N_3  and  C_4 
REMARK    4  A    between atoms: O_18  and  C_11 
ROOT
ATOM      1  C   UNL d   1     -39.988  14.470  20.101  0.00  0.00     0.108 A 
ATOM      2  C   UNL d   1     -39.974  14.481  18.728  0.00  0.00     0.128 A 
ATOM      3  C   UNL d   1     -39.680  14.180  19.405  0.00  0.00     0.045 A 
ATOM      4  C   UNL d   1     -40.555  15.028  20.114  0.00  0.00     0.112 A 
ATOM      5  C   UNL d   1     -40.525  15.024  18.685  0.00  0.00     0.026 A 
ATOM      6  C   UNL d   1     -40.845  15.327  19.387  0.00  0.00     0.027 A 
ENDROOT
BRANCH   1   7
ATOM      7  N   UNL d   1     -39.681  14.155  20.871  0.00  0.00    -0.204 NA
ATOM      8  C   UNL d   1     -38.861  14.218  21.019  0.00  0.00     0.302 C 
ATOM      9  O   UNL d   1     -38.392  14.569  20.439  0.00  0.00    -0.263 OA
BRANCH   8  10
ATOM     10  C   UNL d   1     -38.518  13.942  21.719  0.00  0.00     0.158 A 
ATOM     11  O   UNL d   1     -38.323  14.362  22.403  0.00  0.00    -0.300 OA
ATOM     12  C   UNL d   1     -37.991  13.816  22.940  0.00  0.00     0.123 A 
ATOM     13  C   UNL d   1     -37.994  13.067  22.559  0.00  0.00     0.029 A 
ATOM     14  C   UNL d   1     -38.315  13.176  21.831  0.00  0.00     0.032 A 
ENDBRANCH   8  10
ENDBRANCH   1   7
BRANCH   4  15
ATOM     15  O   UNL d   1     -40.875  15.331  20.816  0.00  0.00    -0.327 OA
ATOM     16  C   UNL d   1     -41.521  15.921  20.765  0.00  0.00     0.181 C 
ENDBRANCH   4  15
BRANCH   2  17
ATOM     17  N   UNL d   1     -39.631  14.157  17.967  0.00  0.00    -0.114 N 
ATOM     18  O   UNL d   1     -39.093  14.632  17.486  0.00  0.00    -0.532 OA
ATOM     19  O   UNL d   1     -39.851  13.379  17.738  0.00  0.00    -0.532 OA
ENDBRANCH   2  17
TORSDOF 4
ENDMDL
MODEL 8
REMARK VINA RESULT:      -4.9      9.994     11.098
REMARK  4 active torsions:
REMARK  status: ('A' for Active; 'I' for Inactive)
REMARK    1  A    between atoms: C_5  and  N_1 
REMARK       I    between atoms: C_2  and  N_3 
REMARK    2  A    between atoms: C_6  and  C_2 
REMARK    3  A    between atoms: N_3  and  C_4 
REMARK    4  A    between atoms: O_18  and  C_11 
ROOT
ATOM      1  C   UNL d   1     -38.970  14.304  18.507  0.00  0.00     0.108 A 
ATOM      2  C   UNL d   1     -38.629  14.265  19.837  0.00  0.00     0.128 A 
ATOM      3  C   UNL d   1     -38.972  14.664  19.238  0.00  0.00     0.045 A 
ATOM      4  C   UNL d   1     -38.644  13.588  18.388  0.00  0.00     0.112 A 
ATOM      5  C   UNL d   1     -38.297  13.568  19.774  0.00  0.00     0.026 A 
ATOM      6  C   UNL d   1     -38.290  13.192  19.036  0.00  0.00     0.027 A 
ENDROOT
BRANCH   1   7
ATOM      7  N   UNL d   1     -39.345  14.722  17.821  0.00  0.00    -0.204 NA
ATOM      8  C   UNL d   1     -40.151  14.932  17.885  0.00  0.00     0.302 C 
ATOM      9  O   UNL d   1     -40.544  14.737  18.582  0.00  0.00    -0.263 OA
BRANCH   8  10
ATOM     10  C   UNL d   1     -40.554  15.323  17.278  0.00  0.00     0.158 A 
ATOM     11  O   UNL d   1     -40.280  15.543  16.530  0.00  0.00    -0.300 OA
ATOM     12  C   UNL d   1     -40.913  15.922  16.139  0.00  0.00     0.123 A 
ATOM     13  C   UNL d   1     -41.564  15.921  16.671  0.00  0.00     0.029 A 
ATOM     14  C   UNL d   1     -41.317  15.556  17.342  0.00  0.00     0.032 A 
ENDBRANCH   8  10
ENDBRANCH   1   7
BRANCH   4  15
ATOM     15  O   UNL d   1     -38.636  13.212  17.649  0.00  0.00    -0.327 OA
ATOM     16  C   UNL d   1     -38.099  12.531  17.528  0.00  0.00     0.181 C 
ENDBRANCH   4  15
BRANCH   2  17
ATOM     17  N   UNL d   1     -38.634  14.667  20.636  0.00  0.00    -0.114 N 
ATOM     18  O   UNL d   1     -38.271  15.443  20.744  0.00  0.00    -0.532 OA
ATOM     19  O   UNL d   1     -39.004  14.265  21.275  0.00  0.00    -0.532 OA
ENDBRANCH   2  17
TORSDOF 4
ENDMDL
MODEL 9
REMARK VINA RESULT:      -4.8      8.570     10.205
REMARK  4 active torsions:
REMARK  status: ('A' for Active; 'I' for Inactive)
REMARK    1  A    between atoms: C_5  and  N_1 
REMARK       I    between atoms: C_2  and  N_3 
REMARK    2  A    between atoms: C_6  and  C_2 
REMARK    3  A    between atoms: N_3  and  C_4 
REMARK    4  A    between atoms: O_18  and  C_11 
ROOT
ATOM      1  C   UNL d   1     -39.469  14.432  19.961  0.00  0.00     0.108 A 
ATOM      2  C   UNL d   1     -40.520  14.707  20.802  0.00  0.00     0.128 A 
ATOM      3  C   UNL d   1     -40.209  14.756  20.070  0.00  0.00     0.045 A 
ATOM      4  C   UNL d   1     -39.069  14.081  20.553  0.00  0.00     0.112 A 
ATOM      5  C   UNL d   1     -40.173  14.377  21.411  0.00  0.00     0.026 A 
ATOM      6  C   UNL d   1     -39.420  14.044  21.313  0.00  0.00     0.027 A 
ENDROOT
BRANCH   1   7
ATOM      7  N   UNL d   1     -39.096  14.471  19.157  0.00  0.00    -0.204 NA
ATOM      8  C   UNL d   1     -39.524  14.155  18.514  0.00  0.00     0.302 C 
ATOM      9  O   UNL d   1     -40.265  13.828  18.668  0.00  0.00    -0.263 OA
BRANCH   8  10
ATOM     10  C   UNL d   1     -39.228  14.163  17.742  0.00  0.00     0.158 A 
ATOM     11  O   UNL d   1     -39.095  14.807  17.242  0.00  0.00    -0.300 OA
ATOM     12  C   UNL d   1     -38.791  14.505  16.526  0.00  0.00     0.123 A 
ATOM     13  C   UNL d   1     -38.748  13.669  16.613  0.00  0.00     0.029 A 
ATOM     14  C   UNL d   1     -39.016  13.497  17.351  0.00  0.00     0.032 A 
ENDBRANCH   8  10
ENDBRANCH   1   7
BRANCH   4  15
ATOM     15  O   UNL d   1     -38.316  13.749  20.454  0.00  0.00    -0.327 OA
ATOM     16  C   UNL d   1     -37.939  13.348  21.136  0.00  0.00     0.181 C 
ENDBRANCH   4  15
BRANCH   2  17
ATOM     17  N   UNL d   1     -41.332  15.065  20.913  0.00  0.00    -0.114 N 
ATOM     18  O   UNL d   1     -41.441  15.922  20.925  0.00  0.00    -0.532 OA
ATOM     19  O   UNL d   1     -41.982  14.540  21.004  0.00  0.00    -0.532 OA
ENDBRANCH   2  17
TORSDOF 4
ENDMDL
