MODEL 1
REMARK VINA RESULT:       7.7      0.000      0.000
REMARK  3 active torsions:
REMARK  status: ('A' for Active; 'I' for Inactive)
REMARK    1  A    between atoms: C_6  and  C_1 
REMARK    2  A    between atoms: O_9  and  C_6 
REMARK    3  A    between atoms: C_12  and  O_9 
ROOT
ATOM      1  C   UNL d   1      44.055 -15.504  36.735  0.00  0.00     0.182 A 
ATOM      2  C   UNL d   1      44.808 -15.851  36.617  0.00  0.00     0.133 A 
ATOM      3  O   UNL d   1      44.172 -14.734  37.029  0.00  0.00    -0.300 OA
ATOM      4  C   UNL d   1      45.382 -15.296  36.839  0.00  0.00     0.044 A 
ATOM      5  C   UNL d   1      44.994 -14.603  37.095  0.00  0.00     0.102 A 
ATOM      6  N   UNL d   1      44.954 -16.612  36.331  0.00  0.00    -0.146 N 
ATOM      7  C   UNL d   1      46.199 -15.320  36.845  0.00  0.00     0.004 A 
ATOM      8  C   UNL d   1      45.436 -13.961  37.347  0.00  0.00     0.025 A 
ATOM      9  C   UNL d   1      46.639 -14.675  37.098  0.00  0.00     0.000 A 
ATOM     10  C   UNL d   1      46.253 -13.987  37.352  0.00  0.00     0.002 A 
ENDROOT
BRANCH   1  11
ATOM     11  C   UNL d   1      43.326 -15.859  36.587  0.00  0.00     0.325 C 
ATOM     12  O   UNL d   1      43.297 -16.648  36.372  0.00  0.00    -0.257 OA
BRANCH  11  13
ATOM     13  O   UNL d   1      42.632 -15.421  36.655  0.00  0.00    -0.269 OA
BRANCH  13  14
ATOM     14  C   UNL d   1      41.931 -15.709  36.330  0.00  0.00     0.126 C 
ATOM     15  C   UNL d   1      41.245 -15.252  36.356  0.00  0.00     0.029 C 
ENDBRANCH  13  14
ENDBRANCH  11  13
ENDBRANCH   1  11
TORSDOF 3
ENDMDL
MODEL 2
REMARK VINA RESULT:       8.9      7.114      7.808
REMARK  3 active torsions:
REMARK  status: ('A' for Active; 'I' for Inactive)
REMARK    1  A    between atoms: C_6  and  C_1 
REMARK    2  A    between atoms: O_9  and  C_6 
REMARK    3  A    between atoms: C_12  and  O_9 
ROOT
ATOM      1  C   UNL d   1      45.212 -14.645  44.253  0.00  0.00     0.182 A 
ATOM      2  C   UNL d   1      45.767 -14.040  44.421  0.00  0.00     0.133 A 
ATOM      3  O   UNL d   1      44.679 -14.351  43.685  0.00  0.00    -0.300 OA
ATOM      4  C   UNL d   1      45.573 -13.380  43.958  0.00  0.00     0.044 A 
ATOM      5  C   UNL d   1      44.900 -13.568  43.501  0.00  0.00     0.102 A 
ATOM      6  N   UNL d   1      46.396 -14.092  44.953  0.00  0.00    -0.146 N 
ATOM      7  C   UNL d   1      45.910 -12.639  43.887  0.00  0.00     0.004 A 
ATOM      8  C   UNL d   1      44.590 -13.007  42.991  0.00  0.00     0.025 A 
ATOM      9  C   UNL d   1      45.596 -12.081  43.374  0.00  0.00     0.000 A 
ATOM     10  C   UNL d   1      44.927 -12.267  42.920  0.00  0.00     0.002 A 
ENDROOT
BRANCH   1  11
ATOM     11  C   UNL d   1      45.195 -15.398  44.588  0.00  0.00     0.325 C 
ATOM     12  O   UNL d   1      44.511 -15.662  44.953  0.00  0.00    -0.257 OA
BRANCH  11  13
ATOM     13  O   UNL d   1      45.861 -15.880  44.555  0.00  0.00    -0.269 OA
BRANCH  13  14
ATOM     14  C   UNL d   1      45.793 -16.685  44.721  0.00  0.00     0.126 C 
ATOM     15  C   UNL d   1      46.170 -17.239  44.240  0.00  0.00     0.029 C 
ENDBRANCH  13  14
ENDBRANCH  11  13
ENDBRANCH   1  11
TORSDOF 3
ENDMDL
MODEL 3
REMARK VINA RESULT:       8.9      7.130      7.906
REMARK  3 active torsions:
REMARK  status: ('A' for Active; 'I' for Inactive)
REMARK    1  A    between atoms: C_6  and  C_1 
REMARK    2  A    between atoms: O_9  and  C_6 
REMARK    3  A    between atoms: C_12  and  O_9 
ROOT
ATOM      1  C   UNL d   1      45.259 -13.249  44.060  0.00  0.00     0.182 A 
ATOM      2  C   UNL d   1      45.828 -13.839  44.234  0.00  0.00     0.133 A 
ATOM      3  O   UNL d   1      44.505 -13.570  44.209  0.00  0.00    -0.300 OA
ATOM      4  C   UNL d   1      45.422 -14.517  44.488  0.00  0.00     0.044 A 
ATOM      5  C   UNL d   1      44.604 -14.355  44.473  0.00  0.00     0.102 A 
ATOM      6  N   UNL d   1      46.647 -13.760  44.166  0.00  0.00    -0.146 N 
ATOM      7  C   UNL d   1      45.679 -15.254  44.728  0.00  0.00     0.004 A 
ATOM      8  C   UNL d   1      44.074 -14.937  44.700  0.00  0.00     0.025 A 
ATOM      9  C   UNL d   1      45.145 -15.834  44.955  0.00  0.00     0.000 A 
ATOM     10  C   UNL d   1      44.332 -15.674  44.940  0.00  0.00     0.002 A 
ENDROOT
BRANCH   1  11
ATOM     11  C   UNL d   1      45.415 -12.486  43.790  0.00  0.00     0.325 C 
ATOM     12  O   UNL d   1      46.085 -12.094  44.050  0.00  0.00    -0.257 OA
BRANCH  11  13
ATOM     13  O   UNL d   1      44.899 -12.122  43.262  0.00  0.00    -0.269 OA
BRANCH  13  14
ATOM     14  C   UNL d   1      45.082 -12.100  42.458  0.00  0.00     0.126 C 
ATOM     15  C   UNL d   1      44.478 -12.080  41.897  0.00  0.00     0.029 C 
ENDBRANCH  13  14
ENDBRANCH  11  13
ENDBRANCH   1  11
TORSDOF 3
ENDMDL
MODEL 4
REMARK VINA RESULT:       9.9      0.893      3.217
REMARK  3 active torsions:
REMARK  status: ('A' for Active; 'I' for Inactive)
REMARK    1  A    between atoms: C_6  and  C_1 
REMARK    2  A    between atoms: O_9  and  C_6 
REMARK    3  A    between atoms: C_12  and  O_9 
ROOT
ATOM      1  C   UNL d   1      44.737 -15.364  36.879  0.00  0.00     0.182 A 
ATOM      2  C   UNL d   1      44.388 -16.074  36.605  0.00  0.00     0.133 A 
ATOM      3  O   UNL d   1      44.127 -14.810  36.998  0.00  0.00    -0.300 OA
ATOM      4  C   UNL d   1      43.569 -15.954  36.558  0.00  0.00     0.044 A 
ATOM      5  C   UNL d   1      43.403 -15.174  36.800  0.00  0.00     0.102 A 
ATOM      6  N   UNL d   1      44.789 -16.771  36.415  0.00  0.00    -0.146 N 
ATOM      7  C   UNL d   1      42.954 -16.441  36.330  0.00  0.00     0.004 A 
ATOM      8  C   UNL d   1      42.627 -14.909  36.806  0.00  0.00     0.025 A 
ATOM      9  C   UNL d   1      42.178 -16.172  36.337  0.00  0.00     0.000 A 
ATOM     10  C   UNL d   1      42.013 -15.397  36.578  0.00  0.00     0.002 A 
ENDROOT
BRANCH   1  11
ATOM     11  C   UNL d   1      45.541 -15.232  37.007  0.00  0.00     0.325 C 
ATOM     12  O   UNL d   1      45.967 -15.758  37.467  0.00  0.00    -0.257 OA
BRANCH  11  13
ATOM     13  O   UNL d   1      45.911 -14.576  36.675  0.00  0.00    -0.269 OA
BRANCH  13  14
ATOM     14  C   UNL d   1      46.573 -14.249  37.042  0.00  0.00     0.126 C 
ATOM     15  C   UNL d   1      46.647 -13.431  37.107  0.00  0.00     0.029 C 
ENDBRANCH  13  14
ENDBRANCH  11  13
ENDBRANCH   1  11
TORSDOF 3
ENDMDL
