MODEL 1
REMARK VINA RESULT:      92.4      0.000      0.000
REMARK  7 active torsions:
REMARK  status: ('A' for Active; 'I' for Inactive)
REMARK    1  A    between atoms: C_7  and  C_1 
REMARK    2  A    between atoms: N_5  and  C_2 
REMARK       I    between atoms: C_8  and  N_5 
REMARK    3  A    between atoms: N_9  and  C_7 
REMARK    4  A    between atoms: C_11  and  C_7 
REMARK    5  A    between atoms: C_16  and  C_8 
REMARK    6  A    between atoms: C_21  and  N_10 
REMARK    7  A    between atoms: C_27  and  C_21 
ROOT
ATOM      1  C   UNL d   1     -52.122  24.557  34.070  0.00  0.00     0.042 A 
ATOM      2  C   UNL d   1     -51.877  25.225  33.643  0.00  0.00     0.115 A 
ATOM      3  C   UNL d   1     -51.552  23.988  33.995  0.00  0.00     0.009 A 
ATOM      4  S   UNL d   1     -51.159  25.057  33.312  0.00  0.00    -0.068 SA
ATOM      5  C   UNL d   1     -50.957  24.277  33.536  0.00  0.00     0.031 A 
ATOM      6  C   UNL d   1     -51.562  23.192  34.345  0.00  0.00     0.001 C 
ATOM      7  C   UNL d   1     -50.272  23.888  33.319  0.00  0.00     0.007 C 
ENDROOT
BRANCH   1   8
ATOM      8  C   UNL d   1     -52.836  24.552  34.473  0.00  0.00     0.084 C 
BRANCH   8   9
ATOM      9  N   UNL d   1     -52.825  24.722  35.277  0.00  0.00    -0.300 N 
ATOM     10  C   UNL d   1     -52.567  25.459  35.555  0.00  0.00     0.100 A 
ATOM     11  C   UNL d   1     -52.567  25.599  36.363  0.00  0.00     0.100 A 
ATOM     12  N   UNL d   1     -52.811  25.040  36.893  0.00  0.00    -0.297 N 
ATOM     13  C   UNL d   1     -53.070  24.303  36.615  0.00  0.00     0.100 A 
ATOM     14  C   UNL d   1     -53.081  24.134  35.811  0.00  0.00     0.100 A 
BRANCH  12  15
ATOM     15  C   UNL d   1     -52.806  25.200  37.719  0.00  0.00     0.126 C 
BRANCH  15  16
ATOM     16  C   UNL d   1     -52.334  25.802  38.034  0.00  0.00     0.253 C 
ATOM     17  O   UNL d   1     -51.717  25.619  38.537  0.00  0.00    -0.281 OA
ENDBRANCH  15  16
ENDBRANCH  12  15
ENDBRANCH   8   9
BRANCH   8  18
ATOM     18  C   UNL d   1     -53.546  24.382  34.083  0.00  0.00     0.098 A 
ATOM     19  N   UNL d   1     -53.825  23.620  34.066  0.00  0.00    -0.243 NA
ATOM     20  C   UNL d   1     -54.535  23.480  33.670  0.00  0.00     0.099 A 
ATOM     21  C   UNL d   1     -54.940  24.047  33.316  0.00  0.00     0.021 A 
ATOM     22  C   UNL d   1     -54.669  24.826  33.325  0.00  0.00     0.003 A 
ATOM     23  C   UNL d   1     -53.962  24.996  33.714  0.00  0.00     0.021 A 
ENDBRANCH   8  18
ENDBRANCH   1   8
BRANCH   2  24
ATOM     24  N   UNL d   1     -52.349  25.878  33.626  0.00  0.00    -0.201 NA
ATOM     25  C   UNL d   1     -51.982  26.621  33.599  0.00  0.00     0.280 C 
ATOM     26  O   UNL d   1     -52.435  27.294  33.582  0.00  0.00    -0.265 OA
BRANCH  25  27
ATOM     27  C   UNL d   1     -51.155  26.679  33.591  0.00  0.00     0.058 A 
ATOM     28  C   UNL d   1     -50.698  26.048  33.333  0.00  0.00     0.005 A 
ATOM     29  C   UNL d   1     -49.863  26.104  33.323  0.00  0.00     0.000 A 
ATOM     30  C   UNL d   1     -49.498  26.797  33.575  0.00  0.00     0.000 A 
ATOM     31  C   UNL d   1     -49.966  27.427  33.832  0.00  0.00     0.000 A 
ATOM     32  C   UNL d   1     -50.790  27.377  33.844  0.00  0.00     0.005 A 
ENDBRANCH  25  27
ENDBRANCH   2  24
TORSDOF 7
ENDMDL
