MODEL 1
REMARK VINA RESULT:      -2.8      0.000      0.000
REMARK  2 active torsions:
REMARK  status: ('A' for Active; 'I' for Inactive)
REMARK    1  A    between atoms: N_11  and  C_2 
REMARK    2  A    between atoms: C_16  and  N_11 
ROOT
ATOM      1  C   UNL d   1      33.232  20.120 -23.047  0.00  0.00     0.024 A 
ATOM      2  C   UNL d   1      33.236  19.313 -23.181  0.00  0.00     0.139 A 
ATOM      3  C   UNL d   1      33.228  20.416 -22.280  0.00  0.00     0.022 A 
ATOM      4  C   UNL d   1      33.235  18.786 -22.550  0.00  0.00     0.297 A 
ATOM      5  C   UNL d   1      33.234  20.650 -23.688  0.00  0.00     0.005 A 
ATOM      6  C   UNL d   1      33.224  21.229 -22.145  0.00  0.00     0.041 A 
ATOM      7  C   UNL d   1      33.225  21.763 -22.775  0.00  0.00     0.196 A 
ATOM      8  N   UNL d   1      33.230  19.081 -21.783  0.00  0.00    -0.207 NA
ATOM      9  C   UNL d   1      33.227  19.888 -21.650  0.00  0.00     0.085 A 
ATOM     10  C   UNL d   1      33.230  21.463 -23.554  0.00  0.00     0.039 A 
ATOM     11  O   UNL d   1      33.238  17.979 -22.684  0.00  0.00    -0.264 OA
ATOM     12  O   UNL d   1      33.221  22.591 -22.638  0.00  0.00    -0.287 OA
ATOM     13  C   UNL d   1      33.219  21.531 -21.377  0.00  0.00     0.003 A 
ATOM     14  C   UNL d   1      33.238  20.353 -24.455  0.00  0.00     0.000 A 
ATOM     15  C   UNL d   1      33.222  20.184 -20.877  0.00  0.00     0.019 A 
ATOM     16  C   UNL d   1      33.231  21.996 -24.183  0.00  0.00     0.003 A 
ATOM     17  C   UNL d   1      33.218  20.997 -20.742  0.00  0.00     0.002 A 
ATOM     18  C   UNL d   1      33.240  20.883 -25.092  0.00  0.00     0.000 A 
ATOM     19  C   UNL d   1      33.236  21.696 -24.957  0.00  0.00     0.000 A 
ENDROOT
BRANCH   2  20
ATOM     20  N   UNL d   1      33.241  19.019 -23.959  0.00  0.00    -0.241 NA
BRANCH  20  21
ATOM     21  C   UNL d   1      32.711  18.437 -24.181  0.00  0.00     0.082 A 
ATOM     22  C   UNL d   1      33.005  17.734 -24.500  0.00  0.00     0.019 A 
ATOM     23  C   UNL d   1      32.488  17.129 -24.733  0.00  0.00     0.002 A 
ATOM     24  C   UNL d   1      31.652  17.238 -24.641  0.00  0.00     0.000 A 
ATOM     25  C   UNL d   1      31.371  17.931 -24.327  0.00  0.00     0.002 A 
ATOM     26  C   UNL d   1      31.891  18.540 -24.093  0.00  0.00     0.019 A 
ENDBRANCH  20  21
ENDBRANCH   2  20
TORSDOF 2
ENDMDL
MODEL 2
REMARK VINA RESULT:      -0.5      1.558      4.296
REMARK  2 active torsions:
REMARK  status: ('A' for Active; 'I' for Inactive)
REMARK    1  A    between atoms: N_11  and  C_2 
REMARK    2  A    between atoms: C_16  and  N_11 
ROOT
ATOM      1  C   UNL d   1      33.235  21.089 -22.544  0.00  0.00     0.024 A 
ATOM      2  C   UNL d   1      33.237  21.843 -22.225  0.00  0.00     0.139 A 
ATOM      3  C   UNL d   1      33.231  20.981 -23.360  0.00  0.00     0.022 A 
ATOM      4  C   UNL d   1      33.236  22.503 -22.716  0.00  0.00     0.297 A 
ATOM      5  C   UNL d   1      33.236  20.424 -22.045  0.00  0.00     0.005 A 
ATOM      6  C   UNL d   1      33.228  20.222 -23.682  0.00  0.00     0.041 A 
ATOM      7  C   UNL d   1      33.229  19.556 -23.194  0.00  0.00     0.196 A 
ATOM      8  N   UNL d   1      33.232  22.395 -23.530  0.00  0.00    -0.207 NA
ATOM      9  C   UNL d   1      33.230  21.642 -23.849  0.00  0.00     0.085 A 
ATOM     10  C   UNL d   1      33.233  19.665 -22.367  0.00  0.00     0.039 A 
ATOM     11  O   UNL d   1      33.238  23.256 -22.397  0.00  0.00    -0.264 OA
ATOM     12  O   UNL d   1      33.227  18.783 -23.521  0.00  0.00    -0.287 OA
ATOM     13  C   UNL d   1      33.224  20.109 -24.498  0.00  0.00     0.003 A 
ATOM     14  C   UNL d   1      33.240  20.533 -21.230  0.00  0.00     0.000 A 
ATOM     15  C   UNL d   1      33.226  21.535 -24.670  0.00  0.00     0.019 A 
ATOM     16  C   UNL d   1      33.234  19.000 -21.880  0.00  0.00     0.003 A 
ATOM     17  C   UNL d   1      33.223  20.777 -24.991  0.00  0.00     0.002 A 
ATOM     18  C   UNL d   1      33.241  19.869 -20.735  0.00  0.00     0.000 A 
ATOM     19  C   UNL d   1      33.238  19.110 -21.056  0.00  0.00     0.000 A 
ENDROOT
BRANCH   2  20
ATOM     20  N   UNL d   1      33.241  21.946 -21.401  0.00  0.00    -0.241 NA
BRANCH  20  21
ATOM     21  C   UNL d   1      32.683  22.427 -21.045  0.00  0.00     0.082 A 
ATOM     22  C   UNL d   1      32.931  22.959 -20.464  0.00  0.00     0.019 A 
ATOM     23  C   UNL d   1      32.384  23.457 -20.088  0.00  0.00     0.002 A 
ATOM     24  C   UNL d   1      31.566  23.415 -20.306  0.00  0.00     0.000 A 
ATOM     25  C   UNL d   1      31.330  22.890 -20.877  0.00  0.00     0.002 A 
ATOM     26  C   UNL d   1      31.880  22.389 -21.255  0.00  0.00     0.019 A 
ENDBRANCH  20  21
ENDBRANCH   2  20
TORSDOF 2
ENDMDL
MODEL 3
REMARK VINA RESULT:      -0.4      3.299      4.425
REMARK  2 active torsions:
REMARK  status: ('A' for Active; 'I' for Inactive)
REMARK    1  A    between atoms: N_11  and  C_2 
REMARK    2  A    between atoms: C_16  and  N_11 
ROOT
ATOM      1  C   UNL d   1      30.999  16.876 -23.770  0.00  0.00     0.024 A 
ATOM      2  C   UNL d   1      30.338  16.510 -23.458  0.00  0.00     0.139 A 
ATOM      3  C   UNL d   1      31.749  16.559 -23.648  0.00  0.00     0.022 A 
ATOM      4  C   UNL d   1      30.412  15.820 -23.016  0.00  0.00     0.297 A 
ATOM      5  C   UNL d   1      30.920  17.573 -24.216  0.00  0.00     0.005 A 
ATOM      6  C   UNL d   1      32.416  16.927 -23.962  0.00  0.00     0.041 A 
ATOM      7  C   UNL d   1      32.346  17.620 -24.406  0.00  0.00     0.196 A 
ATOM      8  N   UNL d   1      31.160  15.503 -22.894  0.00  0.00    -0.207 NA
ATOM      9  C   UNL d   1      31.822  15.869 -23.206  0.00  0.00     0.085 A 
ATOM     10  C   UNL d   1      31.587  17.941 -24.531  0.00  0.00     0.039 A 
ATOM     11  O   UNL d   1      29.750  15.455 -22.704  0.00  0.00    -0.264 OA
ATOM     12  O   UNL d   1      33.026  17.995 -24.727  0.00  0.00    -0.287 OA
ATOM     13  C   UNL d   1      33.169  16.613 -23.842  0.00  0.00     0.003 A 
ATOM     14  C   UNL d   1      30.171  17.890 -24.338  0.00  0.00     0.000 A 
ATOM     15  C   UNL d   1      32.574  15.548 -23.082  0.00  0.00     0.019 A 
ATOM     16  C   UNL d   1      31.518  18.634 -24.974  0.00  0.00     0.003 A 
ATOM     17  C   UNL d   1      33.241  15.916 -23.396  0.00  0.00     0.002 A 
ATOM     18  C   UNL d   1      30.095  18.585 -24.782  0.00  0.00     0.000 A 
ATOM     19  C   UNL d   1      30.761  18.953 -25.097  0.00  0.00     0.000 A 
ENDROOT
BRANCH   2  20
ATOM     20  N   UNL d   1      29.583  16.835 -23.584  0.00  0.00    -0.241 NA
BRANCH  20  21
ATOM     21  C   UNL d   1      28.995  16.384 -23.930  0.00  0.00     0.082 A 
ATOM     22  C   UNL d   1      28.267  16.320 -23.546  0.00  0.00     0.019 A 
ATOM     23  C   UNL d   1      27.654  15.868 -23.876  0.00  0.00     0.002 A 
ATOM     24  C   UNL d   1      27.782  15.471 -24.613  0.00  0.00     0.000 A 
ATOM     25  C   UNL d   1      28.499  15.538 -24.985  0.00  0.00     0.002 A 
ATOM     26  C   UNL d   1      29.116  15.993 -24.653  0.00  0.00     0.019 A 
ENDBRANCH  20  21
ENDBRANCH   2  20
TORSDOF 2
ENDMDL
MODEL 4
REMARK VINA RESULT:       0.1      1.201      3.376
REMARK  2 active torsions:
REMARK  status: ('A' for Active; 'I' for Inactive)
REMARK    1  A    between atoms: N_11  and  C_2 
REMARK    2  A    between atoms: C_16  and  N_11 
ROOT
ATOM      1  C   UNL d   1      33.057  19.678 -22.897  0.00  0.00     0.024 A 
ATOM      2  C   UNL d   1      33.148  20.059 -22.179  0.00  0.00     0.139 A 
ATOM      3  C   UNL d   1      32.965  18.860 -22.928  0.00  0.00     0.022 A 
ATOM      4  C   UNL d   1      33.149  19.630 -21.477  0.00  0.00     0.297 A 
ATOM      5  C   UNL d   1      33.057  20.114 -23.605  0.00  0.00     0.005 A 
ATOM      6  C   UNL d   1      32.873  18.477 -23.651  0.00  0.00     0.041 A 
ATOM      7  C   UNL d   1      32.872  18.902 -24.359  0.00  0.00     0.196 A 
ATOM      8  N   UNL d   1      33.057  18.814 -21.507  0.00  0.00    -0.207 NA
ATOM      9  C   UNL d   1      32.966  18.433 -22.225  0.00  0.00     0.085 A 
ATOM     10  C   UNL d   1      32.965  19.731 -24.328  0.00  0.00     0.039 A 
ATOM     11  O   UNL d   1      33.240  20.011 -20.759  0.00  0.00    -0.264 OA
ATOM     12  O   UNL d   1      32.779  18.511 -25.096  0.00  0.00    -0.287 OA
ATOM     13  C   UNL d   1      32.781  17.658 -23.687  0.00  0.00     0.003 A 
ATOM     14  C   UNL d   1      33.149  20.931 -23.574  0.00  0.00     0.000 A 
ATOM     15  C   UNL d   1      32.874  17.612 -22.254  0.00  0.00     0.019 A 
ATOM     16  C   UNL d   1      32.964  20.155 -25.035  0.00  0.00     0.003 A 
ATOM     17  C   UNL d   1      32.782  17.228 -22.977  0.00  0.00     0.002 A 
ATOM     18  C   UNL d   1      33.148  21.364 -24.280  0.00  0.00     0.000 A 
ATOM     19  C   UNL d   1      33.057  20.980 -25.003  0.00  0.00     0.000 A 
ENDROOT
BRANCH   2  20
ATOM     20  N   UNL d   1      33.241  20.884 -22.154  0.00  0.00    -0.241 NA
BRANCH  20  21
ATOM     21  C   UNL d   1      32.817  21.328 -21.613  0.00  0.00     0.082 A 
ATOM     22  C   UNL d   1      33.228  21.842 -21.114  0.00  0.00     0.019 A 
ATOM     23  C   UNL d   1      32.821  22.303 -20.557  0.00  0.00     0.002 A 
ATOM     24  C   UNL d   1      31.977  22.243 -20.505  0.00  0.00     0.000 A 
ATOM     25  C   UNL d   1      31.580  21.737 -20.999  0.00  0.00     0.002 A 
ATOM     26  C   UNL d   1      31.990  21.273 -21.559  0.00  0.00     0.019 A 
ENDBRANCH  20  21
ENDBRANCH   2  20
TORSDOF 2
ENDMDL
