MODEL 1
REMARK VINA RESULT:      61.0      0.000      0.000
REMARK  8 active torsions:
REMARK  status: ('A' for Active; 'I' for Inactive)
REMARK    1  A    between atoms: N_5  and  C_1 
REMARK    2  A    between atoms: C_2  and  N_5 
REMARK    3  A    between atoms: N_3  and  C_2 
REMARK       I    between atoms: C_6  and  N_3 
REMARK    4  A    between atoms: C_13  and  C_6 
REMARK    5  A    between atoms: C_9  and  C_7 
REMARK    6  A    between atoms: C_11  and  C_9 
REMARK    7  A    between atoms: O_21  and  C_11 
REMARK    8  A    between atoms: C_23  and  O_21 
ROOT
ATOM      1  C   UNL d   1      60.313  49.502  50.864  0.00  0.00     0.225 C 
ATOM      2  S   UNL d   1      60.334  49.466  51.676  0.00  0.00    -0.037 SA
ENDROOT
BRANCH   1   3
ATOM      3  N   UNL d   1      61.013  49.429  50.434  0.00  0.00    -0.192 NA
BRANCH   3   4
ATOM      4  C   UNL d   1      61.403  48.689  50.398  0.00  0.00     0.196 A 
ATOM      5  N   UNL d   1      61.182  48.046  49.963  0.00  0.00    -0.220 NA
ATOM      6  C   UNL d   1      61.721  47.466  50.102  0.00  0.00     0.095 A 
ATOM      7  C   UNL d   1      62.279  47.762  50.632  0.00  0.00     0.058 A 
ATOM      8  S   UNL d   1      62.072  48.516  50.806  0.00  0.00    -0.046 SA
BRANCH   6   9
ATOM      9  C   UNL d   1      61.697  46.701  49.757  0.00  0.00     0.088 C 
BRANCH   9  10
ATOM     10  C   UNL d   1      61.374  46.068  50.143  0.00  0.00     0.302 C 
ATOM     11  O   UNL d   1      61.287  46.051  50.956  0.00  0.00    -0.259 OA
BRANCH  10  12
ATOM     12  O   UNL d   1      61.116  45.401  49.702  0.00  0.00    -0.271 OA
BRANCH  12  13
ATOM     13  C   UNL d   1      61.046  44.673  50.089  0.00  0.00     0.126 C 
ATOM     14  C   UNL d   1      60.418  44.189  49.868  0.00  0.00     0.029 C 
ENDBRANCH  12  13
ENDBRANCH  10  12
ENDBRANCH   9  10
ENDBRANCH   6   9
ENDBRANCH   3   4
ENDBRANCH   1   3
BRANCH   1  15
ATOM     15  N   UNL d   1      59.616  49.609  50.468  0.00  0.00    -0.179 NA
ATOM     16  C   UNL d   1      58.917  49.283  50.780  0.00  0.00     0.281 C 
ATOM     17  O   UNL d   1      58.939  48.860  51.480  0.00  0.00    -0.265 OA
BRANCH  16  18
ATOM     18  C   UNL d   1      58.197  49.389  50.378  0.00  0.00     0.058 A 
ATOM     19  C   UNL d   1      58.179  49.446  49.548  0.00  0.00     0.007 A 
ATOM     20  C   UNL d   1      57.449  49.551  49.170  0.00  0.00     0.030 A 
ATOM     21  C   UNL d   1      56.746  49.598  49.613  0.00  0.00     0.140 A 
ATOM     22  C   UNL d   1      56.777  49.540  50.426  0.00  0.00     0.030 A 
ATOM     23  F   UNL d   1      56.035  49.700  49.244  0.00  0.00    -0.204 F 
ATOM     24  C   UNL d   1      57.491  49.437  50.815  0.00  0.00     0.007 A 
ENDBRANCH  16  18
ENDBRANCH   1  15
TORSDOF 8
ENDMDL
