MODEL 1
REMARK VINA RESULT:      36.7      0.000      0.000
REMARK  4 active torsions:
REMARK  status: ('A' for Active; 'I' for Inactive)
REMARK    1  A    between atoms: N_8  and  C_3 
REMARK    2  A    between atoms: C_9  and  C_4 
REMARK    3  A    between atoms: C_15  and  N_8 
REMARK    4  A    between atoms: C_10  and  C_15 
ROOT
ATOM      1  C   UNL d   1     -54.867-101.689 -43.949  0.00  0.00     0.192 A 
ATOM      2  N   UNL d   1     -54.882-102.142 -43.272  0.00  0.00    -0.208 NA
ATOM      3  C   UNL d   1     -54.765-100.907 -43.744  0.00  0.00     0.212 A 
ATOM      4  C   UNL d   1     -54.783-101.616 -42.613  0.00  0.00     0.185 A 
ATOM      5  O   UNL d   1     -54.711-100.844 -42.923  0.00  0.00    -0.269 OA
ATOM      6  C   UNL d   1     -54.944-101.962 -44.736  0.00  0.00     0.124 C 
ATOM      7  N   UNL d   1     -55.020-102.242 -45.517  0.00  0.00    -0.190 NA
ENDROOT
BRANCH   3   8
ATOM      8  N   UNL d   1     -54.722-100.266 -44.305  0.00  0.00    -0.217 NA
BRANCH   8   9
ATOM      9  C   UNL d   1     -55.007 -99.527 -44.109  0.00  0.00     0.126 C 
BRANCH   9  10
ATOM     10  C   UNL d   1     -55.663 -99.226 -44.518  0.00  0.00     0.119 A 
ATOM     11  O   UNL d   1     -55.797 -99.031 -45.304  0.00  0.00    -0.304 OA
ATOM     12  C   UNL d   1     -56.566 -98.756 -45.373  0.00  0.00     0.123 A 
ATOM     13  C   UNL d   1     -56.914 -98.775 -44.649  0.00  0.00     0.029 A 
ATOM     14  C   UNL d   1     -56.376 -99.061 -44.107  0.00  0.00     0.028 A 
ENDBRANCH   9  10
ENDBRANCH   8   9
ENDBRANCH   3   8
BRANCH   4  15
ATOM     15  C   UNL d   1     -54.766-101.851 -41.819  0.00  0.00     0.041 A 
ATOM     16  C   UNL d   1     -54.738-101.288 -41.218  0.00  0.00     0.004 A 
ATOM     17  C   UNL d   1     -54.720-101.519 -40.431  0.00  0.00     0.000 A 
ATOM     18  C   UNL d   1     -54.731-102.316 -40.235  0.00  0.00     0.000 A 
ATOM     19  C   UNL d   1     -54.760-102.877 -40.839  0.00  0.00     0.000 A 
ATOM     20  C   UNL d   1     -54.713-102.540 -39.416  0.00  0.00     0.000 C 
ATOM     21  C   UNL d   1     -54.777-102.646 -41.627  0.00  0.00     0.004 A 
ENDBRANCH   4  15
TORSDOF 4
ENDMDL
