MODEL 1
REMARK VINA RESULT:      55.4      0.000      0.000
REMARK  3 active torsions:
REMARK  status: ('A' for Active; 'I' for Inactive)
REMARK    1  A    between atoms: S_12  and  C_6 
REMARK    2  A    between atoms: C_10  and  C_14 
REMARK       I    between atoms: N_11  and  C_10 
REMARK    3  A    between atoms: C_14  and  S_12 
ROOT
ATOM      1  C   UNL d   1     -54.908-101.540 -43.835  0.00  0.00     0.155 A 
ATOM      2  C   UNL d   1     -54.965-100.992 -43.216  0.00  0.00     0.107 A 
ATOM      3  N   UNL d   1     -55.063-100.481 -44.783  0.00  0.00    -0.250 N 
ATOM      4  C   UNL d   1     -54.956-101.287 -44.613  0.00  0.00     0.285 A 
ATOM      5  N   UNL d   1     -55.072-100.186 -43.385  0.00  0.00    -0.220 NA
ATOM      6  C   UNL d   1     -55.119 -99.942 -44.169  0.00  0.00     0.182 A 
ATOM      7  N   UNL d   1     -54.806-102.288 -43.506  0.00  0.00    -0.239 NA
ATOM      8  C   UNL d   1     -54.899-101.396 -42.504  0.00  0.00     0.037 A 
ATOM      9  C   UNL d   1     -54.800-102.205 -42.680  0.00  0.00     0.083 A 
ATOM     10  O   UNL d   1     -54.900-101.830 -45.239  0.00  0.00    -0.265 OA
ATOM     11  C   UNL d   1     -55.112-100.224 -45.569  0.00  0.00     0.104 C 
ATOM     12  C   UNL d   1     -54.915-101.147 -41.720  0.00  0.00     0.003 A 
ATOM     13  C   UNL d   1     -54.717-102.757 -42.069  0.00  0.00     0.019 A 
ATOM     14  C   UNL d   1     -54.832-101.699 -41.109  0.00  0.00     0.000 A 
ATOM     15  C   UNL d   1     -54.734-102.498 -41.285  0.00  0.00     0.002 A 
ENDROOT
BRANCH   6  16
ATOM     16  S   UNL d   1     -55.225 -99.140 -44.340  0.00  0.00    -0.044 SA
BRANCH  16  17
ATOM     17  C   UNL d   1     -55.932 -98.762 -44.145  0.00  0.00     0.099 C 
BRANCH  17  18
ATOM     18  C   UNL d   1     -56.583 -98.822 -44.644  0.00  0.00     0.271 C 
ATOM     19  N   UNL d   1     -57.326 -98.944 -44.322  0.00  0.00    -0.272 N 
ATOM     20  C   UNL d   1     -57.985 -99.006 -44.811  0.00  0.00     0.083 A 
ATOM     21  C   UNL d   1     -57.417 -99.005 -43.503  0.00  0.00     0.083 A 
ATOM     22  C   UNL d   1     -58.724 -99.127 -44.488  0.00  0.00     0.019 A 
ATOM     23  C   UNL d   1     -58.825 -99.189 -43.679  0.00  0.00     0.003 A 
ATOM     24  C   UNL d   1     -58.170 -99.128 -43.180  0.00  0.00     0.019 A 
ATOM     25  O   UNL d   1     -56.500 -98.762 -45.456  0.00  0.00    -0.266 OA
ENDBRANCH  17  18
ENDBRANCH  16  17
ENDBRANCH   6  16
TORSDOF 3
ENDMDL
