MODEL 1
REMARK VINA RESULT:      -1.1      0.000      0.000
REMARK  3 active torsions:
REMARK  status: ('A' for Active; 'I' for Inactive)
REMARK    1  A    between atoms: N_10  and  C_3 
REMARK    2  A    between atoms: C_11  and  C_5 
REMARK    3  A    between atoms: C_13  and  N_10 
ROOT
ATOM      1  N   UNL d   1      32.800  19.652 -23.393  0.00  0.00    -0.184 N 
ATOM      2  C   UNL d   1      32.734  18.846 -23.169  0.00  0.00     0.168 A 
ATOM      3  C   UNL d   1      32.958  20.225 -22.818  0.00  0.00     0.217 A 
ATOM      4  N   UNL d   1      32.551  19.297 -24.745  0.00  0.00    -0.162 NA
ATOM      5  C   UNL d   1      32.580  18.286 -23.730  0.00  0.00     0.055 A 
ATOM      6  N   UNL d   1      32.829  18.642 -22.378  0.00  0.00    -0.227 NA
ATOM      7  C   UNL d   1      33.049  20.007 -22.041  0.00  0.00     0.066 A 
ATOM      8  C   UNL d   1      32.487  18.503 -24.524  0.00  0.00     0.104 A 
ATOM      9  C   UNL d   1      32.985  19.204 -21.809  0.00  0.00     0.087 A 
ATOM     10  C   UNL d   1      33.203  20.433 -21.368  0.00  0.00     0.006 A 
ATOM     11  C   UNL d   1      32.331  17.930 -25.086  0.00  0.00     0.023 C 
ATOM     12  C   UNL d   1      33.101  19.155 -20.999  0.00  0.00     0.019 A 
ATOM     13  C   UNL d   1      33.238  19.927 -20.727  0.00  0.00     0.002 A 
ENDROOT
BRANCH   3  14
ATOM     14  N   UNL d   1      33.025  21.039 -23.040  0.00  0.00    -0.383 NA
BRANCH  14  15
ATOM     15  C   UNL d   1      33.088  21.851 -23.262  0.00  0.00     0.134 A 
ATOM     16  C   UNL d   1      33.114  22.055 -24.080  0.00  0.00     0.032 A 
ATOM     17  C   UNL d   1      33.176  22.860 -24.308  0.00  0.00     0.003 A 
ATOM     18  C   UNL d   1      33.213  23.474 -23.718  0.00  0.00     0.000 A 
ATOM     19  C   UNL d   1      33.186  23.256 -22.905  0.00  0.00     0.003 A 
ATOM     20  C   UNL d   1      33.124  22.446 -22.675  0.00  0.00     0.032 A 
ENDBRANCH  14  15
ENDBRANCH   3  14
BRANCH   5  21
ATOM     21  C   UNL d   1      32.516  17.498 -23.511  0.00  0.00     0.004 A 
ATOM     22  C   UNL d   1      31.777  17.165 -23.377  0.00  0.00     0.000 A 
ATOM     23  C   UNL d   1      31.709  16.380 -23.158  0.00  0.00     0.000 A 
ATOM     24  C   UNL d   1      32.387  15.919 -23.072  0.00  0.00     0.000 A 
ATOM     25  C   UNL d   1      33.120  16.239 -23.202  0.00  0.00     0.000 A 
ATOM     26  C   UNL d   1      33.185  17.037 -23.424  0.00  0.00     0.000 A 
ENDBRANCH   5  21
TORSDOF 3
ENDMDL
MODEL 2
REMARK VINA RESULT:       0.4      1.676      4.608
REMARK  3 active torsions:
REMARK  status: ('A' for Active; 'I' for Inactive)
REMARK    1  A    between atoms: N_10  and  C_3 
REMARK    2  A    between atoms: C_11  and  C_5 
REMARK    3  A    between atoms: C_13  and  N_10 
ROOT
ATOM      1  N   UNL d   1      32.717  21.109 -22.094  0.00  0.00    -0.184 N 
ATOM      2  C   UNL d   1      32.724  21.546 -21.378  0.00  0.00     0.168 A 
ATOM      3  C   UNL d   1      32.851  20.293 -22.077  0.00  0.00     0.217 A 
ATOM      4  N   UNL d   1      32.445  22.300 -22.818  0.00  0.00    -0.162 NA
ATOM      5  C   UNL d   1      32.593  22.342 -21.394  0.00  0.00     0.055 A 
ATOM      6  N   UNL d   1      32.865  21.151 -20.670  0.00  0.00    -0.227 NA
ATOM      7  C   UNL d   1      32.989  19.918 -21.371  0.00  0.00     0.066 A 
ATOM      8  C   UNL d   1      32.452  22.730 -22.112  0.00  0.00     0.104 A 
ATOM      9  C   UNL d   1      32.997  20.348 -20.650  0.00  0.00     0.087 A 
ATOM     10  C   UNL d   1      33.135  19.143 -21.182  0.00  0.00     0.006 A 
ATOM     11  C   UNL d   1      32.320  23.537 -22.120  0.00  0.00     0.023 C 
ATOM     12  C   UNL d   1      33.149  19.826 -20.036  0.00  0.00     0.019 A 
ATOM     13  C   UNL d   1      33.234  19.072 -20.373  0.00  0.00     0.002 A 
ENDROOT
BRANCH   3  14
ATOM     14  N   UNL d   1      32.845  19.849 -22.798  0.00  0.00    -0.383 NA
BRANCH  14  15
ATOM     15  C   UNL d   1      32.842  19.407 -23.517  0.00  0.00     0.134 A 
ATOM     16  C   UNL d   1      32.484  18.643 -23.532  0.00  0.00     0.032 A 
ATOM     17  C   UNL d   1      32.478  18.198 -24.243  0.00  0.00     0.003 A 
ATOM     18  C   UNL d   1      32.831  18.513 -24.952  0.00  0.00     0.000 A 
ATOM     19  C   UNL d   1      33.184  19.277 -24.923  0.00  0.00     0.003 A 
ATOM     20  C   UNL d   1      33.191  19.725 -24.208  0.00  0.00     0.032 A 
ENDBRANCH  14  15
ENDBRANCH   3  14
BRANCH   5  21
ATOM     21  C   UNL d   1      32.600  22.770 -20.693  0.00  0.00     0.004 A 
ATOM     22  C   UNL d   1      31.968  22.717 -20.171  0.00  0.00     0.000 A 
ATOM     23  C   UNL d   1      31.971  23.141 -19.471  0.00  0.00     0.000 A 
ATOM     24  C   UNL d   1      32.613  23.626 -19.290  0.00  0.00     0.000 A 
ATOM     25  C   UNL d   1      33.241  23.684 -19.800  0.00  0.00     0.000 A 
ATOM     26  C   UNL d   1      33.234  23.251 -20.509  0.00  0.00     0.000 A 
ENDBRANCH   5  21
TORSDOF 3
ENDMDL
MODEL 3
REMARK VINA RESULT:       0.6      1.242      2.417
REMARK  3 active torsions:
REMARK  status: ('A' for Active; 'I' for Inactive)
REMARK    1  A    between atoms: N_10  and  C_3 
REMARK    2  A    between atoms: C_11  and  C_5 
REMARK    3  A    between atoms: C_13  and  N_10 
ROOT
ATOM      1  N   UNL d   1      32.739  18.786 -22.807  0.00  0.00    -0.184 N 
ATOM      2  C   UNL d   1      32.712  18.225 -23.431  0.00  0.00     0.168 A 
ATOM      3  C   UNL d   1      32.871  19.584 -22.980  0.00  0.00     0.217 A 
ATOM      4  N   UNL d   1      32.505  17.749 -21.866  0.00  0.00    -0.162 NA
ATOM      5  C   UNL d   1      32.583  17.446 -23.264  0.00  0.00     0.055 A 
ATOM      6  N   UNL d   1      32.817  18.483 -24.205  0.00  0.00    -0.227 NA
ATOM      7  C   UNL d   1      32.973  19.822 -23.749  0.00  0.00     0.066 A 
ATOM      8  C   UNL d   1      32.478  17.198 -22.481  0.00  0.00     0.104 A 
ATOM      9  C   UNL d   1      32.947  19.269 -24.379  0.00  0.00     0.087 A 
ATOM     10  C   UNL d   1      33.109  20.549 -24.083  0.00  0.00     0.006 A 
ATOM     11  C   UNL d   1      32.348  16.406 -22.320  0.00  0.00     0.023 C 
ATOM     12  C   UNL d   1      33.067  19.668 -25.084  0.00  0.00     0.019 A 
ATOM     13  C   UNL d   1      33.168  20.470 -24.895  0.00  0.00     0.002 A 
ENDROOT
BRANCH   3  14
ATOM     14  N   UNL d   1      32.899  20.152 -22.353  0.00  0.00    -0.383 NA
BRANCH  14  15
ATOM     15  C   UNL d   1      32.929  20.716 -21.725  0.00  0.00     0.134 A 
ATOM     16  C   UNL d   1      33.191  20.470 -20.961  0.00  0.00     0.032 A 
ATOM     17  C   UNL d   1      33.223  21.025 -20.333  0.00  0.00     0.003 A 
ATOM     18  C   UNL d   1      32.993  21.836 -20.461  0.00  0.00     0.000 A 
ATOM     19  C   UNL d   1      32.735  22.067 -21.228  0.00  0.00     0.003 A 
ATOM     20  C   UNL d   1      32.702  21.510 -21.861  0.00  0.00     0.032 A 
ENDBRANCH  14  15
ENDBRANCH   3  14
BRANCH   5  21
ATOM     21  C   UNL d   1      32.556  16.898 -23.874  0.00  0.00     0.004 A 
ATOM     22  C   UNL d   1      31.839  16.708 -24.227  0.00  0.00     0.000 A 
ATOM     23  C   UNL d   1      31.808  16.162 -24.836  0.00  0.00     0.000 A 
ATOM     24  C   UNL d   1      32.502  15.800 -25.097  0.00  0.00     0.000 A 
ATOM     25  C   UNL d   1      33.214  15.982 -24.754  0.00  0.00     0.000 A 
ATOM     26  C   UNL d   1      33.241  16.537 -24.136  0.00  0.00     0.000 A 
ENDBRANCH   5  21
TORSDOF 3
ENDMDL
MODEL 4
REMARK VINA RESULT:       1.3      2.730      4.154
REMARK  3 active torsions:
REMARK  status: ('A' for Active; 'I' for Inactive)
REMARK    1  A    between atoms: N_10  and  C_3 
REMARK    2  A    between atoms: C_11  and  C_5 
REMARK    3  A    between atoms: C_13  and  N_10 
ROOT
ATOM      1  N   UNL d   1      30.234  17.825 -24.067  0.00  0.00    -0.184 N 
ATOM      2  C   UNL d   1      29.692  17.187 -24.019  0.00  0.00     0.168 A 
ATOM      3  C   UNL d   1      31.036  17.672 -24.201  0.00  0.00     0.217 A 
ATOM      4  N   UNL d   1      29.173  18.743 -23.850  0.00  0.00    -0.162 NA
ATOM      5  C   UNL d   1      28.909  17.336 -23.889  0.00  0.00     0.055 A 
ATOM      6  N   UNL d   1      29.971  16.418 -24.106  0.00  0.00    -0.227 NA
ATOM      7  C   UNL d   1      31.296  16.907 -24.284  0.00  0.00     0.066 A 
ATOM      8  C   UNL d   1      28.640  18.114 -23.803  0.00  0.00     0.104 A 
ATOM      9  C   UNL d   1      30.760  16.263 -24.237  0.00  0.00     0.087 A 
ATOM     10  C   UNL d   1      32.031  16.590 -24.417  0.00  0.00     0.006 A 
ATOM     11  C   UNL d   1      27.845  18.256 -23.671  0.00  0.00     0.023 C 
ATOM     12  C   UNL d   1      31.178  15.566 -24.342  0.00  0.00     0.019 A 
ATOM     13  C   UNL d   1      31.974  15.775 -24.454  0.00  0.00     0.002 A 
ENDROOT
BRANCH   3  14
ATOM     14  N   UNL d   1      31.586  18.314 -24.250  0.00  0.00    -0.383 NA
BRANCH  14  15
ATOM     15  C   UNL d   1      32.137  18.951 -24.297  0.00  0.00     0.134 A 
ATOM     16  C   UNL d   1      32.268  19.330 -25.040  0.00  0.00     0.032 A 
ATOM     17  C   UNL d   1      32.814  19.965 -25.095  0.00  0.00     0.003 A 
ATOM     18  C   UNL d   1      33.238  20.229 -24.404  0.00  0.00     0.000 A 
ATOM     19  C   UNL d   1      33.098  19.842 -23.670  0.00  0.00     0.003 A 
ATOM     20  C   UNL d   1      32.549  19.203 -23.614  0.00  0.00     0.032 A 
ENDBRANCH  14  15
ENDBRANCH   3  14
BRANCH   5  21
ATOM     21  C   UNL d   1      28.379  16.711 -23.842  0.00  0.00     0.004 A 
ATOM     22  C   UNL d   1      28.009  16.536 -23.129  0.00  0.00     0.000 A 
ATOM     23  C   UNL d   1      27.480  15.915 -23.078  0.00  0.00     0.000 A 
ATOM     24  C   UNL d   1      27.316  15.460 -23.747  0.00  0.00     0.000 A 
ATOM     25  C   UNL d   1      27.677  15.626 -24.454  0.00  0.00     0.000 A 
ATOM     26  C   UNL d   1      28.214  16.258 -24.501  0.00  0.00     0.000 A 
ENDBRANCH   5  21
TORSDOF 3
ENDMDL
MODEL 5
REMARK VINA RESULT:       1.6      1.203      2.656
REMARK  3 active torsions:
REMARK  status: ('A' for Active; 'I' for Inactive)
REMARK    1  A    between atoms: N_10  and  C_3 
REMARK    2  A    between atoms: C_11  and  C_5 
REMARK    3  A    between atoms: C_13  and  N_10 
ROOT
ATOM      1  N   UNL d   1      32.949  20.462 -22.567  0.00  0.00    -0.184 N 
ATOM      2  C   UNL d   1      32.909  19.955 -23.234  0.00  0.00     0.168 A 
ATOM      3  C   UNL d   1      33.051  21.276 -22.677  0.00  0.00     0.217 A 
ATOM      4  N   UNL d   1      32.787  19.344 -21.707  0.00  0.00    -0.162 NA
ATOM      5  C   UNL d   1      32.811  19.161 -23.128  0.00  0.00     0.055 A 
ATOM      6  N   UNL d   1      32.972  20.280 -23.987  0.00  0.00    -0.227 NA
ATOM      7  C   UNL d   1      33.111  21.581 -23.426  0.00  0.00     0.066 A 
ATOM      8  C   UNL d   1      32.748  18.845 -22.364  0.00  0.00     0.104 A 
ATOM      9  C   UNL d   1      33.072  21.081 -24.099  0.00  0.00     0.087 A 
ATOM     10  C   UNL d   1      33.211  22.337 -23.704  0.00  0.00     0.006 A 
ATOM     11  C   UNL d   1      32.648  18.039 -22.265  0.00  0.00     0.023 C 
ATOM     12  C   UNL d   1      33.149  21.541 -24.773  0.00  0.00     0.019 A 
ATOM     13  C   UNL d   1      33.236  22.327 -24.521  0.00  0.00     0.002 A 
ENDROOT
BRANCH   3  14
ATOM     14  N   UNL d   1      33.091  21.791 -22.005  0.00  0.00    -0.383 NA
BRANCH  14  15
ATOM     15  C   UNL d   1      33.130  22.307 -21.339  0.00  0.00     0.134 A 
ATOM     16  C   UNL d   1      33.106  21.979 -20.561  0.00  0.00     0.032 A 
ATOM     17  C   UNL d   1      33.144  22.486 -19.893  0.00  0.00     0.003 A 
ATOM     18  C   UNL d   1      33.205  23.329 -19.995  0.00  0.00     0.000 A 
ATOM     19  C   UNL d   1      33.227  23.643 -20.777  0.00  0.00     0.003 A 
ATOM     20  C   UNL d   1      33.190  23.134 -21.449  0.00  0.00     0.032 A 
ENDBRANCH  14  15
ENDBRANCH   3  14
BRANCH   5  21
ATOM     21  C   UNL d   1      32.772  18.665 -23.780  0.00  0.00     0.004 A 
ATOM     22  C   UNL d   1      33.239  17.990 -23.815  0.00  0.00     0.000 A 
ATOM     23  C   UNL d   1      33.203  17.493 -24.464  0.00  0.00     0.000 A 
ATOM     24  C   UNL d   1      32.694  17.671 -25.088  0.00  0.00     0.000 A 
ATOM     25  C   UNL d   1      32.229  18.335 -25.062  0.00  0.00     0.000 A 
ATOM     26  C   UNL d   1      32.269  18.837 -24.401  0.00  0.00     0.000 A 
ENDBRANCH   5  21
TORSDOF 3
ENDMDL
