MODEL 1
REMARK VINA RESULT:     -10.0      0.000      0.000
REMARK  4 active torsions:
REMARK  status: ('A' for Active; 'I' for Inactive)
REMARK    1  A    between atoms: N_5  and  C_1 
REMARK    2  A    between atoms: N_9  and  N_5 
REMARK    3  A    between atoms: C_7  and  C_8 
REMARK    4  A    between atoms: C_12  and  N_9 
ROOT
ATOM      1  N   UNL d   1      53.266  32.293  54.373  0.00  0.00    -0.146 NA
ENDROOT
BRANCH   1   2
ATOM      2  C   UNL d   1      53.433  33.148  54.448  0.00  0.00     0.122 A 
ATOM      3  C   UNL d   1      54.033  33.460  54.880  0.00  0.00     0.101 A 
ATOM      4  N   UNL d   1      54.005  34.293  54.808  0.00  0.00    -0.244 NA
ATOM      5  C   UNL d   1      54.587  33.048  55.321  0.00  0.00     0.022 C 
ATOM      6  C   UNL d   1      53.381  34.478  54.328  0.00  0.00     0.083 A 
ATOM      7  C   UNL d   1      53.010  33.762  54.093  0.00  0.00     0.039 A 
ATOM      8  C   UNL d   1      53.066  35.195  54.048  0.00  0.00     0.019 A 
ATOM      9  C   UNL d   1      52.341  33.768  53.590  0.00  0.00     0.003 A 
ATOM     10  C   UNL d   1      52.038  34.490  53.318  0.00  0.00     0.000 A 
ATOM     11  C   UNL d   1      52.401  35.218  53.547  0.00  0.00     0.002 A 
ENDBRANCH   1   2
BRANCH   1  12
ATOM     12  N   UNL d   1      53.697  31.825  53.842  0.00  0.00    -0.148 NA
BRANCH  12  13
ATOM     13  C   UNL d   1      53.439  31.068  53.655  0.00  0.00     0.103 A 
ATOM     14  C   UNL d   1      53.493  30.475  54.190  0.00  0.00     0.027 A 
ATOM     15  C   UNL d   1      53.234  29.719  54.004  0.00  0.00     0.066 A 
ATOM     16  C   UNL d   1      52.924  29.574  53.275  0.00  0.00     0.006 A 
ATOM     17  C   UNL d   1      52.868  30.169  52.734  0.00  0.00     0.002 A 
ATOM     18  C   UNL d   1      53.125  30.912  52.926  0.00  0.00     0.021 A 
BRANCH  15  19
ATOM     19  C   UNL d   1      53.273  29.081  54.526  0.00  0.00     0.211 C 
ATOM     20  O   UNL d   1      52.821  29.099  55.228  0.00  0.00    -0.644 OA
ATOM     21  O   UNL d   1      53.759  28.421  54.356  0.00  0.00    -0.644 OA
ENDBRANCH  15  19
ENDBRANCH  12  13
ENDBRANCH   1  12
TORSDOF 4
ENDMDL
MODEL 2
REMARK VINA RESULT:      -9.0      0.710      1.623
REMARK  4 active torsions:
REMARK  status: ('A' for Active; 'I' for Inactive)
REMARK    1  A    between atoms: N_5  and  C_1 
REMARK    2  A    between atoms: N_9  and  N_5 
REMARK    3  A    between atoms: C_7  and  C_8 
REMARK    4  A    between atoms: C_12  and  N_9 
ROOT
ATOM      1  N   UNL d   1      52.932  32.101  53.919  0.00  0.00    -0.146 NA
ENDROOT
BRANCH   1   2
ATOM      2  C   UNL d   1      53.141  32.947  53.985  0.00  0.00     0.122 A 
ATOM      3  C   UNL d   1      52.784  33.539  53.577  0.00  0.00     0.101 A 
ATOM      4  N   UNL d   1      53.141  34.263  53.794  0.00  0.00    -0.244 NA
ATOM      5  C   UNL d   1      52.172  33.464  53.037  0.00  0.00     0.022 C 
ATOM      6  C   UNL d   1      53.718  34.100  54.338  0.00  0.00     0.083 A 
ATOM      7  C   UNL d   1      53.728  33.269  54.467  0.00  0.00     0.039 A 
ATOM      8  C   UNL d   1      54.260  34.570  54.758  0.00  0.00     0.019 A 
ATOM      9  C   UNL d   1      54.269  32.924  55.005  0.00  0.00     0.003 A 
ATOM     10  C   UNL d   1      54.803  33.406  55.417  0.00  0.00     0.000 A 
ATOM     11  C   UNL d   1      54.804  34.242  55.296  0.00  0.00     0.002 A 
ENDBRANCH   1   2
BRANCH   1  12
ATOM     12  N   UNL d   1      53.417  31.580  53.494  0.00  0.00    -0.148 NA
BRANCH  12  13
ATOM     13  C   UNL d   1      53.223  30.783  53.445  0.00  0.00     0.103 A 
ATOM     14  C   UNL d   1      53.361  30.292  54.061  0.00  0.00     0.027 A 
ATOM     15  C   UNL d   1      53.167  29.495  54.012  0.00  0.00     0.066 A 
ATOM     16  C   UNL d   1      52.836  29.208  53.337  0.00  0.00     0.006 A 
ATOM     17  C   UNL d   1      52.697  29.701  52.715  0.00  0.00     0.002 A 
ATOM     18  C   UNL d   1      52.890  30.484  52.771  0.00  0.00     0.021 A 
BRANCH  15  19
ATOM     19  C   UNL d   1      53.293  28.956  54.625  0.00  0.00     0.211 C 
ATOM     20  O   UNL d   1      53.724  28.257  54.473  0.00  0.00    -0.644 OA
ATOM     21  O   UNL d   1      52.992  29.105  55.391  0.00  0.00    -0.644 OA
ENDBRANCH  15  19
ENDBRANCH  12  13
ENDBRANCH   1  12
TORSDOF 4
ENDMDL
MODEL 3
REMARK VINA RESULT:      -8.6      2.284      4.596
REMARK  4 active torsions:
REMARK  status: ('A' for Active; 'I' for Inactive)
REMARK    1  A    between atoms: N_5  and  C_1 
REMARK    2  A    between atoms: N_9  and  N_5 
REMARK    3  A    between atoms: C_7  and  C_8 
REMARK    4  A    between atoms: C_12  and  N_9 
ROOT
ATOM      1  N   UNL d   1      53.754  31.832  53.856  0.00  0.00    -0.146 NA
ENDROOT
BRANCH   1   2
ATOM      2  C   UNL d   1      53.288  31.164  53.539  0.00  0.00     0.122 A 
ATOM      3  C   UNL d   1      52.780  31.215  52.919  0.00  0.00     0.101 A 
ATOM      4  N   UNL d   1      52.446  30.460  52.788  0.00  0.00    -0.244 NA
ATOM      5  C   UNL d   1      52.608  31.885  52.478  0.00  0.00     0.022 C 
ATOM      6  C   UNL d   1      52.758  29.954  53.336  0.00  0.00     0.083 A 
ATOM      7  C   UNL d   1      53.293  30.388  53.818  0.00  0.00     0.039 A 
ATOM      8  C   UNL d   1      52.652  29.144  53.496  0.00  0.00     0.019 A 
ATOM      9  C   UNL d   1      53.709  30.016  54.442  0.00  0.00     0.003 A 
ATOM     10  C   UNL d   1      53.593  29.208  54.589  0.00  0.00     0.000 A 
ATOM     11  C   UNL d   1      53.058  28.760  54.113  0.00  0.00     0.002 A 
ENDBRANCH   1   2
BRANCH   1  12
ATOM     12  N   UNL d   1      53.466  32.282  54.490  0.00  0.00    -0.148 NA
BRANCH  12  13
ATOM     13  C   UNL d   1      53.834  32.986  54.697  0.00  0.00     0.103 A 
ATOM     14  C   UNL d   1      53.430  33.677  54.682  0.00  0.00     0.027 A 
ATOM     15  C   UNL d   1      53.799  34.381  54.889  0.00  0.00     0.066 A 
ATOM     16  C   UNL d   1      54.573  34.375  55.108  0.00  0.00     0.006 A 
ATOM     17  C   UNL d   1      54.982  33.680  55.124  0.00  0.00     0.002 A 
ATOM     18  C   UNL d   1      54.612  32.991  54.919  0.00  0.00     0.021 A 
BRANCH  15  19
ATOM     19  C   UNL d   1      53.418  35.114  54.887  0.00  0.00     0.211 C 
ATOM     20  O   UNL d   1      53.341  35.533  54.168  0.00  0.00    -0.644 OA
ATOM     21  O   UNL d   1      53.112  35.436  55.596  0.00  0.00    -0.644 OA
ENDBRANCH  15  19
ENDBRANCH  12  13
ENDBRANCH   1  12
TORSDOF 4
ENDMDL
MODEL 4
REMARK VINA RESULT:      -8.5      2.546      4.380
REMARK  4 active torsions:
REMARK  status: ('A' for Active; 'I' for Inactive)
REMARK    1  A    between atoms: N_5  and  C_1 
REMARK    2  A    between atoms: N_9  and  N_5 
REMARK    3  A    between atoms: C_7  and  C_8 
REMARK    4  A    between atoms: C_12  and  N_9 
ROOT
ATOM      1  N   UNL d   1      52.898  32.725  53.109  0.00  0.00    -0.146 NA
ENDROOT
BRANCH   1   2
ATOM      2  C   UNL d   1      53.261  32.073  53.565  0.00  0.00     0.122 A 
ATOM      3  C   UNL d   1      53.768  32.173  54.179  0.00  0.00     0.101 A 
ATOM      4  N   UNL d   1      53.989  31.420  54.465  0.00  0.00    -0.244 NA
ATOM      5  C   UNL d   1      54.035  32.885  54.486  0.00  0.00     0.022 C 
ATOM      6  C   UNL d   1      53.608  30.864  54.017  0.00  0.00     0.083 A 
ATOM      7  C   UNL d   1      53.144  31.266  53.443  0.00  0.00     0.039 A 
ATOM      8  C   UNL d   1      53.595  30.033  54.022  0.00  0.00     0.019 A 
ATOM      9  C   UNL d   1      52.680  30.841  52.890  0.00  0.00     0.003 A 
ATOM     10  C   UNL d   1      52.677  30.012  52.907  0.00  0.00     0.000 A 
ATOM     11  C   UNL d   1      53.140  29.596  53.479  0.00  0.00     0.002 A 
ENDBRANCH   1   2
BRANCH   1  12
ATOM     12  N   UNL d   1      52.211  33.099  53.384  0.00  0.00    -0.148 NA
BRANCH  12  13
ATOM     13  C   UNL d   1      51.790  33.603  52.891  0.00  0.00     0.103 A 
ATOM     14  C   UNL d   1      51.028  33.787  53.051  0.00  0.00     0.027 A 
ATOM     15  C   UNL d   1      50.607  34.291  52.557  0.00  0.00     0.066 A 
ATOM     16  C   UNL d   1      50.967  34.602  51.908  0.00  0.00     0.006 A 
ATOM     17  C   UNL d   1      51.734  34.419  51.745  0.00  0.00     0.002 A 
ATOM     18  C   UNL d   1      52.142  33.922  52.236  0.00  0.00     0.021 A 
BRANCH  15  19
ATOM     19  C   UNL d   1      49.820  34.505  52.686  0.00  0.00     0.211 C 
ATOM     20  O   UNL d   1      49.234  34.254  52.147  0.00  0.00    -0.644 OA
ATOM     21  O   UNL d   1      49.610  34.970  53.350  0.00  0.00    -0.644 OA
ENDBRANCH  15  19
ENDBRANCH  12  13
ENDBRANCH   1  12
TORSDOF 4
ENDMDL
MODEL 5
REMARK VINA RESULT:      -8.4      2.793      4.318
REMARK  4 active torsions:
REMARK  status: ('A' for Active; 'I' for Inactive)
REMARK    1  A    between atoms: N_5  and  C_1 
REMARK    2  A    between atoms: N_9  and  N_5 
REMARK    3  A    between atoms: C_7  and  C_8 
REMARK    4  A    between atoms: C_12  and  N_9 
ROOT
ATOM      1  N   UNL d   1      52.455  33.265  53.013  0.00  0.00    -0.146 NA
ENDROOT
BRANCH   1   2
ATOM      2  C   UNL d   1      53.028  32.862  53.536  0.00  0.00     0.122 A 
ATOM      3  C   UNL d   1      53.173  32.073  53.532  0.00  0.00     0.101 A 
ATOM      4  N   UNL d   1      53.754  31.908  54.110  0.00  0.00    -0.244 NA
ATOM      5  C   UNL d   1      52.821  31.510  53.051  0.00  0.00     0.022 C 
ATOM      6  C   UNL d   1      53.957  32.607  54.463  0.00  0.00     0.083 A 
ATOM      7  C   UNL d   1      53.504  33.219  54.107  0.00  0.00     0.039 A 
ATOM      8  C   UNL d   1      54.491  32.812  55.066  0.00  0.00     0.019 A 
ATOM      9  C   UNL d   1      53.588  34.015  54.353  0.00  0.00     0.003 A 
ATOM     10  C   UNL d   1      54.125  34.205  54.956  0.00  0.00     0.000 A 
ATOM     11  C   UNL d   1      54.587  33.599  55.322  0.00  0.00     0.002 A 
ENDBRANCH   1   2
BRANCH   1  12
ATOM     12  N   UNL d   1      51.680  33.410  53.270  0.00  0.00    -0.148 NA
BRANCH  12  13
ATOM     13  C   UNL d   1      51.155  33.818  52.789  0.00  0.00     0.103 A 
ATOM     14  C   UNL d   1      50.528  34.203  53.104  0.00  0.00     0.027 A 
ATOM     15  C   UNL d   1      50.003  34.612  52.623  0.00  0.00     0.066 A 
ATOM     16  C   UNL d   1      50.122  34.624  51.827  0.00  0.00     0.006 A 
ATOM     17  C   UNL d   1      50.752  34.237  51.507  0.00  0.00     0.002 A 
ATOM     18  C   UNL d   1      51.265  33.837  51.988  0.00  0.00     0.021 A 
BRANCH  15  19
ATOM     19  C   UNL d   1      49.345  35.021  52.908  0.00  0.00     0.211 C 
ATOM     20  O   UNL d   1      49.427  35.510  53.580  0.00  0.00    -0.644 OA
ATOM     21  O   UNL d   1      48.603  34.949  52.529  0.00  0.00    -0.644 OA
ENDBRANCH  15  19
ENDBRANCH  12  13
ENDBRANCH   1  12
TORSDOF 4
ENDMDL
MODEL 6
REMARK VINA RESULT:      -8.4      3.106      4.463
REMARK  4 active torsions:
REMARK  status: ('A' for Active; 'I' for Inactive)
REMARK    1  A    between atoms: N_5  and  C_1 
REMARK    2  A    between atoms: N_9  and  N_5 
REMARK    3  A    between atoms: C_7  and  C_8 
REMARK    4  A    between atoms: C_12  and  N_9 
ROOT
ATOM      1  N   UNL d   1      52.381  34.390  53.383  0.00  0.00    -0.146 NA
ENDROOT
BRANCH   1   2
ATOM      2  C   UNL d   1      52.977  34.335  54.019  0.00  0.00     0.122 A 
ATOM      3  C   UNL d   1      53.206  34.947  54.485  0.00  0.00     0.101 A 
ATOM      4  N   UNL d   1      53.783  34.670  55.022  0.00  0.00    -0.244 NA
ATOM      5  C   UNL d   1      52.932  35.719  54.452  0.00  0.00     0.022 C 
ATOM      6  C   UNL d   1      53.899  33.883  54.876  0.00  0.00     0.083 A 
ATOM      7  C   UNL d   1      53.394  33.658  54.242  0.00  0.00     0.039 A 
ATOM      8  C   UNL d   1      54.389  33.302  55.213  0.00  0.00     0.019 A 
ATOM      9  C   UNL d   1      53.385  32.871  53.957  0.00  0.00     0.003 A 
ATOM     10  C   UNL d   1      53.880  32.303  54.303  0.00  0.00     0.000 A 
ATOM     11  C   UNL d   1      54.392  32.515  54.941  0.00  0.00     0.002 A 
ENDBRANCH   1   2
BRANCH   1  12
ATOM     12  N   UNL d   1      51.589  34.192  53.530  0.00  0.00    -0.148 NA
BRANCH  12  13
ATOM     13  C   UNL d   1      51.024  34.285  52.941  0.00  0.00     0.103 A 
ATOM     14  C   UNL d   1      50.330  34.651  53.096  0.00  0.00     0.027 A 
ATOM     15  C   UNL d   1      49.765  34.744  52.507  0.00  0.00     0.066 A 
ATOM     16  C   UNL d   1      49.913  34.464  51.767  0.00  0.00     0.006 A 
ATOM     17  C   UNL d   1      50.612  34.095  51.608  0.00  0.00     0.002 A 
ATOM     18  C   UNL d   1      51.163  34.007  52.194  0.00  0.00     0.021 A 
BRANCH  15  19
ATOM     19  C   UNL d   1      49.037  35.114  52.626  0.00  0.00     0.211 C 
ATOM     20  O   UNL d   1      48.424  35.001  52.071  0.00  0.00    -0.644 OA
ATOM     21  O   UNL d   1      48.912  35.599  53.297  0.00  0.00    -0.644 OA
ENDBRANCH  15  19
ENDBRANCH  12  13
ENDBRANCH   1  12
TORSDOF 4
ENDMDL
MODEL 7
REMARK VINA RESULT:      -7.2      4.053      5.419
REMARK  4 active torsions:
REMARK  status: ('A' for Active; 'I' for Inactive)
REMARK    1  A    between atoms: N_5  and  C_1 
REMARK    2  A    between atoms: N_9  and  N_5 
REMARK    3  A    between atoms: C_7  and  C_8 
REMARK    4  A    between atoms: C_12  and  N_9 
ROOT
ATOM      1  N   UNL d   1      49.417  34.468  52.538  0.00  0.00    -0.146 NA
ENDROOT
BRANCH   1   2
ATOM      2  C   UNL d   1      48.774  34.952  52.200  0.00  0.00     0.122 A 
ATOM      3  C   UNL d   1      48.523  34.911  51.439  0.00  0.00     0.101 A 
ATOM      4  N   UNL d   1      47.901  35.461  51.335  0.00  0.00    -0.244 NA
ATOM      5  C   UNL d   1      48.814  34.420  50.850  0.00  0.00     0.022 C 
ATOM      6  C   UNL d   1      47.781  35.833  52.043  0.00  0.00     0.083 A 
ATOM      7  C   UNL d   1      48.327  35.520  52.599  0.00  0.00     0.039 A 
ATOM      8  C   UNL d   1      47.254  36.424  52.298  0.00  0.00     0.019 A 
ATOM      9  C   UNL d   1      48.342  35.796  53.390  0.00  0.00     0.003 A 
ATOM     10  C   UNL d   1      47.811  36.385  53.630  0.00  0.00     0.000 A 
ATOM     11  C   UNL d   1      47.256  36.709  53.081  0.00  0.00     0.002 A 
ENDBRANCH   1   2
BRANCH   1  12
ATOM     12  N   UNL d   1      50.205  34.600  52.315  0.00  0.00    -0.148 NA
BRANCH  12  13
ATOM     13  C   UNL d   1      50.818  34.253  52.738  0.00  0.00     0.103 A 
ATOM     14  C   UNL d   1      51.444  34.689  52.981  0.00  0.00     0.027 A 
ATOM     15  C   UNL d   1      52.056  34.342  53.403  0.00  0.00     0.066 A 
ATOM     16  C   UNL d   1      52.025  33.556  53.575  0.00  0.00     0.006 A 
ATOM     17  C   UNL d   1      51.395  33.115  53.332  0.00  0.00     0.002 A 
ATOM     18  C   UNL d   1      50.796  33.464  52.916  0.00  0.00     0.021 A 
BRANCH  15  19
ATOM     19  C   UNL d   1      52.718  34.756  53.671  0.00  0.00     0.211 C 
ATOM     20  O   UNL d   1      52.613  35.474  54.084  0.00  0.00    -0.644 OA
ATOM     21  O   UNL d   1      53.489  34.460  53.531  0.00  0.00    -0.644 OA
ENDBRANCH  15  19
ENDBRANCH  12  13
ENDBRANCH   1  12
TORSDOF 4
ENDMDL
