MODEL 1
REMARK VINA RESULT:      45.7      0.000      0.000
REMARK  9 active torsions:
REMARK  status: ('A' for Active; 'I' for Inactive)
REMARK    1  A    between atoms: N_3  and  C_1 
REMARK       I    between atoms: C_7  and  N_3 
REMARK    2  A    between atoms: S_10  and  C_4 
REMARK    3  A    between atoms: C_9  and  C_7 
REMARK    4  A    between atoms: C_8  and  C_17 
REMARK       I    between atoms: N_12  and  C_8 
REMARK    5  A    between atoms: C_17  and  S_10 
REMARK    6  A    between atoms: C_18  and  N_12 
REMARK    7  A    between atoms: C_22  and  C_18 
REMARK    8  A    between atoms: O_23  and  C_19 
REMARK    9  A    between atoms: C_25  and  O_23 
ROOT
ATOM      1  C   UNL d   1      13.379  15.123  -5.300  0.00  0.00     0.219 A 
ATOM      2  S   UNL d   1      13.170  14.899  -4.535  0.00  0.00    -0.019 SA
ATOM      3  C   UNL d   1      13.181  14.080  -4.488  0.00  0.00     0.165 A 
ATOM      4  N   UNL d   1      13.521  14.430  -5.730  0.00  0.00    -0.120 NA
ATOM      5  N   UNL d   1      13.399  13.787  -5.230  0.00  0.00    -0.133 NA
ENDROOT
BRANCH   1   6
ATOM      6  N   UNL d   1      13.436  15.900  -5.582  0.00  0.00    -0.181 NA
ATOM      7  C   UNL d   1      14.028  16.397  -5.284  0.00  0.00     0.281 C 
ATOM      8  O   UNL d   1      14.553  16.121  -4.715  0.00  0.00    -0.265 OA
BRANCH   7   9
ATOM      9  C   UNL d   1      14.087  17.173  -5.563  0.00  0.00     0.058 A 
ATOM     10  C   UNL d   1      13.489  17.482  -6.037  0.00  0.00     0.007 A 
ATOM     11  C   UNL d   1      13.555  18.256  -6.312  0.00  0.00     0.025 A 
ATOM     12  C   UNL d   1      14.204  18.711  -6.117  0.00  0.00     0.100 A 
ATOM     13  C   UNL d   1      14.805  18.399  -5.639  0.00  0.00     0.025 A 
ATOM     14  C   UNL d   1      14.739  17.623  -5.364  0.00  0.00     0.007 A 
BRANCH  12  15
ATOM     15  O   UNL d   1      14.274  19.486  -6.389  0.00  0.00    -0.305 OA
BRANCH  15  16
ATOM     16  C   UNL d   1      13.768  20.073  -6.131  0.00  0.00     0.123 C 
ATOM     17  C   UNL d   1      14.042  20.682  -5.623  0.00  0.00     0.029 C 
ENDBRANCH  15  16
ENDBRANCH  12  15
ENDBRANCH   7   9
ENDBRANCH   1   6
BRANCH   3  18
ATOM     18  S   UNL d   1      13.005  13.633  -3.818  0.00  0.00    -0.054 SA
BRANCH  18  19
ATOM     19  C   UNL d   1      12.905  12.811  -3.891  0.00  0.00     0.100 C 
BRANCH  19  20
ATOM     20  C   UNL d   1      13.420  12.300  -3.504  0.00  0.00     0.286 C 
ATOM     21  N   UNL d   1      13.451  12.297  -2.683  0.00  0.00    -0.204 NA
ATOM     22  O   UNL d   1      13.908  11.786  -3.935  0.00  0.00    -0.265 OA
BRANCH  21  23
ATOM     23  C   UNL d   1      13.969  11.781  -2.291  0.00  0.00     0.127 C 
BRANCH  23  24
ATOM     24  C   UNL d   1      14.114  11.878  -1.488  0.00  0.00     0.119 A 
ATOM     25  O   UNL d   1      14.854  11.930  -1.121  0.00  0.00    -0.304 OA
ATOM     26  C   UNL d   1      14.735  12.027  -0.302  0.00  0.00     0.123 A 
ATOM     27  C   UNL d   1      13.928  12.036  -0.160  0.00  0.00     0.029 A 
ATOM     28  C   UNL d   1      13.550  11.945  -0.887  0.00  0.00     0.028 A 
ENDBRANCH  23  24
ENDBRANCH  21  23
ENDBRANCH  19  20
ENDBRANCH  18  19
ENDBRANCH   3  18
TORSDOF 9
ENDMDL
