MODEL 1
REMARK VINA RESULT:      -1.7      0.000      0.000
REMARK  5 active torsions:
REMARK  status: ('A' for Active; 'I' for Inactive)
REMARK    1  A    between atoms: C_10  and  N_3 
REMARK    2  A    between atoms: C_12  and  N_6 
REMARK    3  A    between atoms: C_11  and  C_10 
REMARK    4  A    between atoms: O_18  and  C_11 
REMARK    5  A    between atoms: C_23  and  O_18 
ROOT
ATOM      1  C   UNL d   1      32.567  22.569 -20.010  0.00  0.00     0.172 A 
ATOM      2  C   UNL d   1      32.269  22.768 -20.753  0.00  0.00     0.113 A 
ATOM      3  N   UNL d   1      32.894  21.614 -21.313  0.00  0.00    -0.252 N 
ATOM      4  C   UNL d   1      32.431  22.294 -21.403  0.00  0.00     0.271 A 
ATOM      5  N   UNL d   1      33.026  21.895 -19.916  0.00  0.00    -0.206 NA
ATOM      6  N   UNL d   1      32.310  23.150 -19.476  0.00  0.00    -0.212 N 
ATOM      7  N   UNL d   1      31.863  23.692 -19.894  0.00  0.00    -0.162 NA
ATOM      8  C   UNL d   1      33.191  21.414 -20.570  0.00  0.00     0.187 A 
ATOM      9  C   UNL d   1      31.834  23.469 -20.665  0.00  0.00     0.129 A 
ATOM     10  O   UNL d   1      32.134  22.494 -22.146  0.00  0.00    -0.266 OA
ENDROOT
BRANCH   3  11
ATOM     11  C   UNL d   1      33.063  21.126 -21.970  0.00  0.00     0.132 C 
ATOM     12  C   UNL d   1      33.241  21.471 -22.698  0.00  0.00     0.025 C 
BRANCH  11  13
ATOM     13  C   UNL d   1      33.051  20.299 -21.888  0.00  0.00     0.317 C 
ATOM     14  O   UNL d   1      33.151  19.963 -21.150  0.00  0.00    -0.257 OA
BRANCH  13  15
ATOM     15  O   UNL d   1      32.938  19.832 -22.558  0.00  0.00    -0.270 OA
BRANCH  15  16
ATOM     16  C   UNL d   1      32.970  19.005 -22.483  0.00  0.00     0.126 C 
ATOM     17  C   UNL d   1      32.741  18.544 -23.119  0.00  0.00     0.029 C 
ENDBRANCH  15  16
ENDBRANCH  13  15
ENDBRANCH  11  13
ENDBRANCH   3  11
BRANCH   6  18
ATOM     18  C   UNL d   1      32.453  23.206 -18.677  0.00  0.00     0.085 A 
ATOM     19  C   UNL d   1      31.955  22.825 -18.139  0.00  0.00     0.020 A 
ATOM     20  C   UNL d   1      32.103  22.884 -17.332  0.00  0.00     0.013 A 
ATOM     21  C   UNL d   1      32.732  23.313 -17.049  0.00  0.00     0.058 A 
ATOM     22  C   UNL d   1      33.241  23.702 -17.595  0.00  0.00     0.013 A 
ATOM     23 CL   UNL d   1      32.866  23.361 -16.222  0.00  0.00    -0.082 Cl
ATOM     24  C   UNL d   1      33.102  23.649 -18.399  0.00  0.00     0.020 A 
ENDBRANCH   6  18
TORSDOF 5
ENDMDL
MODEL 2
REMARK VINA RESULT:      -1.1      2.654      3.984
REMARK  5 active torsions:
REMARK  status: ('A' for Active; 'I' for Inactive)
REMARK    1  A    between atoms: C_10  and  N_3 
REMARK    2  A    between atoms: C_12  and  N_6 
REMARK    3  A    between atoms: C_11  and  C_10 
REMARK    4  A    between atoms: O_18  and  C_11 
REMARK    5  A    between atoms: C_23  and  O_18 
ROOT
ATOM      1  C   UNL d   1      33.053  19.952 -22.914  0.00  0.00     0.172 A 
ATOM      2  C   UNL d   1      33.102  19.865 -23.733  0.00  0.00     0.113 A 
ATOM      3  N   UNL d   1      32.919  18.456 -23.595  0.00  0.00    -0.252 N 
ATOM      4  C   UNL d   1      33.035  19.121 -24.073  0.00  0.00     0.271 A 
ATOM      5  N   UNL d   1      32.938  19.296 -22.435  0.00  0.00    -0.206 NA
ATOM      6  N   UNL d   1      33.141  20.759 -22.745  0.00  0.00    -0.212 N 
ATOM      7  N   UNL d   1      33.241  21.154 -23.455  0.00  0.00    -0.162 NA
ATOM      8  C   UNL d   1      32.870  18.543 -22.776  0.00  0.00     0.187 A 
ATOM      9  C   UNL d   1      33.219  20.620 -24.056  0.00  0.00     0.129 A 
ATOM     10  O   UNL d   1      33.084  19.034 -24.892  0.00  0.00    -0.266 OA
ENDROOT
BRANCH   3  11
ATOM     11  C   UNL d   1      32.850  17.696 -23.933  0.00  0.00     0.132 C 
ATOM     12  C   UNL d   1      33.144  17.560 -24.691  0.00  0.00     0.025 C 
BRANCH  11  13
ATOM     13  C   UNL d   1      32.486  17.082 -23.507  0.00  0.00     0.317 C 
ATOM     14  O   UNL d   1      32.850  16.779 -22.841  0.00  0.00    -0.257 OA
BRANCH  13  15
ATOM     15  O   UNL d   1      31.760  16.790 -23.767  0.00  0.00    -0.270 OA
BRANCH  15  16
ATOM     16  C   UNL d   1      31.512  16.040 -23.509  0.00  0.00     0.126 C 
ATOM     17  C   UNL d   1      30.731  15.824 -23.621  0.00  0.00     0.029 C 
ENDBRANCH  15  16
ENDBRANCH  13  15
ENDBRANCH  11  13
ENDBRANCH   3  11
BRANCH   6  18
ATOM     18  C   UNL d   1      33.134  21.133 -22.022  0.00  0.00     0.085 A 
ATOM     19  C   UNL d   1      33.076  21.956 -21.981  0.00  0.00     0.020 A 
ATOM     20  C   UNL d   1      33.070  22.330 -21.249  0.00  0.00     0.013 A 
ATOM     21  C   UNL d   1      33.119  21.906 -20.558  0.00  0.00     0.058 A 
ATOM     22  C   UNL d   1      33.178  21.066 -20.597  0.00  0.00     0.013 A 
ATOM     23 CL   UNL d   1      33.111  22.305 -19.820  0.00  0.00    -0.082 Cl
ATOM     24  C   UNL d   1      33.185  20.685 -21.320  0.00  0.00     0.020 A 
ENDBRANCH   6  18
TORSDOF 5
ENDMDL
MODEL 3
REMARK VINA RESULT:      -1.0      1.344      2.013
REMARK  5 active torsions:
REMARK  status: ('A' for Active; 'I' for Inactive)
REMARK    1  A    between atoms: C_10  and  N_3 
REMARK    2  A    between atoms: C_12  and  N_6 
REMARK    3  A    between atoms: C_11  and  C_10 
REMARK    4  A    between atoms: O_18  and  C_11 
REMARK    5  A    between atoms: C_23  and  O_18 
ROOT
ATOM      1  C   UNL d   1      32.924  21.745 -21.679  0.00  0.00     0.172 A 
ATOM      2  C   UNL d   1      33.067  21.782 -22.491  0.00  0.00     0.113 A 
ATOM      3  N   UNL d   1      32.984  20.359 -22.570  0.00  0.00    -0.252 N 
ATOM      4  C   UNL d   1      33.097  21.093 -22.936  0.00  0.00     0.271 A 
ATOM      5  N   UNL d   1      32.811  21.020 -21.312  0.00  0.00    -0.206 NA
ATOM      6  N   UNL d   1      32.928  22.524 -21.392  0.00  0.00    -0.212 N 
ATOM      7  N   UNL d   1      33.071  23.023 -22.024  0.00  0.00    -0.162 NA
ATOM      8  C   UNL d   1      32.841  20.323 -21.758  0.00  0.00     0.187 A 
ATOM      9  C   UNL d   1      33.156  22.582 -22.690  0.00  0.00     0.129 A 
ATOM     10  O   UNL d   1      33.240  21.130 -23.747  0.00  0.00    -0.266 OA
ENDROOT
BRANCH   3  11
ATOM     11  C   UNL d   1      33.013  19.654 -23.015  0.00  0.00     0.132 C 
ATOM     12  C   UNL d   1      33.238  19.682 -23.808  0.00  0.00     0.025 C 
BRANCH  11  13
ATOM     13  C   UNL d   1      32.815  18.929 -22.660  0.00  0.00     0.317 C 
ATOM     14  O   UNL d   1      33.133  18.733 -21.934  0.00  0.00    -0.257 OA
BRANCH  13  15
ATOM     15  O   UNL d   1      32.298  18.419 -23.052  0.00  0.00    -0.270 OA
BRANCH  15  16
ATOM     16  C   UNL d   1      32.511  17.621 -23.143  0.00  0.00     0.126 C 
ATOM     17  C   UNL d   1      32.044  17.141 -23.613  0.00  0.00     0.029 C 
ENDBRANCH  15  16
ENDBRANCH  13  15
ENDBRANCH  11  13
ENDBRANCH   3  11
BRANCH   6  18
ATOM     18  C   UNL d   1      32.814  22.786 -20.629  0.00  0.00     0.085 A 
ATOM     19  C   UNL d   1      32.274  23.393 -20.477  0.00  0.00     0.020 A 
ATOM     20  C   UNL d   1      32.161  23.656 -19.706  0.00  0.00     0.013 A 
ATOM     21  C   UNL d   1      32.571  23.330 -19.085  0.00  0.00     0.058 A 
ATOM     22  C   UNL d   1      33.122  22.711 -19.238  0.00  0.00     0.013 A 
ATOM     23 CL   UNL d   1      32.443  23.612 -18.305  0.00  0.00    -0.082 Cl
ATOM     24  C   UNL d   1      33.241  22.443 -20.001  0.00  0.00     0.020 A 
ENDBRANCH   6  18
TORSDOF 5
ENDMDL
MODEL 4
REMARK VINA RESULT:      -1.0      2.918      5.808
REMARK  5 active torsions:
REMARK  status: ('A' for Active; 'I' for Inactive)
REMARK    1  A    between atoms: C_10  and  N_3 
REMARK    2  A    between atoms: C_12  and  N_6 
REMARK    3  A    between atoms: C_11  and  C_10 
REMARK    4  A    between atoms: O_18  and  C_11 
REMARK    5  A    between atoms: C_23  and  O_18 
ROOT
ATOM      1  C   UNL d   1      32.826  19.262 -23.397  0.00  0.00     0.172 A 
ATOM      2  C   UNL d   1      32.979  19.979 -23.774  0.00  0.00     0.113 A 
ATOM      3  N   UNL d   1      33.047  20.631 -22.507  0.00  0.00    -0.252 N 
ATOM      4  C   UNL d   1      33.089  20.662 -23.333  0.00  0.00     0.271 A 
ATOM      5  N   UNL d   1      32.784  19.226 -22.578  0.00  0.00    -0.206 NA
ATOM      6  N   UNL d   1      32.743  18.684 -23.987  0.00  0.00    -0.212 N 
ATOM      7  N   UNL d   1      32.844  19.051 -24.712  0.00  0.00    -0.162 NA
ATOM      8  C   UNL d   1      32.894  19.914 -22.130  0.00  0.00     0.187 A 
ATOM      9  C   UNL d   1      32.987  19.832 -24.591  0.00  0.00     0.129 A 
ATOM     10  O   UNL d   1      33.241  21.379 -23.710  0.00  0.00    -0.266 OA
ENDROOT
BRANCH   3  11
ATOM     11  C   UNL d   1      33.157  21.321 -22.050  0.00  0.00     0.132 C 
ATOM     12  C   UNL d   1      33.241  22.050 -22.428  0.00  0.00     0.025 C 
BRANCH  11  13
ATOM     13  C   UNL d   1      33.182  21.272 -21.221  0.00  0.00     0.317 C 
ATOM     14  O   UNL d   1      33.238  20.542 -20.859  0.00  0.00    -0.257 OA
BRANCH  13  15
ATOM     15  O   UNL d   1      33.151  21.967 -20.778  0.00  0.00    -0.270 OA
BRANCH  15  16
ATOM     16  C   UNL d   1      33.169  21.918 -19.949  0.00  0.00     0.126 C 
ATOM     17  C   UNL d   1      33.029  22.595 -19.511  0.00  0.00     0.029 C 
ENDBRANCH  15  16
ENDBRANCH  13  15
ENDBRANCH  11  13
ENDBRANCH   3  11
BRANCH   6  18
ATOM     18  C   UNL d   1      32.589  17.889 -23.904  0.00  0.00     0.085 A 
ATOM     19  C   UNL d   1      31.809  17.616 -23.905  0.00  0.00     0.020 A 
ATOM     20  C   UNL d   1      31.656  16.813 -23.821  0.00  0.00     0.013 A 
ATOM     21  C   UNL d   1      32.260  16.275 -23.737  0.00  0.00     0.058 A 
ATOM     22  C   UNL d   1      33.056  16.551 -23.736  0.00  0.00     0.013 A 
ATOM     23 CL   UNL d   1      32.084  15.459 -23.653  0.00  0.00    -0.082 Cl
ATOM     24  C   UNL d   1      33.217  17.348 -23.818  0.00  0.00     0.020 A 
ENDBRANCH   6  18
TORSDOF 5
ENDMDL
MODEL 5
REMARK VINA RESULT:      -0.9      4.624      7.540
REMARK  5 active torsions:
REMARK  status: ('A' for Active; 'I' for Inactive)
REMARK    1  A    between atoms: C_10  and  N_3 
REMARK    2  A    between atoms: C_12  and  N_6 
REMARK    3  A    between atoms: C_11  and  C_10 
REMARK    4  A    between atoms: O_18  and  C_11 
REMARK    5  A    between atoms: C_23  and  O_18 
ROOT
ATOM      1  C   UNL d   1      31.009  16.686 -24.216  0.00  0.00     0.172 A 
ATOM      2  C   UNL d   1      31.780  16.537 -24.468  0.00  0.00     0.113 A 
ATOM      3  N   UNL d   1      32.170  17.843 -24.045  0.00  0.00    -0.252 N 
ATOM      4  C   UNL d   1      32.359  17.112 -24.383  0.00  0.00     0.271 A 
ATOM      5  N   UNL d   1      30.816  17.409 -23.879  0.00  0.00    -0.206 NA
ATOM      6  N   UNL d   1      30.561  16.006 -24.374  0.00  0.00    -0.212 N 
ATOM      7  N   UNL d   1      31.058  15.454 -24.718  0.00  0.00    -0.162 NA
ATOM      8  C   UNL d   1      31.398  17.992 -23.793  0.00  0.00     0.187 A 
ATOM      9  C   UNL d   1      31.795  15.768 -24.778  0.00  0.00     0.129 A 
ATOM     10  O   UNL d   1      33.130  16.964 -24.636  0.00  0.00    -0.266 OA
ENDROOT
BRANCH   3  11
ATOM     11  C   UNL d   1      32.753  18.434 -23.956  0.00  0.00     0.132 C 
ATOM     12  C   UNL d   1      33.140  18.728 -24.622  0.00  0.00     0.025 C 
BRANCH  11  13
ATOM     13  C   UNL d   1      32.941  18.722 -23.199  0.00  0.00     0.317 C 
ATOM     14  O   UNL d   1      33.241  18.214 -22.634  0.00  0.00    -0.257 OA
BRANCH  13  15
ATOM     15  O   UNL d   1      32.821  19.521 -23.034  0.00  0.00    -0.270 OA
BRANCH  15  16
ATOM     16  C   UNL d   1      33.039  19.816 -22.289  0.00  0.00     0.126 C 
ATOM     17  C   UNL d   1      32.868  20.596 -22.109  0.00  0.00     0.029 C 
ENDBRANCH  15  16
ENDBRANCH  13  15
ENDBRANCH  11  13
ENDBRANCH   3  11
BRANCH   6  18
ATOM     18  C   UNL d   1      29.771  15.870 -24.231  0.00  0.00     0.085 A 
ATOM     19  C   UNL d   1      29.251  15.744 -24.861  0.00  0.00     0.020 A 
ATOM     20  C   UNL d   1      28.454  15.608 -24.713  0.00  0.00     0.013 A 
ATOM     21  C   UNL d   1      28.162  15.594 -23.955  0.00  0.00     0.058 A 
ATOM     22  C   UNL d   1      28.690  15.722 -23.311  0.00  0.00     0.013 A 
ATOM     23 CL   UNL d   1      27.346  15.453 -23.824  0.00  0.00    -0.082 Cl
ATOM     24  C   UNL d   1      29.485  15.858 -23.448  0.00  0.00     0.020 A 
ENDBRANCH   6  18
TORSDOF 5
ENDMDL
MODEL 6
REMARK VINA RESULT:      -0.3      4.746      6.492
REMARK  5 active torsions:
REMARK  status: ('A' for Active; 'I' for Inactive)
REMARK    1  A    between atoms: C_10  and  N_3 
REMARK    2  A    between atoms: C_12  and  N_6 
REMARK    3  A    between atoms: C_11  and  C_10 
REMARK    4  A    between atoms: O_18  and  C_11 
REMARK    5  A    between atoms: C_23  and  O_18 
ROOT
ATOM      1  C   UNL d   1      31.938  17.766 -24.021  0.00  0.00     0.172 A 
ATOM      2  C   UNL d   1      32.094  17.092 -24.470  0.00  0.00     0.113 A 
ATOM      3  N   UNL d   1      30.721  16.712 -24.375  0.00  0.00    -0.252 N 
ATOM      4  C   UNL d   1      31.489  16.566 -24.647  0.00  0.00     0.271 A 
ATOM      5  N   UNL d   1      31.178  17.915 -23.748  0.00  0.00    -0.206 NA
ATOM      6  N   UNL d   1      32.653  18.179 -23.938  0.00  0.00    -0.212 N 
ATOM      7  N   UNL d   1      33.232  17.758 -24.334  0.00  0.00    -0.162 NA
ATOM      8  C   UNL d   1      30.566  17.386 -23.926  0.00  0.00     0.187 A 
ATOM      9  C   UNL d   1      32.902  17.101 -24.657  0.00  0.00     0.129 A 
ATOM     10  O   UNL d   1      31.645  15.892 -25.096  0.00  0.00    -0.266 OA
ENDROOT
BRANCH   3  11
ATOM     11  C   UNL d   1      30.101  16.182 -24.551  0.00  0.00     0.132 C 
ATOM     12  C   UNL d   1      30.268  15.474 -24.941  0.00  0.00     0.025 C 
BRANCH  11  13
ATOM     13  C   UNL d   1      29.321  16.367 -24.334  0.00  0.00     0.317 C 
ATOM     14  O   UNL d   1      29.083  17.148 -24.301  0.00  0.00    -0.257 OA
BRANCH  13  15
ATOM     15  O   UNL d   1      28.799  15.754 -24.153  0.00  0.00    -0.270 OA
BRANCH  15  16
ATOM     16  C   UNL d   1      28.190  15.891 -23.604  0.00  0.00     0.126 C 
ATOM     17  C   UNL d   1      27.449  15.579 -23.753  0.00  0.00     0.029 C 
ENDBRANCH  15  16
ENDBRANCH  13  15
ENDBRANCH  11  13
ENDBRANCH   3  11
BRANCH   6  18
ATOM     18  C   UNL d   1      32.795  18.878 -23.545  0.00  0.00     0.085 A 
ATOM     19  C   UNL d   1      33.016  18.867 -22.749  0.00  0.00     0.020 A 
ATOM     20  C   UNL d   1      33.160  19.574 -22.355  0.00  0.00     0.013 A 
ATOM     21  C   UNL d   1      33.089  20.290 -22.733  0.00  0.00     0.058 A 
ATOM     22  C   UNL d   1      32.864  20.303 -23.544  0.00  0.00     0.013 A 
ATOM     23 CL   UNL d   1      33.239  21.001 -22.313  0.00  0.00    -0.082 Cl
ATOM     24  C   UNL d   1      32.719  19.605 -23.945  0.00  0.00     0.020 A 
ENDBRANCH   6  18
TORSDOF 5
ENDMDL
MODEL 7
REMARK VINA RESULT:       0.7      2.221      4.686
REMARK  5 active torsions:
REMARK  status: ('A' for Active; 'I' for Inactive)
REMARK    1  A    between atoms: C_10  and  N_3 
REMARK    2  A    between atoms: C_12  and  N_6 
REMARK    3  A    between atoms: C_11  and  C_10 
REMARK    4  A    between atoms: O_18  and  C_11 
REMARK    5  A    between atoms: C_23  and  O_18 
ROOT
ATOM      1  C   UNL d   1      32.624  21.589 -21.297  0.00  0.00     0.172 A 
ATOM      2  C   UNL d   1      32.536  22.404 -21.391  0.00  0.00     0.113 A 
ATOM      3  N   UNL d   1      32.363  22.549 -19.982  0.00  0.00    -0.252 N 
ATOM      4  C   UNL d   1      32.406  22.883 -20.738  0.00  0.00     0.271 A 
ATOM      5  N   UNL d   1      32.582  21.253 -20.549  0.00  0.00    -0.206 NA
ATOM      6  N   UNL d   1      32.747  21.264 -22.050  0.00  0.00    -0.212 N 
ATOM      7  N   UNL d   1      32.733  21.877 -22.592  0.00  0.00    -0.162 NA
ATOM      8  C   UNL d   1      32.450  21.734 -19.888  0.00  0.00     0.187 A 
ATOM      9  C   UNL d   1      32.606  22.568 -22.201  0.00  0.00     0.129 A 
ATOM     10  O   UNL d   1      32.319  23.698 -20.833  0.00  0.00    -0.266 OA
ENDROOT
BRANCH   3  11
ATOM     11  C   UNL d   1      32.230  23.030 -19.313  0.00  0.00     0.132 C 
ATOM     12  C   UNL d   1      31.757  23.702 -19.381  0.00  0.00     0.025 C 
BRANCH  11  13
ATOM     13  C   UNL d   1      32.574  22.830 -18.583  0.00  0.00     0.317 C 
ATOM     14  O   UNL d   1      33.241  22.358 -18.563  0.00  0.00    -0.257 OA
BRANCH  13  15
ATOM     15  O   UNL d   1      32.233  23.116 -17.888  0.00  0.00    -0.270 OA
BRANCH  15  16
ATOM     16  C   UNL d   1      32.659  23.061 -17.177  0.00  0.00     0.126 C 
ATOM     17  C   UNL d   1      32.250  23.102 -16.469  0.00  0.00     0.029 C 
ENDBRANCH  15  16
ENDBRANCH  13  15
ENDBRANCH  11  13
ENDBRANCH   3  11
BRANCH   6  18
ATOM     18  C   UNL d   1      32.864  20.485 -22.256  0.00  0.00     0.085 A 
ATOM     19  C   UNL d   1      32.732  20.240 -23.034  0.00  0.00     0.020 A 
ATOM     20  C   UNL d   1      32.851  19.452 -23.240  0.00  0.00     0.013 A 
ATOM     21  C   UNL d   1      33.096  18.905 -22.691  0.00  0.00     0.058 A 
ATOM     22  C   UNL d   1      33.231  19.154 -21.898  0.00  0.00     0.013 A 
ATOM     23 CL   UNL d   1      33.212  18.106 -22.920  0.00  0.00    -0.082 Cl
ATOM     24  C   UNL d   1      33.116  19.935 -21.684  0.00  0.00     0.020 A 
ENDBRANCH   6  18
TORSDOF 5
ENDMDL
