MODEL 1
REMARK VINA RESULT:       0.2      0.000      0.000
REMARK  6 active torsions:
REMARK  status: ('A' for Active; 'I' for Inactive)
REMARK    1  A    between atoms: C_8  and  N_1 
REMARK    2  A    between atoms: C_6  and  C_3 
REMARK    3  A    between atoms: C_7  and  C_6 
REMARK       I    between atoms: N_11  and  C_7 
REMARK    4  A    between atoms: C_9  and  C_8 
REMARK       I    between atoms: N_12  and  C_9 
REMARK    5  A    between atoms: C_17  and  N_11 
REMARK    6  A    between atoms: C_16  and  N_12 
ROOT
ATOM      1  N   UNL d   1     -41.350-122.445 -50.931  0.00  0.00    -0.230 N 
ATOM      2  C   UNL d   1     -41.601-121.731 -51.267  0.00  0.00     0.299 A 
ATOM      3  C   UNL d   1     -41.608-122.662 -52.218  0.00  0.00     0.095 A 
ATOM      4  C   UNL d   1     -41.354-123.021 -51.519  0.00  0.00     0.274 A 
ATOM      5  S   UNL d   1     -41.758-121.876 -52.062  0.00  0.00    -0.022 SA
ATOM      6  O   UNL d   1     -41.677-121.012 -50.871  0.00  0.00    -0.259 OA
ATOM      7  O   UNL d   1     -41.142-123.815 -51.425  0.00  0.00    -0.266 OA
ENDROOT
BRANCH   1   8
ATOM      8  C   UNL d   1     -41.133-122.557 -50.140  0.00  0.00     0.149 C 
BRANCH   8   9
ATOM      9  C   UNL d   1     -41.681-122.861 -49.604  0.00  0.00     0.297 C 
ATOM     10  N   UNL d   1     -41.676-122.603 -48.826  0.00  0.00    -0.207 NA
ATOM     11  O   UNL d   1     -42.234-123.425 -49.852  0.00  0.00    -0.264 OA
BRANCH  10  12
ATOM     12  C   UNL d   1     -42.226-122.907 -48.286  0.00  0.00     0.085 A 
ATOM     13  C   UNL d   1     -42.990-123.077 -48.536  0.00  0.00     0.019 A 
ATOM     14  C   UNL d   1     -43.538-123.379 -48.001  0.00  0.00     0.002 A 
ATOM     15  C   UNL d   1     -43.317-123.510 -47.214  0.00  0.00     0.000 A 
ATOM     16  C   UNL d   1     -42.542-123.336 -46.968  0.00  0.00     0.002 A 
ATOM     17  C   UNL d   1     -43.860-123.811 -46.676  0.00  0.00     0.000 C 
ATOM     18  C   UNL d   1     -41.999-123.034 -47.506  0.00  0.00     0.019 A 
ENDBRANCH  10  12
ENDBRANCH   8   9
ENDBRANCH   1   8
BRANCH   3  19
ATOM     19  C   UNL d   1     -41.691-123.044 -52.945  0.00  0.00     0.074 C 
BRANCH  19  20
ATOM     20  C   UNL d   1     -41.741-122.602 -53.636  0.00  0.00     0.280 C 
ATOM     21  N   UNL d   1     -42.002-122.944 -54.333  0.00  0.00    -0.208 NA
ATOM     22  O   UNL d   1     -41.527-121.802 -53.633  0.00  0.00    -0.265 OA
BRANCH  21  23
ATOM     23  C   UNL d   1     -42.051-122.500 -55.021  0.00  0.00     0.085 A 
ATOM     24  C   UNL d   1     -42.776-122.402 -55.395  0.00  0.00     0.020 A 
ATOM     25  C   UNL d   1     -42.823-121.955 -56.088  0.00  0.00     0.013 A 
ATOM     26  C   UNL d   1     -42.151-121.609 -56.401  0.00  0.00     0.058 A 
ATOM     27  C   UNL d   1     -41.416-121.705 -56.025  0.00  0.00     0.013 A 
ATOM     28 CL   UNL d   1     -42.196-121.161 -57.093  0.00  0.00    -0.082 Cl
ATOM     29  C   UNL d   1     -41.370-122.153 -55.332  0.00  0.00     0.020 A 
ENDBRANCH  21  23
ENDBRANCH  19  20
ENDBRANCH   3  19
TORSDOF 6
ENDMDL
MODEL 2
REMARK VINA RESULT:       2.0      2.209      6.142
REMARK  6 active torsions:
REMARK  status: ('A' for Active; 'I' for Inactive)
REMARK    1  A    between atoms: C_8  and  N_1 
REMARK    2  A    between atoms: C_6  and  C_3 
REMARK    3  A    between atoms: C_7  and  C_6 
REMARK       I    between atoms: N_11  and  C_7 
REMARK    4  A    between atoms: C_9  and  C_8 
REMARK       I    between atoms: N_12  and  C_9 
REMARK    5  A    between atoms: C_17  and  N_11 
REMARK    6  A    between atoms: C_16  and  N_12 
ROOT
ATOM      1  N   UNL d   1     -41.130-121.593 -52.258  0.00  0.00    -0.230 N 
ATOM      2  C   UNL d   1     -41.131-121.186 -51.536  0.00  0.00     0.299 A 
ATOM      3  C   UNL d   1     -41.126-122.492 -51.277  0.00  0.00     0.095 A 
ATOM      4  C   UNL d   1     -41.127-122.401 -52.098  0.00  0.00     0.274 A 
ATOM      5  S   UNL d   1     -41.128-121.750 -50.937  0.00  0.00    -0.022 SA
ATOM      6  O   UNL d   1     -41.134-120.367 -51.445  0.00  0.00    -0.259 OA
ATOM      7  O   UNL d   1     -41.126-123.009 -52.659  0.00  0.00    -0.266 OA
ENDROOT
BRANCH   1   8
ATOM      8  C   UNL d   1     -41.133-121.245 -53.009  0.00  0.00     0.149 C 
BRANCH   8   9
ATOM      9  C   UNL d   1     -41.689-121.484 -53.570  0.00  0.00     0.297 C 
ATOM     10  N   UNL d   1     -41.439-121.830 -54.269  0.00  0.00    -0.207 NA
ATOM     11  O   UNL d   1     -42.497-121.373 -53.424  0.00  0.00    -0.264 OA
BRANCH  10  12
ATOM     12  C   UNL d   1     -41.996-122.070 -54.833  0.00  0.00     0.085 A 
ATOM     13  C   UNL d   1     -42.117-121.613 -55.506  0.00  0.00     0.019 A 
ATOM     14  C   UNL d   1     -42.671-121.850 -56.067  0.00  0.00     0.002 A 
ATOM     15  C   UNL d   1     -43.102-122.547 -55.953  0.00  0.00     0.000 A 
ATOM     16  C   UNL d   1     -42.974-123.005 -55.271  0.00  0.00     0.002 A 
ATOM     17  C   UNL d   1     -43.655-122.788 -56.511  0.00  0.00     0.000 C 
ATOM     18  C   UNL d   1     -42.421-122.764 -54.713  0.00  0.00     0.019 A 
ENDBRANCH  10  12
ENDBRANCH   8   9
ENDBRANCH   1   8
BRANCH   3  19
ATOM     19  C   UNL d   1     -41.123-123.215 -50.880  0.00  0.00     0.074 C 
BRANCH  19  20
ATOM     20  C   UNL d   1     -41.552-123.302 -50.184  0.00  0.00     0.280 C 
ATOM     21  N   UNL d   1     -41.170-123.432 -49.472  0.00  0.00    -0.208 NA
ATOM     22  O   UNL d   1     -42.378-123.257 -50.198  0.00  0.00    -0.265 OA
BRANCH  21  23
ATOM     23  C   UNL d   1     -41.602-123.518 -48.779  0.00  0.00     0.085 A 
ATOM     24  C   UNL d   1     -41.218-123.707 -48.077  0.00  0.00     0.020 A 
ATOM     25  C   UNL d   1     -41.654-123.793 -47.382  0.00  0.00     0.013 A 
ATOM     26  C   UNL d   1     -42.466-123.691 -47.389  0.00  0.00     0.058 A 
ATOM     27  C   UNL d   1     -42.857-123.500 -48.096  0.00  0.00     0.013 A 
ATOM     28 CL   UNL d   1     -42.902-123.776 -46.693  0.00  0.00    -0.082 Cl
ATOM     29  C   UNL d   1     -42.420-123.414 -48.792  0.00  0.00     0.020 A 
ENDBRANCH  21  23
ENDBRANCH  19  20
ENDBRANCH   3  19
TORSDOF 6
ENDMDL
