MODEL 1
REMARK VINA RESULT:      90.4      0.000      0.000
REMARK  6 active torsions:
REMARK  status: ('A' for Active; 'I' for Inactive)
REMARK    1  A    between atoms: N_9  and  C_1 
REMARK    2  A    between atoms: C_15  and  N_4 
REMARK    3  A    between atoms: C_7  and  N_9 
REMARK    4  A    between atoms: C_12  and  C_11 
REMARK    5  A    between atoms: C_13  and  C_12 
REMARK       I    between atoms: N_16  and  C_13 
REMARK    6  A    between atoms: C_20  and  N_16 
ROOT
ATOM      1  N   UNL d   1      61.008  49.511  51.316  0.00  0.00    -0.182 NA
ATOM      2  C   UNL d   1      60.436  49.222  50.793  0.00  0.00     0.197 A 
ATOM      3  C   UNL d   1      61.388  48.868  51.662  0.00  0.00     0.287 A 
ATOM      4  S   UNL d   1      60.464  48.394  50.818  0.00  0.00    -0.043 SA
ATOM      5  C   UNL d   1      61.050  48.182  51.353  0.00  0.00     0.095 A 
ATOM      6  O   UNL d   1      61.999  48.906  52.220  0.00  0.00    -0.265 OA
ENDROOT
BRANCH   2   7
ATOM      7  N   UNL d   1      59.928  49.680  50.331  0.00  0.00    -0.215 NA
BRANCH   7   8
ATOM      8  C   UNL d   1      59.126  49.682  50.483  0.00  0.00     0.159 A 
ATOM      9  C   UNL d   1      58.780  49.674  51.237  0.00  0.00     0.298 A 
ATOM     10  N   UNL d   1      57.957  49.679  51.135  0.00  0.00    -0.209 N 
ATOM     11  O   UNL d   1      59.179  49.663  51.953  0.00  0.00    -0.263 OA
ATOM     12  N   UNL d   1      57.799  49.690  50.326  0.00  0.00    -0.238 N 
ATOM     13  C   UNL d   1      58.523  49.692  49.922  0.00  0.00     0.104 A 
ATOM     14  C   UNL d   1      57.057  49.697  49.977  0.00  0.00     0.120 C 
ATOM     15  C   UNL d   1      58.627  49.702  49.111  0.00  0.00     0.022 C 
BRANCH  10  16
ATOM     16  C   UNL d   1      57.400  49.673  51.731  0.00  0.00     0.085 A 
ATOM     17  C   UNL d   1      57.643  49.706  52.523  0.00  0.00     0.019 A 
ATOM     18  C   UNL d   1      57.086  49.700  53.119  0.00  0.00     0.002 A 
ATOM     19  C   UNL d   1      56.274  49.663  52.942  0.00  0.00     0.000 A 
ATOM     20  C   UNL d   1      56.035  49.631  52.153  0.00  0.00     0.002 A 
ATOM     21  C   UNL d   1      56.597  49.636  51.550  0.00  0.00     0.019 A 
ENDBRANCH  10  16
ENDBRANCH   7   8
ENDBRANCH   2   7
BRANCH   5  22
ATOM     22  C   UNL d   1      61.269  47.412  51.551  0.00  0.00     0.074 C 
BRANCH  22  23
ATOM     23  C   UNL d   1      61.207  46.811  50.994  0.00  0.00     0.280 C 
ATOM     24  N   UNL d   1      61.642  46.122  51.073  0.00  0.00    -0.208 NA
ATOM     25  O   UNL d   1      60.700  46.899  50.345  0.00  0.00    -0.265 OA
BRANCH  24  26
ATOM     26  C   UNL d   1      61.577  45.524  50.514  0.00  0.00     0.085 A 
ATOM     27  C   UNL d   1      61.380  44.760  50.755  0.00  0.00     0.020 A 
ATOM     28  C   UNL d   1      61.314  44.157  50.195  0.00  0.00     0.013 A 
ATOM     29  C   UNL d   1      61.448  44.326  49.392  0.00  0.00     0.058 A 
ATOM     30  C   UNL d   1      61.644  45.086  49.159  0.00  0.00     0.013 A 
ATOM     31 CL   UNL d   1      61.382  43.723  48.832  0.00  0.00    -0.082 Cl
ATOM     32  C   UNL d   1      61.710  45.689  49.719  0.00  0.00     0.020 A 
ENDBRANCH  24  26
ENDBRANCH  22  23
ENDBRANCH   5  22
TORSDOF 6
ENDMDL
