MODEL 1
REMARK VINA RESULT:     107.4      0.000      0.000
REMARK  5 active torsions:
REMARK  status: ('A' for Active; 'I' for Inactive)
REMARK    1  A    between atoms: C_14  and  N_3 
REMARK    2  A    between atoms: C_15  and  C_9 
REMARK    3  A    between atoms: O_22  and  C_12 
REMARK    4  A    between atoms: O_23  and  C_13 
REMARK    5  A    between atoms: C_16  and  C_14 
ROOT
ATOM      1  C   UNL d   1      59.693  49.216  52.478  0.00  0.00     0.056 A 
ATOM      2  C   UNL d   1      59.693  49.323  53.301  0.00  0.00     0.107 A 
ATOM      3  N   UNL d   1      58.262  49.278  52.482  0.00  0.00    -0.304 N 
ATOM      4  C   UNL d   1      58.983  49.407  53.708  0.00  0.00     0.038 A 
ATOM      5  N   UNL d   1      60.478  49.323  53.550  0.00  0.00    -0.148 NA
ATOM      6  C   UNL d   1      58.977  49.193  52.068  0.00  0.00     0.083 A 
ATOM      7  N   UNL d   1      60.957  49.216  52.887  0.00  0.00    -0.148 NA
ATOM      8  C   UNL d   1      58.267  49.384  53.298  0.00  0.00     0.068 A 
ATOM      9  C   UNL d   1      60.479  49.150  52.223  0.00  0.00     0.106 A 
ATOM     10  C   UNL d   1      57.556  49.467  53.705  0.00  0.00     0.044 A 
ATOM     11  C   UNL d   1      58.987  49.513  54.524  0.00  0.00     0.029 A 
ATOM     12  C   UNL d   1      57.561  49.573  54.521  0.00  0.00     0.118 A 
ATOM     13  C   UNL d   1      58.277  49.596  54.931  0.00  0.00     0.116 A 
ENDROOT
BRANCH   3  14
ATOM     14  C   UNL d   1      57.546  49.255  52.072  0.00  0.00     0.080 C 
BRANCH  14  15
ATOM     15  C   UNL d   1      57.530  49.402  51.262  0.00  0.00     0.020 A 
ATOM     16  C   UNL d   1      56.803  49.410  50.854  0.00  0.00     0.031 A 
ATOM     17  C   UNL d   1      56.786  49.557  50.045  0.00  0.00     0.140 A 
ATOM     18  F   UNL d   1      56.065  49.564  49.644  0.00  0.00    -0.204 F 
ATOM     19  C   UNL d   1      57.495  49.698  49.628  0.00  0.00     0.030 A 
ATOM     20  C   UNL d   1      58.221  49.690  50.036  0.00  0.00     0.002 A 
ATOM     21  C   UNL d   1      58.236  49.543  50.850  0.00  0.00     0.002 A 
ENDBRANCH  14  15
ENDBRANCH   3  14
BRANCH   9  22
ATOM     22  C   UNL d   1      60.818  49.038  51.479  0.00  0.00     0.020 A 
ATOM     23  C   UNL d   1      61.285  49.634  51.146  0.00  0.00     0.004 A 
ATOM     24  C   UNL d   1      61.624  49.518  50.397  0.00  0.00     0.030 A 
ATOM     25  C   UNL d   1      61.496  48.823  49.993  0.00  0.00     0.140 A 
ATOM     26  C   UNL d   1      61.030  48.227  50.323  0.00  0.00     0.030 A 
ATOM     27  F   UNL d   1      61.839  48.719  49.247  0.00  0.00    -0.204 F 
ATOM     28  C   UNL d   1      60.689  48.335  51.070  0.00  0.00     0.004 A 
ENDBRANCH   9  22
BRANCH  12  29
ATOM     29  O   UNL d   1      56.833  49.658  54.933  0.00  0.00    -0.326 OA
ATOM     30  C   UNL d   1      56.348  48.998  55.048  0.00  0.00     0.181 C 
ENDBRANCH  12  29
BRANCH  13  31
ATOM     31  O   UNL d   1      58.275  49.704  55.758  0.00  0.00    -0.326 OA
ATOM     32  C   UNL d   1      57.560  49.691  56.174  0.00  0.00     0.181 C 
ENDBRANCH  13  31
TORSDOF 5
ENDMDL
MODEL 2
REMARK VINA RESULT:     108.2      2.022      4.165
REMARK  5 active torsions:
REMARK  status: ('A' for Active; 'I' for Inactive)
REMARK    1  A    between atoms: C_14  and  N_3 
REMARK    2  A    between atoms: C_15  and  C_9 
REMARK    3  A    between atoms: O_22  and  C_12 
REMARK    4  A    between atoms: O_23  and  C_13 
REMARK    5  A    between atoms: C_16  and  C_14 
ROOT
ATOM      1  C   UNL d   1      58.867  49.238  53.113  0.00  0.00     0.056 A 
ATOM      2  C   UNL d   1      59.661  49.410  52.940  0.00  0.00     0.107 A 
ATOM      3  N   UNL d   1      58.677  48.811  51.759  0.00  0.00    -0.304 N 
ATOM      4  C   UNL d   1      59.956  49.282  52.183  0.00  0.00     0.038 A 
ATOM      5  N   UNL d   1      60.008  49.697  53.630  0.00  0.00    -0.148 NA
ATOM      6  C   UNL d   1      58.375  48.939  52.522  0.00  0.00     0.083 A 
ATOM      7  N   UNL d   1      59.433  49.702  54.222  0.00  0.00    -0.148 NA
ATOM      8  C   UNL d   1      59.464  48.983  51.593  0.00  0.00     0.068 A 
ATOM      9  C   UNL d   1      58.728  49.421  53.910  0.00  0.00     0.106 A 
ATOM     10  C   UNL d   1      59.760  48.854  50.834  0.00  0.00     0.044 A 
ATOM     11  C   UNL d   1      60.744  49.453  52.015  0.00  0.00     0.029 A 
ATOM     12  C   UNL d   1      60.548  49.026  50.668  0.00  0.00     0.118 A 
ATOM     13  C   UNL d   1      61.040  49.325  51.258  0.00  0.00     0.116 A 
ENDROOT
BRANCH   3  14
ATOM     14  C   UNL d   1      58.185  48.512  51.168  0.00  0.00     0.080 C 
BRANCH  14  15
ATOM     15  C   UNL d   1      57.480  48.896  50.985  0.00  0.00     0.020 A 
ATOM     16  C   UNL d   1      57.264  49.015  50.189  0.00  0.00     0.031 A 
ATOM     17  C   UNL d   1      56.560  49.399  50.005  0.00  0.00     0.140 A 
ATOM     18  F   UNL d   1      56.350  49.515  49.216  0.00  0.00    -0.204 F 
ATOM     19  C   UNL d   1      56.058  49.671  50.614  0.00  0.00     0.030 A 
ATOM     20  C   UNL d   1      56.274  49.552  51.410  0.00  0.00     0.002 A 
ATOM     21  C   UNL d   1      56.982  49.166  51.592  0.00  0.00     0.002 A 
ENDBRANCH  14  15
ENDBRANCH   3  14
BRANCH   9  22
ATOM     22  C   UNL d   1      58.057  49.367  54.386  0.00  0.00     0.020 A 
ATOM     23  C   UNL d   1      57.345  49.704  54.134  0.00  0.00     0.004 A 
ATOM     24  C   UNL d   1      56.672  49.648  54.616  0.00  0.00     0.030 A 
ATOM     25  C   UNL d   1      56.712  49.264  55.332  0.00  0.00     0.140 A 
ATOM     26  C   UNL d   1      57.421  48.926  55.587  0.00  0.00     0.030 A 
ATOM     27  F   UNL d   1      56.033  49.214  55.805  0.00  0.00    -0.204 F 
ATOM     28  C   UNL d   1      58.097  48.978  55.111  0.00  0.00     0.004 A 
ENDBRANCH   9  22
BRANCH  12  29
ATOM     29  O   UNL d   1      60.845  48.894  49.893  0.00  0.00    -0.326 OA
ATOM     30  C   UNL d   1      60.853  48.128  49.582  0.00  0.00     0.181 C 
ENDBRANCH  12  29
BRANCH  13  31
ATOM     31  O   UNL d   1      61.837  49.497  51.083  0.00  0.00    -0.326 OA
ATOM     32  C   UNL d   1      62.434  48.984  51.336  0.00  0.00     0.181 C 
ENDBRANCH  13  31
TORSDOF 5
ENDMDL
