MODEL 1
REMARK VINA RESULT:      -3.1      0.000      0.000
REMARK  5 active torsions:
REMARK  status: ('A' for Active; 'I' for Inactive)
REMARK    1  A    between atoms: C_6  and  N_1 
REMARK    2  A    between atoms: C_8  and  C_3 
REMARK    3  A    between atoms: C_7  and  C_6 
REMARK    4  A    between atoms: C_9  and  C_7 
REMARK    5  A    between atoms: C_14  and  C_8 
ROOT
ATOM      1  N   UNL d   1      58.907  -0.820  29.542  0.00  0.00    -0.289 N 
ATOM      2  N   UNL d   1      59.846  -1.593  28.972  0.00  0.00    -0.227 NA
ATOM      3  C   UNL d   1      59.053  -1.569  29.220  0.00  0.00     0.148 A 
ATOM      4  C   UNL d   1      59.608  -0.381  29.494  0.00  0.00     0.083 A 
ATOM      5  C   UNL d   1      60.186  -0.854  29.144  0.00  0.00     0.099 A 
ATOM      6  C   UNL d   1      59.801   0.394  29.723  0.00  0.00     0.019 A 
ATOM      7  C   UNL d   1      60.947  -0.563  29.022  0.00  0.00     0.021 A 
ATOM      8  C   UNL d   1      60.560   0.682  29.601  0.00  0.00     0.002 A 
ATOM      9  C   UNL d   1      61.133   0.204  29.250  0.00  0.00     0.002 A 
ENDROOT
BRANCH   1  10
ATOM     10  C   UNL d   1      58.198  -0.560  29.853  0.00  0.00     0.082 C 
BRANCH  10  11
ATOM     11  C   UNL d   1      58.232  -0.638  30.677  0.00  0.00     0.019 C 
BRANCH  11  12
ATOM     12  C   UNL d   1      57.585  -0.419  31.136  0.00  0.00     0.002 A 
ATOM     13  C   UNL d   1      57.376   0.378  31.194  0.00  0.00     0.000 A 
ATOM     14  C   UNL d   1      56.727   0.595  31.655  0.00  0.00     0.000 A 
ATOM     15  C   UNL d   1      56.295   0.021  32.051  0.00  0.00     0.000 A 
ATOM     16  C   UNL d   1      56.509  -0.773  31.988  0.00  0.00     0.000 A 
ATOM     17  C   UNL d   1      57.152  -0.988  31.532  0.00  0.00     0.000 A 
ENDBRANCH  11  12
ENDBRANCH  10  11
ENDBRANCH   1  10
BRANCH   3  18
ATOM     18  C   UNL d   1      58.513  -2.182  29.156  0.00  0.00     0.037 C 
BRANCH  18  19
ATOM     19  C   UNL d   1      58.690  -2.841  28.686  0.00  0.00     0.003 C 
ATOM     20  C   UNL d   1      58.179  -3.478  28.672  0.00  0.00     0.000 C 
ENDBRANCH  18  19
ENDBRANCH   3  18
TORSDOF 5
ENDMDL
MODEL 2
REMARK VINA RESULT:      -3.0      0.511      2.409
REMARK  5 active torsions:
REMARK  status: ('A' for Active; 'I' for Inactive)
REMARK    1  A    between atoms: C_6  and  N_1 
REMARK    2  A    between atoms: C_8  and  C_3 
REMARK    3  A    between atoms: C_7  and  C_6 
REMARK    4  A    between atoms: C_9  and  C_7 
REMARK    5  A    between atoms: C_14  and  C_8 
ROOT
ATOM      1  N   UNL d   1      58.950  -1.095  29.451  0.00  0.00    -0.289 N 
ATOM      2  N   UNL d   1      60.206  -1.393  29.079  0.00  0.00    -0.227 NA
ATOM      3  C   UNL d   1      59.723  -0.800  29.404  0.00  0.00     0.148 A 
ATOM      4  C   UNL d   1      58.955  -1.869  29.155  0.00  0.00     0.083 A 
ATOM      5  C   UNL d   1      59.725  -2.054  28.926  0.00  0.00     0.099 A 
ATOM      6  C   UNL d   1      58.355  -2.436  29.062  0.00  0.00     0.019 A 
ATOM      7  C   UNL d   1      59.901  -2.794  28.608  0.00  0.00     0.021 A 
ATOM      8  C   UNL d   1      58.533  -3.173  28.744  0.00  0.00     0.002 A 
ATOM      9  C   UNL d   1      59.306  -3.352  28.517  0.00  0.00     0.002 A 
ENDROOT
BRANCH   1  10
ATOM     10  C   UNL d   1      58.299  -0.694  29.737  0.00  0.00     0.082 C 
BRANCH  10  11
ATOM     11  C   UNL d   1      58.237  -0.848  30.548  0.00  0.00     0.019 C 
BRANCH  11  12
ATOM     12  C   UNL d   1      57.645  -0.485  30.990  0.00  0.00     0.002 A 
ATOM     13  C   UNL d   1      57.189  -0.935  31.511  0.00  0.00     0.000 A 
ATOM     14  C   UNL d   1      56.595  -0.569  31.953  0.00  0.00     0.000 A 
ATOM     15  C   UNL d   1      56.463   0.236  31.872  0.00  0.00     0.000 A 
ATOM     16  C   UNL d   1      56.922   0.680  31.349  0.00  0.00     0.000 A 
ATOM     17  C   UNL d   1      57.509   0.318  30.913  0.00  0.00     0.000 A 
ENDBRANCH  11  12
ENDBRANCH  10  11
ENDBRANCH   1  10
BRANCH   3  18
ATOM     18  C   UNL d   1      59.972  -0.054  29.637  0.00  0.00     0.037 C 
BRANCH  18  19
ATOM     19  C   UNL d   1      60.759   0.174  29.517  0.00  0.00     0.003 C 
ATOM     20  C   UNL d   1      61.120   0.678  30.049  0.00  0.00     0.000 C 
ENDBRANCH  18  19
ENDBRANCH   3  18
TORSDOF 5
ENDMDL
MODEL 3
REMARK VINA RESULT:      -2.0      0.731      3.282
REMARK  5 active torsions:
REMARK  status: ('A' for Active; 'I' for Inactive)
REMARK    1  A    between atoms: C_6  and  N_1 
REMARK    2  A    between atoms: C_8  and  C_3 
REMARK    3  A    between atoms: C_7  and  C_6 
REMARK    4  A    between atoms: C_9  and  C_7 
REMARK    5  A    between atoms: C_14  and  C_8 
ROOT
ATOM      1  N   UNL d   1      58.815  -0.961  29.616  0.00  0.00    -0.289 N 
ATOM      2  N   UNL d   1      58.882   0.085  30.456  0.00  0.00    -0.227 NA
ATOM      3  C   UNL d   1      58.445  -0.593  30.260  0.00  0.00     0.148 A 
ATOM      4  C   UNL d   1      59.480  -0.511  29.414  0.00  0.00     0.083 A 
ATOM      5  C   UNL d   1      59.524   0.132  29.929  0.00  0.00     0.099 A 
ATOM      6  C   UNL d   1      60.059  -0.600  28.825  0.00  0.00     0.019 A 
ATOM      7  C   UNL d   1      60.134   0.682  29.861  0.00  0.00     0.021 A 
ATOM      8  C   UNL d   1      60.667  -0.051  28.759  0.00  0.00     0.002 A 
ATOM      9  C   UNL d   1      60.704   0.590  29.277  0.00  0.00     0.002 A 
ENDROOT
BRANCH   1  10
ATOM     10  C   UNL d   1      58.568  -1.646  29.246  0.00  0.00     0.082 C 
BRANCH  10  11
ATOM     11  C   UNL d   1      59.020  -2.275  29.537  0.00  0.00     0.019 C 
BRANCH  11  12
ATOM     12  C   UNL d   1      58.971  -3.014  29.180  0.00  0.00     0.002 A 
ATOM     13  C   UNL d   1      58.268  -3.246  28.813  0.00  0.00     0.000 A 
ATOM     14  C   UNL d   1      58.221  -3.988  28.455  0.00  0.00     0.000 A 
ATOM     15  C   UNL d   1      58.870  -4.489  28.465  0.00  0.00     0.000 A 
ATOM     16  C   UNL d   1      59.570  -4.252  28.832  0.00  0.00     0.000 A 
ATOM     17  C   UNL d   1      59.616  -3.518  29.187  0.00  0.00     0.000 A 
ENDBRANCH  11  12
ENDBRANCH  10  11
ENDBRANCH   1  10
BRANCH   3  18
ATOM     18  C   UNL d   1      57.765  -0.851  30.640  0.00  0.00     0.037 C 
BRANCH  18  19
ATOM     19  C   UNL d   1      57.352  -0.336  31.139  0.00  0.00     0.003 C 
ATOM     20  C   UNL d   1      56.823  -0.639  31.684  0.00  0.00     0.000 C 
ENDBRANCH  18  19
ENDBRANCH   3  18
TORSDOF 5
ENDMDL
MODEL 4
REMARK VINA RESULT:      -1.8      0.758      3.814
REMARK  5 active torsions:
REMARK  status: ('A' for Active; 'I' for Inactive)
REMARK    1  A    between atoms: C_6  and  N_1 
REMARK    2  A    between atoms: C_8  and  C_3 
REMARK    3  A    between atoms: C_7  and  C_6 
REMARK    4  A    between atoms: C_9  and  C_7 
REMARK    5  A    between atoms: C_14  and  C_8 
ROOT
ATOM      1  N   UNL d   1      58.506  -0.822  30.261  0.00  0.00    -0.289 N 
ATOM      2  N   UNL d   1      58.340   0.510  30.238  0.00  0.00    -0.227 NA
ATOM      3  C   UNL d   1      58.799  -0.116  29.943  0.00  0.00     0.148 A 
ATOM      4  C   UNL d   1      57.866  -0.634  30.752  0.00  0.00     0.083 A 
ATOM      5  C   UNL d   1      57.762   0.184  30.739  0.00  0.00     0.099 A 
ATOM      6  C   UNL d   1      57.358  -1.101  31.214  0.00  0.00     0.019 A 
ATOM      7  C   UNL d   1      57.161   0.536  31.179  0.00  0.00     0.021 A 
ATOM      8  C   UNL d   1      56.759  -0.748  31.652  0.00  0.00     0.002 A 
ATOM      9  C   UNL d   1      56.661   0.071  31.635  0.00  0.00     0.002 A 
ENDROOT
BRANCH   1  10
ATOM     10  C   UNL d   1      58.796  -1.572  30.117  0.00  0.00     0.082 C 
BRANCH  10  11
ATOM     11  C   UNL d   1      58.682  -1.744  29.315  0.00  0.00     0.019 C 
BRANCH  11  12
ATOM     12  C   UNL d   1      58.854  -2.496  29.029  0.00  0.00     0.002 A 
ATOM     13  C   UNL d   1      59.637  -2.756  29.005  0.00  0.00     0.000 A 
ATOM     14  C   UNL d   1      59.807  -3.511  28.718  0.00  0.00     0.000 A 
ATOM     15  C   UNL d   1      59.200  -3.997  28.459  0.00  0.00     0.000 A 
ATOM     16  C   UNL d   1      58.419  -3.731  28.485  0.00  0.00     0.000 A 
ATOM     17  C   UNL d   1      58.251  -2.984  28.769  0.00  0.00     0.000 A 
ENDBRANCH  11  12
ENDBRANCH  10  11
ENDBRANCH   1  10
BRANCH   3  18
ATOM     18  C   UNL d   1      59.432  -0.043  29.427  0.00  0.00     0.037 C 
BRANCH  18  19
ATOM     19  C   UNL d   1      59.839   0.676  29.372  0.00  0.00     0.003 C 
ATOM     20  C   UNL d   1      60.631   0.679  29.172  0.00  0.00     0.000 C 
ENDBRANCH  18  19
ENDBRANCH   3  18
TORSDOF 5
ENDMDL
MODEL 5
REMARK VINA RESULT:      -1.2      1.795      2.196
REMARK  5 active torsions:
REMARK  status: ('A' for Active; 'I' for Inactive)
REMARK    1  A    between atoms: C_6  and  N_1 
REMARK    2  A    between atoms: C_8  and  C_3 
REMARK    3  A    between atoms: C_7  and  C_6 
REMARK    4  A    between atoms: C_9  and  C_7 
REMARK    5  A    between atoms: C_14  and  C_8 
ROOT
ATOM      1  N   UNL d   1      58.644   0.661  30.915  0.00  0.00    -0.289 N 
ATOM      2  N   UNL d   1      59.425   0.663  29.822  0.00  0.00    -0.227 NA
ATOM      3  C   UNL d   1      58.637   0.669  30.087  0.00  0.00     0.148 A 
ATOM      4  C   UNL d   1      59.435   0.651  31.163  0.00  0.00     0.083 A 
ATOM      5  C   UNL d   1      59.916   0.652  30.492  0.00  0.00     0.099 A 
ATOM      6  C   UNL d   1      59.786   0.641  31.916  0.00  0.00     0.019 A 
ATOM      7  C   UNL d   1      60.737   0.644  30.567  0.00  0.00     0.021 A 
ATOM      8  C   UNL d   1      60.604   0.632  31.987  0.00  0.00     0.002 A 
ATOM      9  C   UNL d   1      61.080   0.633  31.313  0.00  0.00     0.002 A 
ENDROOT
BRANCH   1  10
ATOM     10  C   UNL d   1      57.989   0.663  31.402  0.00  0.00     0.082 C 
BRANCH  10  11
ATOM     11  C   UNL d   1      57.741  -0.120  31.506  0.00  0.00     0.019 C 
BRANCH  11  12
ATOM     12  C   UNL d   1      57.151  -0.294  32.052  0.00  0.00     0.002 A 
ATOM     13  C   UNL d   1      56.729  -1.001  31.988  0.00  0.00     0.000 A 
ATOM     14  C   UNL d   1      56.137  -1.174  32.536  0.00  0.00     0.000 A 
ATOM     15  C   UNL d   1      55.971  -0.644  33.140  0.00  0.00     0.000 A 
ATOM     16  C   UNL d   1      56.396   0.062  33.198  0.00  0.00     0.000 A 
ATOM     17  C   UNL d   1      56.982   0.232  32.655  0.00  0.00     0.000 A 
ENDBRANCH  11  12
ENDBRANCH  10  11
ENDBRANCH   1  10
BRANCH   3  18
ATOM     18  C   UNL d   1      57.971   0.680  29.608  0.00  0.00     0.037 C 
BRANCH  18  19
ATOM     19  C   UNL d   1      57.986   0.299  28.873  0.00  0.00     0.003 C 
ATOM     20  C   UNL d   1      57.290   0.194  28.458  0.00  0.00     0.000 C 
ENDBRANCH  18  19
ENDBRANCH   3  18
TORSDOF 5
ENDMDL
