MODEL 1
REMARK VINA RESULT:       0.5      0.000      0.000
REMARK  5 active torsions:
REMARK  status: ('A' for Active; 'I' for Inactive)
REMARK    1  A    between atoms: C_6  and  C_1 
REMARK    2  A    between atoms: C_11  and  N_3 
REMARK    3  A    between atoms: C_20  and  C_11 
REMARK    4  A    between atoms: C_13  and  O_19 
REMARK    5  A    between atoms: O_19  and  C_20 
ROOT
ATOM      1  C   UNL d   1     -41.449-121.597 -52.563  0.00  0.00     0.171 A 
ATOM      2  N   UNL d   1     -41.442-121.475 -53.381  0.00  0.00    -0.225 NA
ATOM      3  N   UNL d   1     -41.507-122.415 -52.424  0.00  0.00    -0.286 N 
ATOM      4  C   UNL d   1     -41.535-122.798 -53.157  0.00  0.00     0.083 A 
ATOM      5  C   UNL d   1     -41.495-122.218 -53.749  0.00  0.00     0.099 A 
ATOM      6  C   UNL d   1     -41.593-123.602 -53.375  0.00  0.00     0.019 A 
ATOM      7  C   UNL d   1     -41.513-122.439 -54.551  0.00  0.00     0.021 A 
ATOM      8  C   UNL d   1     -41.610-123.817 -54.170  0.00  0.00     0.002 A 
ATOM      9  C   UNL d   1     -41.570-123.234 -54.760  0.00  0.00     0.002 A 
ENDROOT
BRANCH   3  10
ATOM     10  C   UNL d   1     -41.520-122.624 -51.626  0.00  0.00     0.108 C 
BRANCH  10  11
ATOM     11  C   UNL d   1     -41.534-123.419 -51.411  0.00  0.00     0.142 C 
BRANCH  11  12
ATOM     12  O   UNL d   1     -42.134-123.701 -50.920  0.00  0.00    -0.304 OA
BRANCH  12  13
ATOM     13  C   UNL d   1     -42.019-123.730 -50.105  0.00  0.00     0.100 A 
ATOM     14  C   UNL d   1     -41.250-123.774 -49.808  0.00  0.00     0.026 A 
ATOM     15  C   UNL d   1     -41.129-123.803 -48.992  0.00  0.00     0.013 A 
ATOM     16  C   UNL d   1     -41.781-123.788 -48.479  0.00  0.00     0.058 A 
ATOM     17  C   UNL d   1     -42.545-123.745 -48.783  0.00  0.00     0.013 A 
ATOM     18 CL   UNL d   1     -41.661-123.817 -47.665  0.00  0.00    -0.082 Cl
ATOM     19  C   UNL d   1     -42.661-123.715 -49.599  0.00  0.00     0.026 A 
ENDBRANCH  12  13
ENDBRANCH  11  12
ENDBRANCH  10  11
ENDBRANCH   3  10
BRANCH   1  20
ATOM     20  C   UNL d   1     -41.406-121.009 -51.985  0.00  0.00     0.134 A 
ATOM     21  O   UNL d   1     -41.516-120.984 -51.274  0.00  0.00    -0.302 OA
ATOM     22  C   UNL d   1     -41.430-120.367 -50.916  0.00  0.00     0.123 A 
ATOM     23  C   UNL d   1     -41.232-119.766 -51.269  0.00  0.00     0.029 A 
ATOM     24  C   UNL d   1     -41.123-119.795 -51.978  0.00  0.00     0.030 A 
ENDBRANCH   1  20
TORSDOF 5
ENDMDL
MODEL 2
REMARK VINA RESULT:       0.7      0.867      2.665
REMARK  5 active torsions:
REMARK  status: ('A' for Active; 'I' for Inactive)
REMARK    1  A    between atoms: C_6  and  C_1 
REMARK    2  A    between atoms: C_11  and  N_3 
REMARK    3  A    between atoms: C_20  and  C_11 
REMARK    4  A    between atoms: C_13  and  O_19 
REMARK    5  A    between atoms: O_19  and  C_20 
ROOT
ATOM      1  C   UNL d   1     -41.530-122.093 -53.201  0.00  0.00     0.171 A 
ATOM      2  N   UNL d   1     -41.648-121.292 -53.373  0.00  0.00    -0.225 NA
ATOM      3  N   UNL d   1     -41.314-122.157 -52.400  0.00  0.00    -0.286 N 
ATOM      4  C   UNL d   1     -41.299-121.395 -52.078  0.00  0.00     0.083 A 
ATOM      5  C   UNL d   1     -41.505-120.860 -52.678  0.00  0.00     0.099 A 
ATOM      6  C   UNL d   1     -41.124-121.105 -51.314  0.00  0.00     0.019 A 
ATOM      7  C   UNL d   1     -41.536-120.044 -52.516  0.00  0.00     0.021 A 
ATOM      8  C   UNL d   1     -41.157-120.297 -51.158  0.00  0.00     0.002 A 
ATOM      9  C   UNL d   1     -41.363-119.765 -51.761  0.00  0.00     0.002 A 
ENDROOT
BRANCH   3  10
ATOM     10  C   UNL d   1     -41.178-122.929 -52.145  0.00  0.00     0.108 C 
BRANCH  10  11
ATOM     11  C   UNL d   1     -41.213-123.109 -51.342  0.00  0.00     0.142 C 
BRANCH  11  12
ATOM     12  O   UNL d   1     -41.789-123.628 -51.062  0.00  0.00    -0.304 OA
BRANCH  12  13
ATOM     13  C   UNL d   1     -41.941-123.675 -50.254  0.00  0.00     0.100 A 
ATOM     14  C   UNL d   1     -42.721-123.753 -49.994  0.00  0.00     0.026 A 
ATOM     15  C   UNL d   1     -42.879-123.801 -49.185  0.00  0.00     0.013 A 
ATOM     16  C   UNL d   1     -42.252-123.770 -48.641  0.00  0.00     0.058 A 
ATOM     17  C   UNL d   1     -41.477-123.692 -48.909  0.00  0.00     0.013 A 
ATOM     18 CL   UNL d   1     -42.408-123.817 -47.835  0.00  0.00    -0.082 Cl
ATOM     19  C   UNL d   1     -41.324-123.645 -49.718  0.00  0.00     0.026 A 
ENDBRANCH  12  13
ENDBRANCH  11  12
ENDBRANCH  10  11
ENDBRANCH   3  10
BRANCH   1  20
ATOM     20  C   UNL d   1     -41.613-122.720 -53.731  0.00  0.00     0.134 A 
ATOM     21  O   UNL d   1     -41.159-123.143 -54.096  0.00  0.00    -0.302 OA
ATOM     22  C   UNL d   1     -41.412-123.658 -54.529  0.00  0.00     0.123 A 
ATOM     23  C   UNL d   1     -42.126-123.754 -54.600  0.00  0.00     0.029 A 
ATOM     24  C   UNL d   1     -42.576-123.331 -54.236  0.00  0.00     0.030 A 
ENDBRANCH   1  20
TORSDOF 5
ENDMDL
MODEL 3
REMARK VINA RESULT:       0.8      2.193      4.501
REMARK  5 active torsions:
REMARK  status: ('A' for Active; 'I' for Inactive)
REMARK    1  A    between atoms: C_6  and  C_1 
REMARK    2  A    between atoms: C_11  and  N_3 
REMARK    3  A    between atoms: C_20  and  C_11 
REMARK    4  A    between atoms: C_13  and  O_19 
REMARK    5  A    between atoms: O_19  and  C_20 
ROOT
ATOM      1  C   UNL d   1     -42.970-122.811 -49.339  0.00  0.00     0.171 A 
ATOM      2  N   UNL d   1     -43.068-122.625 -48.539  0.00  0.00    -0.225 NA
ATOM      3  N   UNL d   1     -42.292-123.287 -49.412  0.00  0.00    -0.286 N 
ATOM      4  C   UNL d   1     -41.972-123.395 -48.657  0.00  0.00     0.083 A 
ATOM      5  C   UNL d   1     -42.451-122.986 -48.116  0.00  0.00     0.099 A 
ATOM      6  C   UNL d   1     -41.304-123.812 -48.378  0.00  0.00     0.019 A 
ATOM      7  C   UNL d   1     -42.264-122.993 -47.306  0.00  0.00     0.021 A 
ATOM      8  C   UNL d   1     -41.123-123.817 -47.574  0.00  0.00     0.002 A 
ATOM      9  C   UNL d   1     -41.604-123.407 -47.037  0.00  0.00     0.002 A 
ENDROOT
BRANCH   3  10
ATOM     10  C   UNL d   1     -42.122-123.519 -50.185  0.00  0.00     0.108 C 
BRANCH  10  11
ATOM     11  C   UNL d   1     -41.495-123.170 -50.590  0.00  0.00     0.142 C 
BRANCH  11  12
ATOM     12  O   UNL d   1     -41.128-123.574 -51.208  0.00  0.00    -0.304 OA
BRANCH  12  13
ATOM     13  C   UNL d   1     -41.164-123.272 -51.974  0.00  0.00     0.100 A 
ATOM     14  C   UNL d   1     -41.242-123.793 -52.610  0.00  0.00     0.026 A 
ATOM     15  C   UNL d   1     -41.279-123.496 -53.379  0.00  0.00     0.013 A 
ATOM     16  C   UNL d   1     -41.237-122.677 -53.506  0.00  0.00     0.058 A 
ATOM     17  C   UNL d   1     -41.159-122.163 -52.866  0.00  0.00     0.013 A 
ATOM     18 CL   UNL d   1     -41.273-122.379 -54.272  0.00  0.00    -0.082 Cl
ATOM     19  C   UNL d   1     -41.123-122.465 -52.099  0.00  0.00     0.026 A 
ENDBRANCH  12  13
ENDBRANCH  11  12
ENDBRANCH  10  11
ENDBRANCH   3  10
BRANCH   1  20
ATOM     20  C   UNL d   1     -43.459-122.567 -49.958  0.00  0.00     0.134 A 
ATOM     21  O   UNL d   1     -44.022-122.851 -50.306  0.00  0.00    -0.302 OA
ATOM     22  C   UNL d   1     -44.338-122.488 -50.838  0.00  0.00     0.123 A 
ATOM     23  C   UNL d   1     -44.094-121.833 -51.028  0.00  0.00     0.029 A 
ATOM     24  C   UNL d   1     -43.534-121.552 -50.679  0.00  0.00     0.030 A 
ENDBRANCH   1  20
TORSDOF 5
ENDMDL
MODEL 4
REMARK VINA RESULT:       2.5      2.078      4.077
REMARK  5 active torsions:
REMARK  status: ('A' for Active; 'I' for Inactive)
REMARK    1  A    between atoms: C_6  and  C_1 
REMARK    2  A    between atoms: C_11  and  N_3 
REMARK    3  A    between atoms: C_20  and  C_11 
REMARK    4  A    between atoms: C_13  and  O_19 
REMARK    5  A    between atoms: O_19  and  C_20 
ROOT
ATOM      1  C   UNL d   1     -41.195-121.148 -50.991  0.00  0.00     0.171 A 
ATOM      2  N   UNL d   1     -41.245-121.343 -50.189  0.00  0.00    -0.225 NA
ATOM      3  N   UNL d   1     -41.175-121.855 -51.428  0.00  0.00    -0.286 N 
ATOM      4  C   UNL d   1     -41.213-122.487 -50.895  0.00  0.00     0.083 A 
ATOM      5  C   UNL d   1     -41.256-122.171 -50.129  0.00  0.00     0.099 A 
ATOM      6  C   UNL d   1     -41.214-123.316 -50.998  0.00  0.00     0.019 A 
ATOM      7  C   UNL d   1     -41.300-122.679 -49.471  0.00  0.00     0.021 A 
ATOM      8  C   UNL d   1     -41.258-123.815 -50.343  0.00  0.00     0.002 A 
ATOM      9  C   UNL d   1     -41.301-123.496 -49.579  0.00  0.00     0.002 A 
ENDROOT
BRANCH   3  10
ATOM     10  C   UNL d   1     -41.124-121.748 -52.245  0.00  0.00     0.108 C 
BRANCH  10  11
ATOM     11  C   UNL d   1     -41.444-122.313 -52.753  0.00  0.00     0.142 C 
BRANCH  11  12
ATOM     12  O   UNL d   1     -41.211-122.332 -53.544  0.00  0.00    -0.304 OA
BRANCH  12  13
ATOM     13  C   UNL d   1     -41.776-122.425 -54.136  0.00  0.00     0.100 A 
ATOM     14  C   UNL d   1     -42.043-121.761 -54.547  0.00  0.00     0.026 A 
ATOM     15  C   UNL d   1     -42.609-121.850 -55.141  0.00  0.00     0.013 A 
ATOM     16  C   UNL d   1     -42.905-122.605 -55.319  0.00  0.00     0.058 A 
ATOM     17  C   UNL d   1     -42.634-123.262 -54.903  0.00  0.00     0.013 A 
ATOM     18 CL   UNL d   1     -43.470-122.694 -55.910  0.00  0.00    -0.082 Cl
ATOM     19  C   UNL d   1     -42.068-123.169 -54.310  0.00  0.00     0.026 A 
ENDBRANCH  12  13
ENDBRANCH  11  12
ENDBRANCH  10  11
ENDBRANCH   3  10
BRANCH   1  20
ATOM     20  C   UNL d   1     -41.169-120.384 -51.304  0.00  0.00     0.134 A 
ATOM     21  O   UNL d   1     -41.156-120.104 -51.967  0.00  0.00    -0.302 OA
ATOM     22  C   UNL d   1     -41.133-119.392 -52.059  0.00  0.00     0.123 A 
ATOM     23  C   UNL d   1     -41.123-118.951 -51.484  0.00  0.00     0.029 A 
ATOM     24  C   UNL d   1     -41.136-119.233 -50.825  0.00  0.00     0.030 A 
ENDBRANCH   1  20
TORSDOF 5
ENDMDL
