MODEL 1
REMARK VINA RESULT:      -2.9      0.000      0.000
REMARK  1 active torsions:
REMARK  status: ('A' for Active; 'I' for Inactive)
REMARK    1  A    between atoms: C_2  and  C_1 
ROOT
ATOM      1  C   UNL d   1      32.445  22.261 -20.595  0.00  0.00     0.104 A 
ATOM      2  C   UNL d   1      32.139  22.983 -20.895  0.00  0.00     0.202 A 
ATOM      3  C   UNL d   1      32.816  22.262 -19.829  0.00  0.00     0.021 A 
ATOM      4  C   UNL d   1      32.205  23.669 -20.443  0.00  0.00     0.043 A 
ATOM      5  C   UNL d   1      32.862  22.970 -19.410  0.00  0.00     0.058 A 
ATOM      6  C   UNL d   1      32.560  23.675 -19.710  0.00  0.00     0.015 A 
ATOM      7  O   UNL d   1      31.768  22.991 -21.654  0.00  0.00    -0.286 OA
ATOM      8 CL   UNL d   1      33.232  22.961 -18.652  0.00  0.00    -0.082 Cl
ENDROOT
BRANCH   1   9
ATOM      9  C   UNL d   1      32.385  21.565 -21.035  0.00  0.00     0.214 C 
ATOM     10  O   UNL d   1      31.720  21.064 -20.973  0.00  0.00    -0.644 OA
ATOM     11  O   UNL d   1      32.993  21.328 -21.568  0.00  0.00    -0.644 OA
ENDBRANCH   1   9
TORSDOF 1
ENDMDL
MODEL 2
REMARK VINA RESULT:      -2.7      1.673      2.152
REMARK  1 active torsions:
REMARK  status: ('A' for Active; 'I' for Inactive)
REMARK    1  A    between atoms: C_2  and  C_1 
ROOT
ATOM      1  C   UNL d   1      32.412  22.744 -21.079  0.00  0.00     0.104 A 
ATOM      2  C   UNL d   1      32.847  22.904 -20.379  0.00  0.00     0.202 A 
ATOM      3  C   UNL d   1      32.356  21.939 -21.350  0.00  0.00     0.021 A 
ATOM      4  C   UNL d   1      33.208  22.282 -19.975  0.00  0.00     0.043 A 
ATOM      5  C   UNL d   1      32.732  21.346 -20.917  0.00  0.00     0.058 A 
ATOM      6  C   UNL d   1      33.158  21.510 -20.231  0.00  0.00     0.015 A 
ATOM      7  O   UNL d   1      32.908  23.699 -20.102  0.00  0.00    -0.286 OA
ATOM      8 CL   UNL d   1      32.671  20.552 -21.193  0.00  0.00    -0.082 Cl
ENDROOT
BRANCH   1   9
ATOM      9  C   UNL d   1      32.046  23.356 -21.494  0.00  0.00     0.214 C 
ATOM     10  O   UNL d   1      31.305  23.661 -21.259  0.00  0.00    -0.644 OA
ATOM     11  O   UNL d   1      32.402  23.702 -22.174  0.00  0.00    -0.644 OA
ENDBRANCH   1   9
TORSDOF 1
ENDMDL
MODEL 3
REMARK VINA RESULT:      -2.4      7.635      7.998
REMARK  1 active torsions:
REMARK  status: ('A' for Active; 'I' for Inactive)
REMARK    1  A    between atoms: C_2  and  C_1 
ROOT
ATOM      1  C   UNL d   1      29.219  16.187 -23.707  0.00  0.00     0.104 A 
ATOM      2  C   UNL d   1      29.707  15.827 -23.127  0.00  0.00     0.202 A 
ATOM      3  C   UNL d   1      29.588  16.562 -24.376  0.00  0.00     0.021 A 
ATOM      4  C   UNL d   1      30.526  15.844 -23.219  0.00  0.00     0.043 A 
ATOM      5  C   UNL d   1      30.411  16.557 -24.431  0.00  0.00     0.058 A 
ATOM      6  C   UNL d   1      30.885  16.202 -23.858  0.00  0.00     0.015 A 
ATOM      7  O   UNL d   1      29.349  15.453 -22.460  0.00  0.00    -0.286 OA
ATOM      8 CL   UNL d   1      30.768  16.931 -25.097  0.00  0.00    -0.082 Cl
ENDROOT
BRANCH   1   9
ATOM      9  C   UNL d   1      28.397  16.177 -23.628  0.00  0.00     0.214 C 
ATOM     10  O   UNL d   1      27.986  16.803 -23.259  0.00  0.00    -0.644 OA
ATOM     11  O   UNL d   1      27.934  15.536 -23.917  0.00  0.00    -0.644 OA
ENDBRANCH   1   9
TORSDOF 1
ENDMDL
MODEL 4
REMARK VINA RESULT:      -2.4      7.275      7.821
REMARK  1 active torsions:
REMARK  status: ('A' for Active; 'I' for Inactive)
REMARK    1  A    between atoms: C_2  and  C_1 
ROOT
ATOM      1  C   UNL d   1      30.187  16.368 -23.899  0.00  0.00     0.104 A 
ATOM      2  C   UNL d   1      30.440  15.822 -23.314  0.00  0.00     0.202 A 
ATOM      3  C   UNL d   1      29.353  16.524 -23.980  0.00  0.00     0.021 A 
ATOM      4  C   UNL d   1      29.879  15.453 -22.835  0.00  0.00     0.043 A 
ATOM      5  C   UNL d   1      28.826  16.133 -23.481  0.00  0.00     0.058 A 
ATOM      6  C   UNL d   1      29.081  15.599 -22.908  0.00  0.00     0.015 A 
ATOM      7  O   UNL d   1      31.264  15.662 -23.227  0.00  0.00    -0.286 OA
ATOM      8 CL   UNL d   1      28.003  16.294 -23.568  0.00  0.00    -0.082 Cl
ENDROOT
BRANCH   1   9
ATOM      9  C   UNL d   1      30.736  16.746 -24.386  0.00  0.00     0.214 C 
ATOM     10  O   UNL d   1      31.002  16.398 -25.097  0.00  0.00    -0.644 OA
ATOM     11  O   UNL d   1      31.055  17.500 -24.189  0.00  0.00    -0.644 OA
ENDBRANCH   1   9
TORSDOF 1
ENDMDL
MODEL 5
REMARK VINA RESULT:      -0.3      1.972      2.715
REMARK  1 active torsions:
REMARK  status: ('A' for Active; 'I' for Inactive)
REMARK    1  A    between atoms: C_2  and  C_1 
ROOT
ATOM      1  C   UNL d   1      32.730  21.564 -21.314  0.00  0.00     0.104 A 
ATOM      2  C   UNL d   1      32.995  21.974 -21.996  0.00  0.00     0.202 A 
ATOM      3  C   UNL d   1      32.725  20.712 -21.324  0.00  0.00     0.021 A 
ATOM      4  C   UNL d   1      33.241  21.545 -22.656  0.00  0.00     0.043 A 
ATOM      5  C   UNL d   1      32.979  20.322 -22.005  0.00  0.00     0.058 A 
ATOM      6  C   UNL d   1      33.238  20.730 -22.672  0.00  0.00     0.015 A 
ATOM      7  O   UNL d   1      33.004  22.818 -21.995  0.00  0.00    -0.286 OA
ATOM      8 CL   UNL d   1      32.970  19.479 -22.006  0.00  0.00    -0.082 Cl
ENDROOT
BRANCH   1   9
ATOM      9  C   UNL d   1      32.481  21.980 -20.645  0.00  0.00     0.214 C 
ATOM     10  O   UNL d   1      31.711  22.299 -20.592  0.00  0.00    -0.644 OA
ATOM     11  O   UNL d   1      32.990  22.101 -19.986  0.00  0.00    -0.644 OA
ENDBRANCH   1   9
TORSDOF 1
ENDMDL
