MODEL 1
REMARK VINA RESULT:      -3.3      0.000      0.000
REMARK  4 active torsions:
REMARK  status: ('A' for Active; 'I' for Inactive)
REMARK    1  A    between atoms: C_3  and  C_1 
REMARK    2  A    between atoms: C_5  and  C_1 
REMARK    3  A    between atoms: C_2  and  C_3 
REMARK       I    between atoms: N_4  and  C_2 
REMARK    4  A    between atoms: C_6  and  N_4 
ROOT
ATOM      1  C   UNL d   1      32.999  19.210 -22.631  0.00  0.00     0.279 C 
ATOM      2  N   UNL d   1      32.687  18.891 -23.329  0.00  0.00    -0.208 NA
ATOM      3  O   UNL d   1      33.231  18.696 -22.029  0.00  0.00    -0.265 OA
ENDROOT
BRANCH   1   4
ATOM      4  C   UNL d   1      33.086  20.026 -22.514  0.00  0.00     0.063 C 
BRANCH   4   5
ATOM      5  C   UNL d   1      32.845  20.381 -21.835  0.00  0.00     0.006 C 
BRANCH   5   6
ATOM      6  C   UNL d   1      32.812  21.212 -21.763  0.00  0.00     0.011 A 
ATOM      7  C   UNL d   1      32.396  21.587 -21.160  0.00  0.00     0.058 A 
ATOM      8 CL   UNL d   1      31.993  21.131 -20.603  0.00  0.00    -0.082 Cl
ATOM      9  C   UNL d   1      32.372  22.393 -21.101  0.00  0.00     0.011 A 
ATOM     10  C   UNL d   1      32.780  22.863 -21.667  0.00  0.00     0.001 A 
ATOM     11  C   UNL d   1      33.203  22.513 -22.277  0.00  0.00     0.000 A 
ATOM     12  C   UNL d   1      33.221  21.681 -22.329  0.00  0.00     0.001 A 
ENDBRANCH   5   6
ENDBRANCH   4   5
ENDBRANCH   1   4
BRANCH   2  13
ATOM     13  C   UNL d   1      32.600  18.076 -23.445  0.00  0.00     0.088 A 
ATOM     14  C   UNL d   1      31.841  17.767 -23.543  0.00  0.00     0.061 A 
ATOM     15  C   UNL d   1      31.723  16.980 -23.657  0.00  0.00     0.197 A 
ATOM     16  O   UNL d   1      30.966  16.672 -23.754  0.00  0.00    -0.286 OA
ATOM     17  C   UNL d   1      32.386  16.469 -23.676  0.00  0.00     0.042 A 
ATOM     18  C   UNL d   1      33.145  16.778 -23.578  0.00  0.00     0.005 A 
ATOM     19  C   UNL d   1      33.232  17.593 -23.463  0.00  0.00     0.019 A 
ENDBRANCH   2  13
TORSDOF 4
ENDMDL
MODEL 2
REMARK VINA RESULT:      -3.3      1.976      4.779
REMARK  4 active torsions:
REMARK  status: ('A' for Active; 'I' for Inactive)
REMARK    1  A    between atoms: C_3  and  C_1 
REMARK    2  A    between atoms: C_5  and  C_1 
REMARK    3  A    between atoms: C_2  and  C_3 
REMARK       I    between atoms: N_4  and  C_2 
REMARK    4  A    between atoms: C_6  and  N_4 
ROOT
ATOM      1  C   UNL d   1      32.874  20.559 -21.895  0.00  0.00     0.279 C 
ATOM      2  N   UNL d   1      32.543  20.757 -21.162  0.00  0.00    -0.208 NA
ATOM      3  O   UNL d   1      33.241  21.151 -22.339  0.00  0.00    -0.265 OA
ENDROOT
BRANCH   1   4
ATOM      4  C   UNL d   1      32.852  19.788 -22.200  0.00  0.00     0.063 C 
BRANCH   4   5
ATOM      5  C   UNL d   1      32.932  19.646 -22.987  0.00  0.00     0.006 C 
BRANCH   5   6
ATOM      6  C   UNL d   1      32.871  18.876 -23.301  0.00  0.00     0.011 A 
ATOM      7  C   UNL d   1      32.887  18.726 -24.110  0.00  0.00     0.058 A 
ATOM      8 CL   UNL d   1      32.965  19.356 -24.637  0.00  0.00    -0.082 Cl
ATOM      9  C   UNL d   1      32.827  17.974 -24.402  0.00  0.00     0.011 A 
ATOM     10  C   UNL d   1      32.747  17.328 -23.870  0.00  0.00     0.001 A 
ATOM     11  C   UNL d   1      32.728  17.451 -23.059  0.00  0.00     0.000 A 
ATOM     12  C   UNL d   1      32.791  18.229 -22.768  0.00  0.00     0.001 A 
ENDBRANCH   5   6
ENDBRANCH   4   5
ENDBRANCH   1   4
BRANCH   2  13
ATOM     13  C   UNL d   1      32.565  21.527 -20.858  0.00  0.00     0.088 A 
ATOM     14  C   UNL d   1      31.978  22.061 -21.085  0.00  0.00     0.061 A 
ATOM     15  C   UNL d   1      31.972  22.816 -20.807  0.00  0.00     0.197 A 
ATOM     16  O   UNL d   1      31.388  23.349 -21.032  0.00  0.00    -0.286 OA
ATOM     17  C   UNL d   1      32.575  23.058 -20.279  0.00  0.00     0.042 A 
ATOM     18  C   UNL d   1      33.162  22.524 -20.053  0.00  0.00     0.005 A 
ATOM     19  C   UNL d   1      33.139  21.754 -20.357  0.00  0.00     0.019 A 
ENDBRANCH   2  13
TORSDOF 4
ENDMDL
MODEL 3
REMARK VINA RESULT:      -3.2      1.650      4.702
REMARK  4 active torsions:
REMARK  status: ('A' for Active; 'I' for Inactive)
REMARK    1  A    between atoms: C_3  and  C_1 
REMARK    2  A    between atoms: C_5  and  C_1 
REMARK    3  A    between atoms: C_2  and  C_3 
REMARK       I    between atoms: N_4  and  C_2 
REMARK    4  A    between atoms: C_6  and  N_4 
ROOT
ATOM      1  C   UNL d   1      32.930  19.561 -22.632  0.00  0.00     0.279 C 
ATOM      2  N   UNL d   1      32.883  19.865 -21.862  0.00  0.00    -0.208 NA
ATOM      3  O   UNL d   1      32.897  20.085 -23.268  0.00  0.00    -0.265 OA
ENDROOT
BRANCH   1   4
ATOM      4  C   UNL d   1      33.009  18.750 -22.786  0.00  0.00     0.063 C 
BRANCH   4   5
ATOM      5  C   UNL d   1      32.509  18.368 -23.285  0.00  0.00     0.006 C 
BRANCH   5   6
ATOM      6  C   UNL d   1      32.534  17.540 -23.381  0.00  0.00     0.011 A 
ATOM      7  C   UNL d   1      31.940  17.122 -23.768  0.00  0.00     0.058 A 
ATOM      8 CL   UNL d   1      31.292  17.530 -24.076  0.00  0.00    -0.082 Cl
ATOM      9  C   UNL d   1      31.976  16.318 -23.854  0.00  0.00     0.011 A 
ATOM     10  C   UNL d   1      32.634  15.897 -23.542  0.00  0.00     0.001 A 
ATOM     11  C   UNL d   1      33.238  16.291 -23.152  0.00  0.00     0.000 A 
ATOM     12  C   UNL d   1      33.192  17.119 -23.069  0.00  0.00     0.001 A 
ENDBRANCH   5   6
ENDBRANCH   4   5
ENDBRANCH   1   4
BRANCH   2  13
ATOM     13  C   UNL d   1      32.805  20.675 -21.708  0.00  0.00     0.088 A 
ATOM     14  C   UNL d   1      32.264  20.920 -21.136  0.00  0.00     0.061 A 
ATOM     15  C   UNL d   1      32.164  21.700 -20.963  0.00  0.00     0.197 A 
ATOM     16  O   UNL d   1      31.625  21.944 -20.393  0.00  0.00    -0.286 OA
ATOM     17  C   UNL d   1      32.620  22.267 -21.376  0.00  0.00     0.042 A 
ATOM     18  C   UNL d   1      33.161  22.022 -21.948  0.00  0.00     0.005 A 
ATOM     19  C   UNL d   1      33.240  21.212 -22.102  0.00  0.00     0.019 A 
ENDBRANCH   2  13
TORSDOF 4
ENDMDL
MODEL 4
REMARK VINA RESULT:      -2.5      1.389      2.072
REMARK  4 active torsions:
REMARK  status: ('A' for Active; 'I' for Inactive)
REMARK    1  A    between atoms: C_3  and  C_1 
REMARK    2  A    between atoms: C_5  and  C_1 
REMARK    3  A    between atoms: C_2  and  C_3 
REMARK       I    between atoms: N_4  and  C_2 
REMARK    4  A    between atoms: C_6  and  N_4 
ROOT
ATOM      1  C   UNL d   1      33.085  20.645 -21.883  0.00  0.00     0.279 C 
ATOM      2  N   UNL d   1      33.022  19.820 -21.846  0.00  0.00    -0.208 NA
ATOM      3  O   UNL d   1      33.228  21.000 -22.615  0.00  0.00    -0.265 OA
ENDROOT
BRANCH   1   4
ATOM      4  C   UNL d   1      33.011  21.128 -21.213  0.00  0.00     0.063 C 
BRANCH   4   5
ATOM      5  C   UNL d   1      32.831  21.908 -21.277  0.00  0.00     0.006 C 
BRANCH   5   6
ATOM      6  C   UNL d   1      32.802  22.407 -20.608  0.00  0.00     0.011 A 
ATOM      7  C   UNL d   1      32.361  23.102 -20.595  0.00  0.00     0.058 A 
ATOM      8 CL   UNL d   1      31.929  23.321 -21.263  0.00  0.00    -0.082 Cl
ATOM      9  C   UNL d   1      32.340  23.577 -19.940  0.00  0.00     0.011 A 
ATOM     10  C   UNL d   1      32.778  23.358 -19.256  0.00  0.00     0.001 A 
ATOM     11  C   UNL d   1      33.225  22.671 -19.245  0.00  0.00     0.000 A 
ATOM     12  C   UNL d   1      33.239  22.189 -19.924  0.00  0.00     0.001 A 
ENDBRANCH   5   6
ENDBRANCH   4   5
ENDBRANCH   1   4
BRANCH   2  13
ATOM     13  C   UNL d   1      33.096  19.338 -22.515  0.00  0.00     0.088 A 
ATOM     14  C   UNL d   1      33.096  18.519 -22.417  0.00  0.00     0.061 A 
ATOM     15  C   UNL d   1      33.166  18.023 -23.047  0.00  0.00     0.197 A 
ATOM     16  O   UNL d   1      33.166  17.207 -22.949  0.00  0.00    -0.286 OA
ATOM     17  C   UNL d   1      33.241  18.351 -23.814  0.00  0.00     0.042 A 
ATOM     18  C   UNL d   1      33.241  19.170 -23.912  0.00  0.00     0.005 A 
ATOM     19  C   UNL d   1      33.167  19.653 -23.242  0.00  0.00     0.019 A 
ENDBRANCH   2  13
TORSDOF 4
ENDMDL
MODEL 5
REMARK VINA RESULT:      -1.8      3.865      5.731
REMARK  4 active torsions:
REMARK  status: ('A' for Active; 'I' for Inactive)
REMARK    1  A    between atoms: C_3  and  C_1 
REMARK    2  A    between atoms: C_5  and  C_1 
REMARK    3  A    between atoms: C_2  and  C_3 
REMARK       I    between atoms: N_4  and  C_2 
REMARK    4  A    between atoms: C_6  and  N_4 
ROOT
ATOM      1  C   UNL d   1      32.692  23.247 -19.875  0.00  0.00     0.279 C 
ATOM      2  N   UNL d   1      33.241  23.030 -19.293  0.00  0.00    -0.208 NA
ATOM      3  O   UNL d   1      31.939  23.487 -19.641  0.00  0.00    -0.265 OA
ENDROOT
BRANCH   1   4
ATOM      4  C   UNL d   1      32.873  23.231 -20.684  0.00  0.00     0.063 C 
BRANCH   4   5
ATOM      5  C   UNL d   1      32.590  22.654 -21.166  0.00  0.00     0.006 C 
BRANCH   5   6
ATOM      6  C   UNL d   1      32.788  22.624 -21.976  0.00  0.00     0.011 A 
ATOM      7  C   UNL d   1      32.980  21.920 -22.357  0.00  0.00     0.058 A 
ATOM      8 CL   UNL d   1      32.979  21.214 -21.930  0.00  0.00    -0.082 Cl
ATOM      9  C   UNL d   1      33.171  21.904 -23.143  0.00  0.00     0.011 A 
ATOM     10  C   UNL d   1      33.174  22.620 -23.584  0.00  0.00     0.001 A 
ATOM     11  C   UNL d   1      32.986  23.334 -23.227  0.00  0.00     0.000 A 
ATOM     12  C   UNL d   1      32.791  23.340 -22.416  0.00  0.00     0.001 A 
ENDBRANCH   5   6
ENDBRANCH   4   5
ENDBRANCH   1   4
BRANCH   2  13
ATOM     13  C   UNL d   1      33.060  23.046 -18.485  0.00  0.00     0.088 A 
ATOM     14  C   UNL d   1      33.231  22.381 -18.026  0.00  0.00     0.061 A 
ATOM     15  C   UNL d   1      33.068  22.365 -17.239  0.00  0.00     0.197 A 
ATOM     16  O   UNL d   1      33.237  21.703 -16.782  0.00  0.00    -0.286 OA
ATOM     17  C   UNL d   1      32.718  23.038 -16.884  0.00  0.00     0.042 A 
ATOM     18  C   UNL d   1      32.548  23.702 -17.342  0.00  0.00     0.005 A 
ATOM     19  C   UNL d   1      32.728  23.687 -18.150  0.00  0.00     0.019 A 
ENDBRANCH   2  13
TORSDOF 4
ENDMDL
MODEL 6
REMARK VINA RESULT:      -1.8      2.595      5.272
REMARK  4 active torsions:
REMARK  status: ('A' for Active; 'I' for Inactive)
REMARK    1  A    between atoms: C_3  and  C_1 
REMARK    2  A    between atoms: C_5  and  C_1 
REMARK    3  A    between atoms: C_2  and  C_3 
REMARK       I    between atoms: N_4  and  C_2 
REMARK    4  A    between atoms: C_6  and  N_4 
ROOT
ATOM      1  C   UNL d   1      31.055  17.500 -24.364  0.00  0.00     0.279 C 
ATOM      2  N   UNL d   1      31.842  17.456 -24.108  0.00  0.00    -0.208 NA
ATOM      3  O   UNL d   1      30.730  18.241 -24.522  0.00  0.00    -0.265 OA
ENDROOT
BRANCH   1   4
ATOM      4  C   UNL d   1      30.583  16.826 -24.469  0.00  0.00     0.063 C 
BRANCH   4   5
ATOM      5  C   UNL d   1      30.166  16.508 -23.860  0.00  0.00     0.006 C 
BRANCH   5   6
ATOM      6  C   UNL d   1      29.422  16.150 -23.979  0.00  0.00     0.011 A 
ATOM      7  C   UNL d   1      28.993  15.809 -23.365  0.00  0.00     0.058 A 
ATOM      8 CL   UNL d   1      29.303  15.817 -22.601  0.00  0.00    -0.082 Cl
ATOM      9  C   UNL d   1      28.272  15.464 -23.494  0.00  0.00     0.011 A 
ATOM     10  C   UNL d   1      27.951  15.453 -24.272  0.00  0.00     0.001 A 
ATOM     11  C   UNL d   1      28.360  15.785 -24.900  0.00  0.00     0.000 A 
ATOM     12  C   UNL d   1      29.101  16.138 -24.757  0.00  0.00     0.001 A 
ENDBRANCH   5   6
ENDBRANCH   4   5
ENDBRANCH   1   4
BRANCH   2  13
ATOM     13  C   UNL d   1      32.313  18.129 -24.004  0.00  0.00     0.088 A 
ATOM     14  C   UNL d   1      32.482  18.381 -23.236  0.00  0.00     0.061 A 
ATOM     15  C   UNL d   1      32.937  19.031 -23.102  0.00  0.00     0.197 A 
ATOM     16  O   UNL d   1      33.105  19.283 -22.337  0.00  0.00    -0.286 OA
ATOM     17  C   UNL d   1      33.241  19.455 -23.756  0.00  0.00     0.042 A 
ATOM     18  C   UNL d   1      33.072  19.203 -24.524  0.00  0.00     0.005 A 
ATOM     19  C   UNL d   1      32.601  18.530 -24.628  0.00  0.00     0.019 A 
ENDBRANCH   2  13
TORSDOF 4
ENDMDL
MODEL 7
REMARK VINA RESULT:      -0.7      2.544      5.292
REMARK  4 active torsions:
REMARK  status: ('A' for Active; 'I' for Inactive)
REMARK    1  A    between atoms: C_3  and  C_1 
REMARK    2  A    between atoms: C_5  and  C_1 
REMARK    3  A    between atoms: C_2  and  C_3 
REMARK       I    between atoms: N_4  and  C_2 
REMARK    4  A    between atoms: C_6  and  N_4 
ROOT
ATOM      1  C   UNL d   1      32.535  22.180 -20.984  0.00  0.00     0.279 C 
ATOM      2  N   UNL d   1      32.969  22.247 -20.282  0.00  0.00    -0.208 NA
ATOM      3  O   UNL d   1      31.823  22.590 -21.051  0.00  0.00    -0.265 OA
ENDROOT
BRANCH   1   4
ATOM      4  C   UNL d   1      32.790  21.716 -21.622  0.00  0.00     0.063 C 
BRANCH   4   5
ATOM      5  C   UNL d   1      32.871  20.920 -21.556  0.00  0.00     0.006 C 
BRANCH   5   6
ATOM      6  C   UNL d   1      32.996  20.435 -22.224  0.00  0.00     0.011 A 
ATOM      7  C   UNL d   1      33.098  19.620 -22.166  0.00  0.00     0.058 A 
ATOM      8 CL   UNL d   1      33.077  19.262 -21.423  0.00  0.00    -0.082 Cl
ATOM      9  C   UNL d   1      33.218  19.162 -22.821  0.00  0.00     0.011 A 
ATOM     10  C   UNL d   1      33.241  19.522 -23.581  0.00  0.00     0.001 A 
ATOM     11  C   UNL d   1      33.142  20.331 -23.665  0.00  0.00     0.000 A 
ATOM     12  C   UNL d   1      33.018  20.795 -22.984  0.00  0.00     0.001 A 
ENDBRANCH   5   6
ENDBRANCH   4   5
ENDBRANCH   1   4
BRANCH   2  13
ATOM     13  C   UNL d   1      32.714  22.710 -19.644  0.00  0.00     0.088 A 
ATOM     14  C   UNL d   1      33.090  22.624 -18.915  0.00  0.00     0.061 A 
ATOM     15  C   UNL d   1      32.866  23.059 -18.276  0.00  0.00     0.197 A 
ATOM     16  O   UNL d   1      33.241  22.974 -17.550  0.00  0.00    -0.286 OA
ATOM     17  C   UNL d   1      32.239  23.608 -18.360  0.00  0.00     0.042 A 
ATOM     18  C   UNL d   1      31.863  23.693 -19.090  0.00  0.00     0.005 A 
ATOM     19  C   UNL d   1      32.118  23.230 -19.727  0.00  0.00     0.019 A 
ENDBRANCH   2  13
TORSDOF 4
ENDMDL
MODEL 8
REMARK VINA RESULT:      -0.5      1.815      4.780
REMARK  4 active torsions:
REMARK  status: ('A' for Active; 'I' for Inactive)
REMARK    1  A    between atoms: C_3  and  C_1 
REMARK    2  A    between atoms: C_5  and  C_1 
REMARK    3  A    between atoms: C_2  and  C_3 
REMARK       I    between atoms: N_4  and  C_2 
REMARK    4  A    between atoms: C_6  and  N_4 
ROOT
ATOM      1  C   UNL d   1      33.039  19.581 -23.905  0.00  0.00     0.279 C 
ATOM      2  N   UNL d   1      33.220  20.005 -23.217  0.00  0.00    -0.208 NA
ATOM      3  O   UNL d   1      32.849  19.998 -24.590  0.00  0.00    -0.265 OA
ENDROOT
BRANCH   1   4
ATOM      4  C   UNL d   1      33.043  18.752 -23.931  0.00  0.00     0.063 C 
BRANCH   4   5
ATOM      5  C   UNL d   1      32.411  18.322 -23.684  0.00  0.00     0.006 C 
BRANCH   5   6
ATOM      6  C   UNL d   1      32.349  17.505 -23.841  0.00  0.00     0.011 A 
ATOM      7  C   UNL d   1      31.626  17.111 -23.853  0.00  0.00     0.058 A 
ATOM      8 CL   UNL d   1      30.932  17.533 -23.705  0.00  0.00    -0.082 Cl
ATOM      9  C   UNL d   1      31.579  16.318 -24.006  0.00  0.00     0.011 A 
ATOM     10  C   UNL d   1      32.283  15.883 -24.158  0.00  0.00     0.001 A 
ATOM     11  C   UNL d   1      33.015  16.253 -24.152  0.00  0.00     0.000 A 
ATOM     12  C   UNL d   1      33.052  17.070 -23.993  0.00  0.00     0.001 A 
ENDBRANCH   5   6
ENDBRANCH   4   5
ENDBRANCH   1   4
BRANCH   2  13
ATOM     13  C   UNL d   1      33.216  20.833 -23.191  0.00  0.00     0.088 A 
ATOM     14  C   UNL d   1      33.229  21.208 -22.457  0.00  0.00     0.061 A 
ATOM     15  C   UNL d   1      33.226  22.010 -22.398  0.00  0.00     0.197 A 
ATOM     16  O   UNL d   1      33.239  22.384 -21.666  0.00  0.00    -0.286 OA
ATOM     17  C   UNL d   1      33.210  22.467 -23.099  0.00  0.00     0.042 A 
ATOM     18  C   UNL d   1      33.197  22.092 -23.834  0.00  0.00     0.005 A 
ATOM     19  C   UNL d   1      33.201  21.264 -23.859  0.00  0.00     0.019 A 
ENDBRANCH   2  13
TORSDOF 4
ENDMDL
