MODEL 1
REMARK VINA RESULT:      -7.7      0.000      0.000
REMARK  5 active torsions:
REMARK  status: ('A' for Active; 'I' for Inactive)
REMARK    1  A    between atoms: C_5  and  N_1 
REMARK    2  A    between atoms: C_2  and  C_7 
REMARK    3  A    between atoms: C_9  and  C_2 
REMARK    4  A    between atoms: C_3  and  C_4 
REMARK    5  A    between atoms: C_7  and  C_8 
ROOT
ATOM      1  C   UNL d   1     -50.171  14.341  22.219  0.00  0.00     0.100 C 
ATOM      2  C   UNL d   1     -50.388  14.949  22.736  0.00  0.00     0.103 C 
ATOM      3  N   UNL d   1     -50.606  15.557  23.254  0.00  0.00    -0.191 NA
ENDROOT
BRANCH   1   4
ATOM      4  C   UNL d   1     -49.412  14.318  21.903  0.00  0.00     0.037 C 
BRANCH   4   5
ATOM      5  C   UNL d   1     -48.778  14.078  22.373  0.00  0.00     0.101 A 
ATOM      6  O   UNL d   1     -48.435  13.329  22.386  0.00  0.00    -0.307 OA
ATOM      7  C   UNL d   1     -47.824  13.347  22.935  0.00  0.00     0.102 A 
ATOM      8  C   UNL d   1     -47.786  14.104  23.263  0.00  0.00     0.027 A 
ATOM      9  C   UNL d   1     -48.367  14.557  22.924  0.00  0.00     0.027 A 
BRANCH   7  10
ATOM     10  C   UNL d   1     -47.333  12.714  23.126  0.00  0.00     0.045 A 
ATOM     11  C   UNL d   1     -46.526  12.746  22.950  0.00  0.00     0.129 A 
ATOM     12  C   UNL d   1     -46.033  12.117  23.139  0.00  0.00     0.024 A 
ATOM     13  C   UNL d   1     -46.346  11.444  23.508  0.00  0.00     0.002 A 
ATOM     14  C   UNL d   1     -47.149  11.404  23.687  0.00  0.00     0.000 A 
ATOM     15  C   UNL d   1     -45.855  10.813  23.698  0.00  0.00     0.000 C 
ATOM     16  C   UNL d   1     -47.646  12.042  23.495  0.00  0.00     0.004 A 
BRANCH  11  17
ATOM     17  N   UNL d   1     -46.215  13.417  22.582  0.00  0.00    -0.114 N 
ATOM     18  O   UNL d   1     -46.123  13.438  21.764  0.00  0.00    -0.532 OA
ATOM     19  O   UNL d   1     -45.991  14.075  23.030  0.00  0.00    -0.532 OA
ENDBRANCH  11  17
ENDBRANCH   7  10
ENDBRANCH   4   5
ENDBRANCH   1   4
BRANCH   1  20
ATOM     20  C   UNL d   1     -50.719  13.758  22.019  0.00  0.00     0.167 C 
ATOM     21  S   UNL d   1     -50.941  13.654  21.229  0.00  0.00    -0.055 SA
ATOM     22  N   UNL d   1     -51.043  13.280  22.601  0.00  0.00    -0.136 N 
ENDBRANCH   1  20
TORSDOF 5
ENDMDL
MODEL 2
REMARK VINA RESULT:      -6.6      1.570      2.023
REMARK  5 active torsions:
REMARK  status: ('A' for Active; 'I' for Inactive)
REMARK    1  A    between atoms: C_5  and  N_1 
REMARK    2  A    between atoms: C_2  and  C_7 
REMARK    3  A    between atoms: C_9  and  C_2 
REMARK    4  A    between atoms: C_3  and  C_4 
REMARK    5  A    between atoms: C_7  and  C_8 
ROOT
ATOM      1  C   UNL d   1     -50.511  13.892  22.950  0.00  0.00     0.100 C 
ATOM      2  C   UNL d   1     -50.788  13.389  22.354  0.00  0.00     0.103 C 
ATOM      3  N   UNL d   1     -51.064  12.886  21.757  0.00  0.00    -0.191 NA
ENDROOT
BRANCH   1   4
ATOM      4  C   UNL d   1     -50.094  13.585  23.589  0.00  0.00     0.037 C 
BRANCH   4   5
ATOM      5  C   UNL d   1     -49.367  13.215  23.468  0.00  0.00     0.101 A 
ATOM      6  O   UNL d   1     -48.681  13.570  23.180  0.00  0.00    -0.307 OA
ATOM      7  C   UNL d   1     -48.098  12.991  23.152  0.00  0.00     0.102 A 
ATOM      8  C   UNL d   1     -48.419  12.279  23.420  0.00  0.00     0.027 A 
ATOM      9  C   UNL d   1     -49.196  12.409  23.615  0.00  0.00     0.027 A 
BRANCH   7  10
ATOM     10  C   UNL d   1     -47.323  13.104  22.898  0.00  0.00     0.045 A 
ATOM     11  C   UNL d   1     -47.084  12.831  22.155  0.00  0.00     0.129 A 
ATOM     12  C   UNL d   1     -46.312  12.942  21.899  0.00  0.00     0.024 A 
ATOM     13  C   UNL d   1     -45.767  13.331  22.387  0.00  0.00     0.002 A 
ATOM     14  C   UNL d   1     -45.997  13.607  23.129  0.00  0.00     0.000 A 
ATOM     15  C   UNL d   1     -44.993  13.444  22.134  0.00  0.00     0.000 C 
ATOM     16  C   UNL d   1     -46.779  13.493  23.386  0.00  0.00     0.004 A 
BRANCH  11  17
ATOM     17  N   UNL d   1     -47.627  12.443  21.669  0.00  0.00    -0.114 N 
ATOM     18  O   UNL d   1     -47.783  11.641  21.775  0.00  0.00    -0.532 OA
ATOM     19  O   UNL d   1     -48.022  12.854  21.070  0.00  0.00    -0.532 OA
ENDBRANCH  11  17
ENDBRANCH   7  10
ENDBRANCH   4   5
ENDBRANCH   1   4
BRANCH   1  20
ATOM     20  C   UNL d   1     -50.655  14.703  22.902  0.00  0.00     0.167 C 
ATOM     21  S   UNL d   1     -51.064  15.085  23.511  0.00  0.00    -0.055 SA
ATOM     22  N   UNL d   1     -50.394  15.130  22.253  0.00  0.00    -0.136 N 
ENDBRANCH   1  20
TORSDOF 5
ENDMDL
MODEL 3
REMARK VINA RESULT:      -6.4      8.501      9.977
REMARK  5 active torsions:
REMARK  status: ('A' for Active; 'I' for Inactive)
REMARK    1  A    between atoms: C_5  and  N_1 
REMARK    2  A    between atoms: C_2  and  C_7 
REMARK    3  A    between atoms: C_9  and  C_2 
REMARK    4  A    between atoms: C_3  and  C_4 
REMARK    5  A    between atoms: C_7  and  C_8 
ROOT
ATOM      1  C   UNL d   1     -40.151  15.243  20.973  0.00  0.00     0.100 C 
ATOM      2  C   UNL d   1     -40.840  14.789  21.029  0.00  0.00     0.103 C 
ATOM      3  N   UNL d   1     -41.530  14.335  21.085  0.00  0.00    -0.191 NA
ENDROOT
BRANCH   1   4
ATOM      4  C   UNL d   1     -40.126  15.898  20.477  0.00  0.00     0.037 C 
BRANCH   4   5
ATOM      5  C   UNL d   1     -40.167  15.798  19.659  0.00  0.00     0.101 A 
ATOM      6  O   UNL d   1     -39.552  15.560  19.165  0.00  0.00    -0.307 OA
ATOM      7  C   UNL d   1     -39.846  15.537  18.398  0.00  0.00     0.102 A 
ATOM      8  C   UNL d   1     -40.641  15.761  18.414  0.00  0.00     0.027 A 
ATOM      9  C   UNL d   1     -40.844  15.922  19.183  0.00  0.00     0.027 A 
BRANCH   7  10
ATOM     10  C   UNL d   1     -39.418  15.326  17.727  0.00  0.00     0.045 A 
ATOM     11  C   UNL d   1     -39.501  14.571  17.401  0.00  0.00     0.129 A 
ATOM     12  C   UNL d   1     -39.075  14.358  16.731  0.00  0.00     0.024 A 
ATOM     13  C   UNL d   1     -38.559  14.902  16.380  0.00  0.00     0.002 A 
ATOM     14  C   UNL d   1     -38.471  15.657  16.699  0.00  0.00     0.000 A 
ATOM     15  C   UNL d   1     -38.132  14.692  15.710  0.00  0.00     0.000 C 
ATOM     16  C   UNL d   1     -38.902  15.871  17.376  0.00  0.00     0.004 A 
BRANCH  11  17
ATOM     17  N   UNL d   1     -40.015  14.029  17.752  0.00  0.00    -0.114 N 
ATOM     18  O   UNL d   1     -39.729  13.463  18.277  0.00  0.00    -0.532 OA
ATOM     19  O   UNL d   1     -40.824  14.047  17.581  0.00  0.00    -0.532 OA
ENDBRANCH  11  17
ENDBRANCH   7  10
ENDBRANCH   4   5
ENDBRANCH   1   4
BRANCH   1  20
ATOM     20  C   UNL d   1     -39.487  15.036  21.417  0.00  0.00     0.167 C 
ATOM     21  S   UNL d   1     -39.176  15.571  21.967  0.00  0.00    -0.055 SA
ATOM     22  N   UNL d   1     -39.135  14.303  21.314  0.00  0.00    -0.136 N 
ENDBRANCH   1  20
TORSDOF 5
ENDMDL
MODEL 4
REMARK VINA RESULT:      -6.2      1.941      4.036
REMARK  5 active torsions:
REMARK  status: ('A' for Active; 'I' for Inactive)
REMARK    1  A    between atoms: C_5  and  N_1 
REMARK    2  A    between atoms: C_2  and  C_7 
REMARK    3  A    between atoms: C_9  and  C_2 
REMARK    4  A    between atoms: C_3  and  C_4 
REMARK    5  A    between atoms: C_7  and  C_8 
ROOT
ATOM      1  C   UNL d   1     -46.008  13.016  23.070  0.00  0.00     0.100 C 
ATOM      2  C   UNL d   1     -46.053  13.838  22.990  0.00  0.00     0.103 C 
ATOM      3  N   UNL d   1     -46.098  14.661  22.910  0.00  0.00    -0.191 NA
ENDROOT
BRANCH   1   4
ATOM      4  C   UNL d   1     -46.507  12.624  23.593  0.00  0.00     0.037 C 
BRANCH   4   5
ATOM      5  C   UNL d   1     -47.315  12.576  23.435  0.00  0.00     0.101 A 
ATOM      6  O   UNL d   1     -47.759  13.111  22.994  0.00  0.00    -0.307 OA
ATOM      7  C   UNL d   1     -48.535  12.840  22.985  0.00  0.00     0.102 A 
ATOM      8  C   UNL d   1     -48.574  12.138  23.418  0.00  0.00     0.027 A 
ATOM      9  C   UNL d   1     -47.831  11.971  23.697  0.00  0.00     0.027 A 
BRANCH   7  10
ATOM     10  C   UNL d   1     -49.166  13.208  22.606  0.00  0.00     0.045 A 
ATOM     11  C   UNL d   1     -49.391  12.970  21.847  0.00  0.00     0.129 A 
ATOM     12  C   UNL d   1     -50.021  13.335  21.465  0.00  0.00     0.024 A 
ATOM     13  C   UNL d   1     -50.434  13.946  21.843  0.00  0.00     0.002 A 
ATOM     14  C   UNL d   1     -50.216  14.189  22.600  0.00  0.00     0.000 A 
ATOM     15  C   UNL d   1     -51.064  14.313  21.465  0.00  0.00     0.000 C 
ATOM     16  C   UNL d   1     -49.579  13.819  22.984  0.00  0.00     0.004 A 
BRANCH  11  17
ATOM     17  N   UNL d   1     -48.980  12.362  21.470  0.00  0.00    -0.114 N 
ATOM     18  O   UNL d   1     -48.451  12.531  20.862  0.00  0.00    -0.532 OA
ATOM     19  O   UNL d   1     -49.092  11.575  21.699  0.00  0.00    -0.532 OA
ENDBRANCH  11  17
ENDBRANCH   7  10
ENDBRANCH   4   5
ENDBRANCH   1   4
BRANCH   1  20
ATOM     20  C   UNL d   1     -45.462  12.590  22.623  0.00  0.00     0.167 C 
ATOM     21  S   UNL d   1     -45.169  12.908  21.918  0.00  0.00    -0.055 SA
ATOM     22  N   UNL d   1     -45.208  11.853  22.876  0.00  0.00    -0.136 N 
ENDBRANCH   1  20
TORSDOF 5
ENDMDL
MODEL 5
REMARK VINA RESULT:      -5.9      8.656      9.838
REMARK  5 active torsions:
REMARK  status: ('A' for Active; 'I' for Inactive)
REMARK    1  A    between atoms: C_5  and  N_1 
REMARK    2  A    between atoms: C_2  and  C_7 
REMARK    3  A    between atoms: C_9  and  C_2 
REMARK    4  A    between atoms: C_3  and  C_4 
REMARK    5  A    between atoms: C_7  and  C_8 
ROOT
ATOM      1  C   UNL d   1     -39.359  14.400  17.232  0.00  0.00     0.100 C 
ATOM      2  C   UNL d   1     -39.220  15.068  16.764  0.00  0.00     0.103 C 
ATOM      3  N   UNL d   1     -39.080  15.735  16.295  0.00  0.00    -0.191 NA
ENDROOT
BRANCH   1   4
ATOM      4  C   UNL d   1     -40.024  14.365  17.715  0.00  0.00     0.037 C 
BRANCH   4   5
ATOM      5  C   UNL d   1     -40.084  14.862  18.371  0.00  0.00     0.101 A 
ATOM      6  O   UNL d   1     -39.709  14.759  19.097  0.00  0.00    -0.307 OA
ATOM      7  C   UNL d   1     -39.929  15.386  19.580  0.00  0.00     0.102 A 
ATOM      8  C   UNL d   1     -40.440  15.878  19.157  0.00  0.00     0.027 A 
ATOM      9  C   UNL d   1     -40.539  15.563  18.416  0.00  0.00     0.027 A 
BRANCH   7  10
ATOM     10  C   UNL d   1     -39.682  15.503  20.357  0.00  0.00     0.045 A 
ATOM     11  C   UNL d   1     -40.185  15.320  20.986  0.00  0.00     0.129 A 
ATOM     12  C   UNL d   1     -39.941  15.435  21.762  0.00  0.00     0.024 A 
ATOM     13  C   UNL d   1     -39.185  15.737  21.916  0.00  0.00     0.002 A 
ATOM     14  C   UNL d   1     -38.677  15.922  21.294  0.00  0.00     0.000 A 
ATOM     15  C   UNL d   1     -38.937  15.854  22.691  0.00  0.00     0.000 C 
ATOM     16  C   UNL d   1     -38.926  15.804  20.510  0.00  0.00     0.004 A 
BRANCH  11  17
ATOM     17  N   UNL d   1     -40.938  15.020  20.832  0.00  0.00    -0.114 N 
ATOM     18  O   UNL d   1     -41.058  14.207  20.768  0.00  0.00    -0.532 OA
ATOM     19  O   UNL d   1     -41.583  15.529  20.741  0.00  0.00    -0.532 OA
ENDBRANCH  11  17
ENDBRANCH   7  10
ENDBRANCH   4   5
ENDBRANCH   1   4
BRANCH   1  20
ATOM     20  C   UNL d   1     -38.829  13.769  17.215  0.00  0.00     0.167 C 
ATOM     21  S   UNL d   1     -38.038  13.900  17.013  0.00  0.00    -0.055 SA
ATOM     22  N   UNL d   1     -39.084  13.011  17.397  0.00  0.00    -0.136 N 
ENDBRANCH   1  20
TORSDOF 5
ENDMDL
MODEL 6
REMARK VINA RESULT:      -5.8      8.771      9.744
REMARK  5 active torsions:
REMARK  status: ('A' for Active; 'I' for Inactive)
REMARK    1  A    between atoms: C_5  and  N_1 
REMARK    2  A    between atoms: C_2  and  C_7 
REMARK    3  A    between atoms: C_9  and  C_2 
REMARK    4  A    between atoms: C_3  and  C_4 
REMARK    5  A    between atoms: C_7  and  C_8 
ROOT
ATOM      1  C   UNL d   1     -39.408  14.684  17.453  0.00  0.00     0.100 C 
ATOM      2  C   UNL d   1     -40.218  14.807  17.339  0.00  0.00     0.103 C 
ATOM      3  N   UNL d   1     -41.029  14.929  17.226  0.00  0.00    -0.191 NA
ENDROOT
BRANCH   1   4
ATOM      4  C   UNL d   1     -38.969  15.214  17.904  0.00  0.00     0.037 C 
BRANCH   4   5
ATOM      5  C   UNL d   1     -39.090  15.260  18.719  0.00  0.00     0.101 A 
ATOM      6  O   UNL d   1     -38.936  14.668  19.270  0.00  0.00    -0.307 OA
ATOM      7  C   UNL d   1     -39.141  14.960  20.010  0.00  0.00     0.102 A 
ATOM      8  C   UNL d   1     -39.421  15.732  19.921  0.00  0.00     0.027 A 
ATOM      9  C   UNL d   1     -39.393  15.922  19.133  0.00  0.00     0.027 A 
BRANCH   7  10
ATOM     10  C   UNL d   1     -39.077  14.550  20.722  0.00  0.00     0.045 A 
ATOM     11  C   UNL d   1     -39.755  14.352  21.150  0.00  0.00     0.129 A 
ATOM     12  C   UNL d   1     -39.695  13.943  21.860  0.00  0.00     0.024 A 
ATOM     13  C   UNL d   1     -38.949  13.728  22.150  0.00  0.00     0.002 A 
ATOM     14  C   UNL d   1     -38.267  13.923  21.729  0.00  0.00     0.000 A 
ATOM     15  C   UNL d   1     -38.884  13.319  22.860  0.00  0.00     0.000 C 
ATOM     16  C   UNL d   1     -38.331  14.336  21.011  0.00  0.00     0.004 A 
BRANCH  11  17
ATOM     17  N   UNL d   1     -40.498  14.566  20.861  0.00  0.00    -0.114 N 
ATOM     18  O   UNL d   1     -40.806  15.313  21.015  0.00  0.00    -0.532 OA
ATOM     19  O   UNL d   1     -40.943  14.032  20.412  0.00  0.00    -0.532 OA
ENDBRANCH  11  17
ENDBRANCH   7  10
ENDBRANCH   4   5
ENDBRANCH   1   4
BRANCH   1  20
ATOM     20  C   UNL d   1     -39.041  14.029  17.112  0.00  0.00     0.167 C 
ATOM     21  S   UNL d   1     -38.440  14.138  16.554  0.00  0.00    -0.055 SA
ATOM     22  N   UNL d   1     -39.269  13.271  17.326  0.00  0.00    -0.136 N 
ENDBRANCH   1  20
TORSDOF 5
ENDMDL
MODEL 7
REMARK VINA RESULT:      -5.8      8.460     10.059
REMARK  5 active torsions:
REMARK  status: ('A' for Active; 'I' for Inactive)
REMARK    1  A    between atoms: C_5  and  N_1 
REMARK    2  A    between atoms: C_2  and  C_7 
REMARK    3  A    between atoms: C_9  and  C_2 
REMARK    4  A    between atoms: C_3  and  C_4 
REMARK    5  A    between atoms: C_7  and  C_8 
ROOT
ATOM      1  C   UNL d   1     -40.193  14.912  21.081  0.00  0.00     0.100 C 
ATOM      2  C   UNL d   1     -39.677  15.415  21.487  0.00  0.00     0.103 C 
ATOM      3  N   UNL d   1     -39.160  15.918  21.894  0.00  0.00    -0.191 NA
ENDROOT
BRANCH   1   4
ATOM      4  C   UNL d   1     -39.918  14.205  20.764  0.00  0.00     0.037 C 
BRANCH   4   5
ATOM      5  C   UNL d   1     -39.408  14.215  20.116  0.00  0.00     0.101 A 
ATOM      6  O   UNL d   1     -39.544  14.584  19.392  0.00  0.00    -0.307 OA
ATOM      7  C   UNL d   1     -38.887  14.448  18.918  0.00  0.00     0.102 A 
ATOM      8  C   UNL d   1     -38.343  13.996  19.345  0.00  0.00     0.027 A 
ATOM      9  C   UNL d   1     -38.655  13.850  20.079  0.00  0.00     0.027 A 
BRANCH   7  10
ATOM     10  C   UNL d   1     -38.788  14.718  18.147  0.00  0.00     0.045 A 
ATOM     11  C   UNL d   1     -39.138  14.313  17.517  0.00  0.00     0.129 A 
ATOM     12  C   UNL d   1     -39.042  14.580  16.745  0.00  0.00     0.024 A 
ATOM     13  C   UNL d   1     -38.592  15.259  16.597  0.00  0.00     0.002 A 
ATOM     14  C   UNL d   1     -38.240  15.669  17.220  0.00  0.00     0.000 A 
ATOM     15  C   UNL d   1     -38.493  15.529  15.827  0.00  0.00     0.000 C 
ATOM     16  C   UNL d   1     -38.338  15.397  17.999  0.00  0.00     0.004 A 
BRANCH  11  17
ATOM     17  N   UNL d   1     -39.586  13.636  17.665  0.00  0.00    -0.114 N 
ATOM     18  O   UNL d   1     -40.401  13.691  17.772  0.00  0.00    -0.532 OA
ATOM     19  O   UNL d   1     -39.224  12.894  17.706  0.00  0.00    -0.532 OA
ENDBRANCH  11  17
ENDBRANCH   7  10
ENDBRANCH   4   5
ENDBRANCH   1   4
BRANCH   1  20
ATOM     20  C   UNL d   1     -40.986  15.122  20.995  0.00  0.00     0.167 C 
ATOM     21  S   UNL d   1     -41.193  15.915  20.884  0.00  0.00    -0.055 SA
ATOM     22  N   UNL d   1     -41.570  14.547  21.019  0.00  0.00    -0.136 N 
ENDBRANCH   1  20
TORSDOF 5
ENDMDL
