MODEL 1
REMARK VINA RESULT:      28.1      0.000      0.000
REMARK  4 active torsions:
REMARK  status: ('A' for Active; 'I' for Inactive)
REMARK    1  A    between atoms: N_3  and  C_1 
REMARK       I    between atoms: C_7  and  N_3 
REMARK    2  A    between atoms: C_11  and  C_7 
REMARK    3  A    between atoms: C_12  and  C_11 
REMARK    4  A    between atoms: C_13  and  C_12 
ROOT
ATOM      1  C   UNL d   1      57.329  49.555  49.966  0.00  0.00     0.124 A 
ATOM      2  C   UNL d   1      56.574  49.485  50.299  0.00  0.00     0.093 A 
ATOM      3  C   UNL d   1      56.383  49.550  51.099  0.00  0.00     0.103 C 
ATOM      4  S   UNL d   1      57.256  49.451  49.154  0.00  0.00    -0.067 SA
ATOM      5  N   UNL d   1      56.184  49.610  51.866  0.00  0.00    -0.191 NA
ATOM      6  C   UNL d   1      56.034  49.335  49.681  0.00  0.00     0.019 A 
ATOM      7  C   UNL d   1      56.462  49.315  48.974  0.00  0.00     0.038 A 
ENDROOT
BRANCH   1   8
ATOM      8  N   UNL d   1      58.028  49.704  50.377  0.00  0.00    -0.201 NA
ATOM      9  C   UNL d   1      58.755  49.553  50.016  0.00  0.00     0.280 C 
ATOM     10  O   UNL d   1      58.784  49.255  49.249  0.00  0.00    -0.265 OA
BRANCH   9  11
ATOM     11  C   UNL d   1      59.456  49.702  50.432  0.00  0.00     0.062 C 
BRANCH  11  12
ATOM     12  C   UNL d   1      59.929  49.078  50.686  0.00  0.00     0.005 C 
BRANCH  12  13
ATOM     13  C   UNL d   1      60.515  49.205  51.269  0.00  0.00     0.000 A 
ATOM     14  C   UNL d   1      61.292  48.953  51.143  0.00  0.00     0.000 A 
ATOM     15  C   UNL d   1      61.862  49.078  51.713  0.00  0.00     0.000 A 
ATOM     16  C   UNL d   1      61.667  49.455  52.414  0.00  0.00     0.000 A 
ATOM     17  C   UNL d   1      60.894  49.708  52.543  0.00  0.00     0.000 A 
ATOM     18  C   UNL d   1      60.322  49.584  51.975  0.00  0.00     0.000 A 
ENDBRANCH  12  13
ENDBRANCH  11  12
ENDBRANCH   9  11
ENDBRANCH   1   8
TORSDOF 4
ENDMDL
