MODEL 1
REMARK VINA RESULT:      48.5      0.000      0.000
REMARK  5 active torsions:
REMARK  status: ('A' for Active; 'I' for Inactive)
REMARK    1  A    between atoms: N_3  and  S_1 
REMARK    2  A    between atoms: C_4  and  S_1 
REMARK    3  A    between atoms: S_2  and  N_5 
REMARK    4  A    between atoms: C_8  and  N_3 
REMARK    5  A    between atoms: N_5  and  C_15 
ROOT
ATOM      1  N   UNL d   1     -55.273-100.659 -44.309  0.00  0.00    -0.229 N 
ATOM      2  C   UNL d   1     -54.720-100.734 -44.913  0.00  0.00     0.111 C 
ENDROOT
BRANCH   1   3
ATOM      3  S   UNL d   1     -55.160-101.062 -43.594  0.00  0.00     0.271 S 
ATOM      4  O   UNL d   1     -54.837-100.311 -43.701  0.00  0.00    -0.200 OA
ATOM      5  O   UNL d   1     -55.601-101.418 -44.206  0.00  0.00    -0.200 OA
BRANCH   3   6
ATOM      6  C   UNL d   1     -55.047-101.465 -42.879  0.00  0.00     0.104 A 
ATOM      7  C   UNL d   1     -55.136-102.285 -42.847  0.00  0.00     0.013 A 
ATOM      8  C   UNL d   1     -55.026-102.681 -42.145  0.00  0.00     0.001 A 
ATOM      9  C   UNL d   1     -54.825-102.267 -41.463  0.00  0.00     0.000 A 
ATOM     10  C   UNL d   1     -54.735-101.448 -41.490  0.00  0.00     0.001 A 
ATOM     11  C   UNL d   1     -54.714-102.678 -40.752  0.00  0.00     0.000 C 
ATOM     12  C   UNL d   1     -54.846-101.050 -42.195  0.00  0.00     0.013 A 
ENDBRANCH   3   6
ENDBRANCH   1   3
BRANCH   1  13
ATOM     13  C   UNL d   1     -55.940-100.181 -44.413  0.00  0.00     0.075 A 
ATOM     14  C   UNL d   1     -55.851 -99.362 -44.494  0.00  0.00     0.020 A 
ATOM     15  C   UNL d   1     -56.519 -98.889 -44.597  0.00  0.00     0.021 A 
ATOM     16  C   UNL d   1     -57.276 -99.233 -44.621  0.00  0.00     0.094 A 
ATOM     17  C   UNL d   1     -57.356-100.052 -44.539  0.00  0.00     0.021 A 
ATOM     18  C   UNL d   1     -56.690-100.522 -44.436  0.00  0.00     0.020 A 
BRANCH  16  19
ATOM     19  N   UNL d   1     -57.945 -98.756 -44.725  0.00  0.00    -0.162 NA
BRANCH  19  20
ATOM     20  S   UNL d   1     -58.622 -98.873 -44.252  0.00  0.00     0.266 S 
ATOM     21  O   UNL d   1     -58.550 -98.913 -43.434  0.00  0.00    -0.203 OA
ATOM     22  O   UNL d   1     -58.689 -98.833 -45.083  0.00  0.00    -0.203 OA
ATOM     23  C   UNL d   1     -59.366 -98.950 -44.610  0.00  0.00     0.165 C 
ENDBRANCH  19  20
ENDBRANCH  16  19
ENDBRANCH   1  13
TORSDOF 5
ENDMDL
