MODEL 1
REMARK VINA RESULT:      43.0      0.000      0.000
REMARK  4 active torsions:
REMARK  status: ('A' for Active; 'I' for Inactive)
REMARK    1  A    between atoms: N_2  and  S_1 
REMARK    2  A    between atoms: C_4  and  S_1 
REMARK    3  A    between atoms: C_11  and  C_3 
REMARK    4  A    between atoms: O_17  and  C_9 
ROOT
ATOM      1  S   UNL d   1      58.026  49.507  50.301  0.00  0.00     0.273 S 
ATOM      2  O   UNL d   1      58.453  49.657  49.604  0.00  0.00    -0.200 OA
ATOM      3  O   UNL d   1      57.603  49.358  50.990  0.00  0.00    -0.200 OA
ENDROOT
BRANCH   1   4
ATOM      4  N   UNL d   1      57.325  49.499  49.870  0.00  0.00    -0.213 N 
ATOM      5  C   UNL d   1      56.580  49.302  50.158  0.00  0.00     0.157 A 
ATOM      6  N   UNL d   1      56.038  49.368  49.540  0.00  0.00    -0.224 NA
ATOM      7  C   UNL d   1      56.452  49.609  48.861  0.00  0.00     0.120 A 
ATOM      8  C   UNL d   1      57.247  49.690  49.066  0.00  0.00     0.114 A 
BRANCH   5   9
ATOM      9  C   UNL d   1      56.407  49.076  50.934  0.00  0.00     0.035 A 
ATOM     10  C   UNL d   1      56.323  49.643  51.522  0.00  0.00     0.003 A 
ATOM     11  C   UNL d   1      56.149  49.422  52.300  0.00  0.00     0.000 A 
ATOM     12  C   UNL d   1      56.060  48.612  52.486  0.00  0.00     0.000 A 
ATOM     13  C   UNL d   1      56.144  48.046  51.898  0.00  0.00     0.000 A 
ATOM     14  C   UNL d   1      56.317  48.271  51.122  0.00  0.00     0.003 A 
ENDBRANCH   5   9
ENDBRANCH   1   4
BRANCH   1  15
ATOM     15  C   UNL d   1      58.733  49.514  50.736  0.00  0.00     0.106 A 
ATOM     16  C   UNL d   1      59.456  49.357  50.358  0.00  0.00     0.039 A 
ATOM     17  C   UNL d   1      60.156  49.365  50.788  0.00  0.00     0.122 A 
ATOM     18  C   UNL d   1      60.138  49.529  51.600  0.00  0.00     0.162 A 
ATOM     19  C   UNL d   1      59.422  49.686  51.976  0.00  0.00     0.032 A 
ATOM     20  F   UNL d   1      60.839  49.537  52.031  0.00  0.00    -0.202 F 
ATOM     21  C   UNL d   1      58.724  49.677  51.543  0.00  0.00     0.015 A 
BRANCH  17  22
ATOM     22  O   UNL d   1      60.872  49.209  50.412  0.00  0.00    -0.326 OA
ATOM     23  C   UNL d   1      61.581  49.403  50.779  0.00  0.00     0.181 C 
ENDBRANCH  17  22
ENDBRANCH   1  15
TORSDOF 4
ENDMDL
