MODEL 1
REMARK VINA RESULT:      45.7      0.000      0.000
REMARK  5 active torsions:
REMARK  status: ('A' for Active; 'I' for Inactive)
REMARK    1  A    between atoms: N_3  and  C_1 
REMARK       I    between atoms: C_6  and  N_3 
REMARK    2  A    between atoms: C_9  and  C_6 
REMARK    3  A    between atoms: C_12  and  C_7 
REMARK    4  A    between atoms: S_8  and  C_9 
REMARK    5  A    between atoms: C_11  and  S_8 
ROOT
ATOM      1  N   UNL d   1     -49.001  28.352  34.337  0.00  0.00    -0.181 NA
ATOM      2  C   UNL d   1     -49.154  27.543  34.303  0.00  0.00     0.287 C 
ATOM      3  O   UNL d   1     -48.795  27.039  34.844  0.00  0.00    -0.265 OA
ENDROOT
BRANCH   2   4
ATOM      4  C   UNL d   1     -49.664  27.244  33.729  0.00  0.00     0.087 C 
ATOM      5  C   UNL d   1     -50.207  27.739  33.365  0.00  0.00     0.012 C 
BRANCH   4   6
ATOM      6  S   UNL d   1     -49.621  26.442  33.525  0.00  0.00    -0.082 SA
BRANCH   6   7
ATOM      7  C   UNL d   1     -50.300  26.001  33.461  0.00  0.00     0.030 A 
ATOM      8  C   UNL d   1     -51.033  26.377  33.441  0.00  0.00     0.006 A 
ATOM      9  C   UNL d   1     -51.727  25.926  33.375  0.00  0.00     0.001 A 
ATOM     10  C   UNL d   1     -51.671  25.101  33.331  0.00  0.00     0.000 A 
ATOM     11  C   UNL d   1     -50.941  24.732  33.352  0.00  0.00     0.001 A 
ATOM     12  C   UNL d   1     -50.245  25.175  33.417  0.00  0.00     0.006 A 
ENDBRANCH   6   7
ENDBRANCH   4   6
ENDBRANCH   2   4
BRANCH   1  13
ATOM     13  C   UNL d   1     -48.494  28.657  34.907  0.00  0.00     0.219 A 
ATOM     14  S   UNL d   1     -47.866  29.172  34.775  0.00  0.00    -0.026 SA
ATOM     15  C   UNL d   1     -47.508  29.334  35.501  0.00  0.00     0.135 A 
ATOM     16  N   UNL d   1     -47.920  28.914  36.083  0.00  0.00    -0.139 NA
ATOM     17  N   UNL d   1     -48.528  28.496  35.716  0.00  0.00    -0.121 NA
BRANCH  15  18
ATOM     18  C   UNL d   1     -46.857  29.824  35.629  0.00  0.00     0.028 C 
ATOM     19  C   UNL d   1     -46.981  30.610  35.859  0.00  0.00     0.002 C 
ENDBRANCH  15  18
ENDBRANCH   1  13
TORSDOF 5
ENDMDL
MODEL 2
REMARK VINA RESULT:      47.8      2.172      4.985
REMARK  5 active torsions:
REMARK  status: ('A' for Active; 'I' for Inactive)
REMARK    1  A    between atoms: N_3  and  C_1 
REMARK       I    between atoms: C_6  and  N_3 
REMARK    2  A    between atoms: C_9  and  C_6 
REMARK    3  A    between atoms: C_12  and  C_7 
REMARK    4  A    between atoms: S_8  and  C_9 
REMARK    5  A    between atoms: C_11  and  S_8 
ROOT
ATOM      1  N   UNL d   1     -50.417  25.591  33.316  0.00  0.00    -0.181 NA
ATOM      2  C   UNL d   1     -50.499  26.395  33.480  0.00  0.00     0.287 C 
ATOM      3  O   UNL d   1     -51.244  26.700  33.643  0.00  0.00    -0.265 OA
ENDROOT
BRANCH   2   4
ATOM      4  C   UNL d   1     -49.837  26.884  33.481  0.00  0.00     0.087 C 
ATOM      5  C   UNL d   1     -49.086  26.559  33.434  0.00  0.00     0.012 C 
BRANCH   4   6
ATOM      6  S   UNL d   1     -49.939  27.705  33.529  0.00  0.00    -0.082 SA
BRANCH   6   7
ATOM      7  C   UNL d   1     -49.415  28.157  33.955  0.00  0.00     0.030 A 
ATOM      8  C   UNL d   1     -48.967  27.811  34.554  0.00  0.00     0.006 A 
ATOM      9  C   UNL d   1     -48.432  28.273  34.989  0.00  0.00     0.001 A 
ATOM     10  C   UNL d   1     -48.356  29.078  34.813  0.00  0.00     0.000 A 
ATOM     11  C   UNL d   1     -48.803  29.417  34.218  0.00  0.00     0.001 A 
ATOM     12  C   UNL d   1     -49.338  28.964  33.779  0.00  0.00     0.006 A 
ENDBRANCH   6   7
ENDBRANCH   4   6
ENDBRANCH   2   4
BRANCH   1  13
ATOM     13  C   UNL d   1     -51.072  25.097  33.313  0.00  0.00     0.219 A 
ATOM     14  S   UNL d   1     -51.861  25.333  33.317  0.00  0.00    -0.026 SA
ATOM     15  C   UNL d   1     -52.333  24.655  33.313  0.00  0.00     0.135 A 
ATOM     16  N   UNL d   1     -51.830  23.999  33.307  0.00  0.00    -0.139 NA
ATOM     17  N   UNL d   1     -51.052  24.271  33.307  0.00  0.00    -0.121 NA
BRANCH  15  18
ATOM     18  C   UNL d   1     -53.158  24.632  33.314  0.00  0.00     0.028 C 
ATOM     19  C   UNL d   1     -53.550  24.207  33.908  0.00  0.00     0.002 C 
ENDBRANCH  15  18
ENDBRANCH   1  13
TORSDOF 5
ENDMDL
MODEL 3
REMARK VINA RESULT:      48.0      2.722      3.148
REMARK  5 active torsions:
REMARK  status: ('A' for Active; 'I' for Inactive)
REMARK    1  A    between atoms: N_3  and  C_1 
REMARK       I    between atoms: C_6  and  N_3 
REMARK    2  A    between atoms: C_9  and  C_6 
REMARK    3  A    between atoms: C_12  and  C_7 
REMARK    4  A    between atoms: S_8  and  C_9 
REMARK    5  A    between atoms: C_11  and  S_8 
ROOT
ATOM      1  N   UNL d   1     -51.214  26.744  35.028  0.00  0.00    -0.181 NA
ATOM      2  C   UNL d   1     -50.764  26.328  34.477  0.00  0.00     0.287 C 
ATOM      3  O   UNL d   1     -50.034  26.022  34.699  0.00  0.00    -0.265 OA
ENDROOT
BRANCH   2   4
ATOM      4  C   UNL d   1     -51.046  26.221  33.711  0.00  0.00     0.087 C 
ATOM      5  C   UNL d   1     -51.462  26.822  33.340  0.00  0.00     0.012 C 
BRANCH   4   6
ATOM      6  S   UNL d   1     -50.906  25.503  33.323  0.00  0.00    -0.082 SA
BRANCH   6   7
ATOM      7  C   UNL d   1     -51.472  24.919  33.326  0.00  0.00     0.030 A 
ATOM      8  C   UNL d   1     -51.243  24.127  33.326  0.00  0.00     0.006 A 
ATOM      9  C   UNL d   1     -51.820  23.531  33.329  0.00  0.00     0.001 A 
ATOM     10  C   UNL d   1     -52.621  23.742  33.332  0.00  0.00     0.000 A 
ATOM     11  C   UNL d   1     -52.843  24.529  33.331  0.00  0.00     0.001 A 
ATOM     12  C   UNL d   1     -52.273  25.129  33.328  0.00  0.00     0.006 A 
ENDBRANCH   6   7
ENDBRANCH   4   6
ENDBRANCH   2   4
BRANCH   1  13
ATOM     13  C   UNL d   1     -50.939  26.854  35.794  0.00  0.00     0.219 A 
ATOM     14  S   UNL d   1     -51.343  26.674  36.487  0.00  0.00    -0.026 SA
ATOM     15  C   UNL d   1     -50.860  26.875  37.127  0.00  0.00     0.135 A 
ATOM     16  N   UNL d   1     -50.154  27.180  36.822  0.00  0.00    -0.139 NA
ATOM     17  N   UNL d   1     -50.203  27.168  36.000  0.00  0.00    -0.121 NA
BRANCH  15  18
ATOM     18  C   UNL d   1     -51.043  26.788  37.927  0.00  0.00     0.028 C 
ATOM     19  C   UNL d   1     -51.388  26.083  38.189  0.00  0.00     0.002 C 
ENDBRANCH  15  18
ENDBRANCH   1  13
TORSDOF 5
ENDMDL
