MODEL 1
REMARK VINA RESULT:      74.0      0.000      0.000
REMARK  5 active torsions:
REMARK  status: ('A' for Active; 'I' for Inactive)
REMARK    1  A    between atoms: C_5  and  C_1 
REMARK    2  A    between atoms: C_2  and  C_5 
REMARK    3  A    between atoms: C_7  and  C_2 
REMARK    4  A    between atoms: N_4  and  C_11 
REMARK       I    between atoms: N_12  and  C_7 
REMARK    5  A    between atoms: C_17  and  N_12 
ROOT
ATOM      1  C   UNL d   1     -55.449-101.311 -44.563  0.00  0.00     0.126 C 
ATOM      2  C   UNL d   1     -55.692-101.869 -45.111  0.00  0.00     0.106 C 
ATOM      3  N   UNL d   1     -55.939-102.432 -45.665  0.00  0.00    -0.191 NA
ENDROOT
BRANCH   1   4
ATOM      4  C   UNL d   1     -54.777-101.452 -44.100  0.00  0.00     0.017 C 
BRANCH   4   5
ATOM      5  C   UNL d   1     -54.757-101.214 -43.312  0.00  0.00     0.020 A 
ATOM      6  C   UNL d   1     -54.747-100.429 -43.047  0.00  0.00     0.080 A 
ATOM      7  N   UNL d   1     -54.728-100.442 -42.214  0.00  0.00    -0.303 N 
ATOM      8  C   UNL d   1     -54.713 -99.787 -41.720  0.00  0.00     0.100 C 
ATOM      9  C   UNL d   1     -54.727-101.238 -41.970  0.00  0.00     0.064 A 
ATOM     10  C   UNL d   1     -54.745-101.715 -42.654  0.00  0.00     0.018 A 
ATOM     11  C   UNL d   1     -54.711-101.591 -41.224  0.00  0.00     0.018 A 
ATOM     12  C   UNL d   1     -54.747-102.535 -42.580  0.00  0.00     0.002 A 
ATOM     13  C   UNL d   1     -54.732-102.879 -41.835  0.00  0.00     0.000 A 
ATOM     14  C   UNL d   1     -54.714-102.413 -41.159  0.00  0.00     0.002 A 
ENDBRANCH   4   5
ENDBRANCH   1   4
BRANCH   1  15
ATOM     15  C   UNL d   1     -55.873-100.605 -44.469  0.00  0.00     0.289 C 
ATOM     16  N   UNL d   1     -56.692-100.605 -44.582  0.00  0.00    -0.207 NA
ATOM     17  O   UNL d   1     -55.481 -99.915 -44.267  0.00  0.00    -0.264 OA
BRANCH  16  18
ATOM     18  C   UNL d   1     -57.239 -99.989 -44.525  0.00  0.00     0.086 A 
ATOM     19  C   UNL d   1     -57.739 -99.824 -45.152  0.00  0.00     0.043 A 
ATOM     20  C   UNL d   1     -58.285 -99.209 -45.095  0.00  0.00     0.128 A 
ATOM     21  C   UNL d   1     -58.323 -98.758 -44.395  0.00  0.00     0.024 A 
ATOM     22  C   UNL d   1     -57.813 -98.932 -43.767  0.00  0.00     0.003 A 
ATOM     23  C   UNL d   1     -57.275 -99.546 -43.836  0.00  0.00     0.019 A 
BRANCH  20  24
ATOM     24  N   UNL d   1     -58.791 -99.039 -45.725  0.00  0.00    -0.114 N 
ATOM     25  O   UNL d   1     -59.608 -99.049 -45.605  0.00  0.00    -0.532 OA
ATOM     26  O   UNL d   1     -58.477 -98.860 -46.471  0.00  0.00    -0.532 OA
ENDBRANCH  20  24
ENDBRANCH  16  18
ENDBRANCH   1  15
TORSDOF 5
ENDMDL
