MODEL 1
REMARK VINA RESULT:     108.5      0.000      0.000
REMARK  4 active torsions:
REMARK  status: ('A' for Active; 'I' for Inactive)
REMARK    1  A    between atoms: C_8  and  C_1 
REMARK    2  A    between atoms: C_10  and  C_5 
REMARK    3  A    between atoms: N_9  and  C_10 
REMARK    4  A    between atoms: O_19  and  C_14 
ROOT
ATOM      1  C   UNL d   1      61.140  46.115  50.263  0.00  0.00     0.066 A 
ATOM      2  C   UNL d   1      61.558  46.807  50.095  0.00  0.00     0.200 A 
ATOM      3  C   UNL d   1      60.608  47.573  50.839  0.00  0.00     0.108 A 
ATOM      4  C   UNL d   1      61.302  47.531  50.375  0.00  0.00     0.062 A 
ATOM      5  C   UNL d   1      60.360  48.301  51.115  0.00  0.00     0.079 A 
ATOM      6  C   UNL d   1      60.447  46.158  50.726  0.00  0.00     0.126 A 
ATOM      7  O   UNL d   1      60.180  46.878  51.014  0.00  0.00    -0.305 OA
ATOM      8  C   UNL d   1      61.718  48.219  50.207  0.00  0.00     0.009 A 
ATOM      9  C   UNL d   1      60.770  48.988  50.951  0.00  0.00     0.199 A 
ATOM     10  O   UNL d   1      62.240  46.766  49.638  0.00  0.00    -0.286 OA
ATOM     11  C   UNL d   1      61.463  48.946  50.488  0.00  0.00     0.042 A 
ATOM     12  O   UNL d   1      60.521  49.708  51.227  0.00  0.00    -0.286 OA
ENDROOT
BRANCH   1  13
ATOM     13  C   UNL d   1      61.420  45.332  49.958  0.00  0.00     0.027 A 
ATOM     14  C   UNL d   1      61.364  44.617  50.469  0.00  0.00     0.094 A 
ATOM     15  C   UNL d   1      61.646  43.815  50.166  0.00  0.00     0.024 A 
ATOM     16  C   UNL d   1      61.983  43.762  49.339  0.00  0.00     0.002 A 
ATOM     17  C   UNL d   1      62.039  44.477  48.828  0.00  0.00     0.000 A 
ATOM     18  C   UNL d   1      61.760  45.271  49.126  0.00  0.00     0.002 A 
BRANCH  14  19
ATOM     19  O   UNL d   1      61.027  44.670  51.295  0.00  0.00    -0.328 OA
ATOM     20  C   UNL d   1      60.839  43.934  51.759  0.00  0.00     0.181 C 
ENDBRANCH  14  19
ENDBRANCH   1  13
BRANCH   5  21
ATOM     21  C   UNL d   1      59.670  48.343  51.576  0.00  0.00     0.085 C 
BRANCH  21  22
ATOM     22  N   UNL d   1      58.974  48.631  51.245  0.00  0.00    -0.302 N 
ATOM     23  C   UNL d   1      58.782  49.423  51.325  0.00  0.00     0.080 A 
ATOM     24  C   UNL d   1      58.091  49.708  50.996  0.00  0.00     0.019 A 
ATOM     25  C   UNL d   1      57.585  49.209  50.585  0.00  0.00     0.003 A 
ATOM     26  C   UNL d   1      57.776  48.417  50.504  0.00  0.00     0.019 A 
ATOM     27  C   UNL d   1      56.897  49.494  50.258  0.00  0.00     0.000 C 
ATOM     28  C   UNL d   1      58.461  48.127  50.829  0.00  0.00     0.080 A 
ENDBRANCH  21  22
ENDBRANCH   5  21
TORSDOF 4
ENDMDL
