MODEL 1
REMARK VINA RESULT:      34.7      0.000      0.000
REMARK  5 active torsions:
REMARK  status: ('A' for Active; 'I' for Inactive)
REMARK       I    between atoms: C_6  and  N_1 
REMARK    1  A    between atoms: C_7  and  C_3 
REMARK    2  A    between atoms: C_8  and  C_4 
REMARK    3  A    between atoms: C_11  and  C_6 
REMARK    4  A    between atoms: C_9  and  C_17 
REMARK    5  A    between atoms: C_17  and  C_11 
ROOT
ATOM      1  N   UNL d   1      45.930 -17.085  43.068  0.00  0.00    -0.195 N 
ATOM      2  N   UNL d   1      45.829 -16.291  42.915  0.00  0.00    -0.163 NA
ATOM      3  C   UNL d   1      45.750 -15.951  43.632  0.00  0.00     0.103 A 
ATOM      4  C   UNL d   1      45.913 -17.224  43.845  0.00  0.00     0.088 A 
ATOM      5  C   UNL d   1      45.803 -16.545  44.224  0.00  0.00     0.040 A 
ATOM      6  C   UNL d   1      46.035 -17.658  42.484  0.00  0.00     0.281 C 
ATOM      7  O   UNL d   1      46.133 -18.452  42.692  0.00  0.00    -0.265 OA
ENDROOT
BRANCH   4   8
ATOM      8  C   UNL d   1      46.008 -18.019  44.109  0.00  0.00     0.018 A 
ATOM      9  C   UNL d   1      46.566 -18.162  44.710  0.00  0.00     0.002 A 
ATOM     10  C   UNL d   1      46.646 -18.930  44.953  0.00  0.00     0.007 A 
ATOM     11  C   UNL d   1      46.226 -19.539  44.651  0.00  0.00     0.035 A 
ATOM     12  C   UNL d   1      45.670 -19.384  44.048  0.00  0.00     0.007 A 
ATOM     13 BR   UNL d   1      46.358 -20.329  44.950  0.00  0.00    -0.049 Br
ATOM     14  C   UNL d   1      45.574 -18.589  43.784  0.00  0.00     0.002 A 
ENDBRANCH   4   8
BRANCH   6  15
ATOM     15  C   UNL d   1      46.040 -17.414  41.658  0.00  0.00     0.069 C 
BRANCH  15  16
ATOM     16  C   UNL d   1      46.559 -17.794  41.129  0.00  0.00     0.075 C 
BRANCH  16  17
ATOM     17  C   UNL d   1      46.271 -18.314  40.563  0.00  0.00     0.211 C 
ATOM     18  O   UNL d   1      45.748 -18.034  39.976  0.00  0.00    -0.644 OA
ATOM     19  O   UNL d   1      46.493 -19.109  40.572  0.00  0.00    -0.644 OA
ENDBRANCH  16  17
ENDBRANCH  15  16
ENDBRANCH   6  15
BRANCH   3  20
ATOM     20  C   UNL d   1      45.632 -15.160  43.856  0.00  0.00     0.019 A 
ATOM     21  C   UNL d   1      44.962 -14.941  44.268  0.00  0.00     0.002 A 
ATOM     22  C   UNL d   1      44.848 -14.156  44.489  0.00  0.00     0.007 A 
ATOM     23  C   UNL d   1      45.415 -13.589  44.292  0.00  0.00     0.035 A 
ATOM     24  C   UNL d   1      46.100 -13.803  43.872  0.00  0.00     0.007 A 
ATOM     25 BR   UNL d   1      45.317 -12.739  44.516  0.00  0.00    -0.049 Br
ATOM     26  C   UNL d   1      46.198 -14.593  43.659  0.00  0.00     0.002 A 
ENDBRANCH   3  20
TORSDOF 5
ENDMDL
