MODEL 1
REMARK VINA RESULT:      -3.6      0.000      0.000
REMARK  6 active torsions:
REMARK  status: ('A' for Active; 'I' for Inactive)
REMARK    1  A    between atoms: N_5  and  S_1 
REMARK    2  A    between atoms: C_6  and  S_1 
REMARK    3  A    between atoms: C_2  and  C_10 
REMARK       I    between atoms: N_3  and  C_2 
REMARK    4  A    between atoms: C_11  and  N_4 
REMARK    5  A    between atoms: C_17  and  N_5 
REMARK    6  A    between atoms: O_29  and  C_23 
ROOT
ATOM      1  C   UNL d   1      32.459  17.776 -24.168  0.00  0.00     0.057 A 
ATOM      2  C   UNL d   1      31.696  16.325 -23.985  0.00  0.00     0.094 A 
ATOM      3  C   UNL d   1      32.790  17.193 -23.681  0.00  0.00     0.006 A 
ATOM      4  C   UNL d   1      31.748  17.625 -24.559  0.00  0.00     0.006 A 
ATOM      5  C   UNL d   1      32.402  16.470 -23.594  0.00  0.00     0.020 A 
ATOM      6  C   UNL d   1      31.371  16.910 -24.470  0.00  0.00     0.020 A 
ENDROOT
BRANCH   1   7
ATOM      7  C   UNL d   1      32.841  18.509 -24.262  0.00  0.00     0.265 C 
ATOM      8  N   UNL d   1      32.854  19.058 -23.640  0.00  0.00    -0.269 N 
ATOM      9  C   UNL d   1      33.229  19.775 -23.735  0.00  0.00     0.102 A 
ATOM     10  C   UNL d   1      32.485  18.875 -22.926  0.00  0.00     0.102 A 
ATOM     11  C   UNL d   1      33.241  20.320 -23.116  0.00  0.00     0.100 A 
ATOM     12  N   UNL d   1      32.872  20.133 -22.407  0.00  0.00    -0.301 N 
ATOM     13  C   UNL d   1      32.496  19.416 -22.311  0.00  0.00     0.100 A 
ATOM     14  O   UNL d   1      33.209  18.688 -24.976  0.00  0.00    -0.267 OA
BRANCH  12  15
ATOM     15  C   UNL d   1      32.881  20.667 -21.797  0.00  0.00     0.064 A 
ATOM     16  C   UNL d   1      33.226  20.459 -21.077  0.00  0.00     0.020 A 
ATOM     17  C   UNL d   1      33.237  20.996 -20.458  0.00  0.00     0.026 A 
ATOM     18  C   UNL d   1      32.905  21.746 -20.552  0.00  0.00     0.094 A 
ATOM     19  C   UNL d   1      32.561  21.947 -21.281  0.00  0.00     0.026 A 
ATOM     20  C   UNL d   1      32.552  21.410 -21.892  0.00  0.00     0.020 A 
BRANCH  18  21
ATOM     21  O   UNL d   1      32.916  22.284 -19.934  0.00  0.00    -0.328 OA
ATOM     22  C   UNL d   1      32.613  23.041 -20.047  0.00  0.00     0.181 C 
ENDBRANCH  18  21
ENDBRANCH  12  15
ENDBRANCH   1   7
BRANCH   2  23
ATOM     23  N   UNL d   1      31.324  15.607 -23.891  0.00  0.00    -0.158 NA
BRANCH  23  24
ATOM     24  S   UNL d   1      30.529  15.568 -23.669  0.00  0.00     0.285 S 
ATOM     25  O   UNL d   1      30.749  15.616 -22.882  0.00  0.00    -0.198 OA
ATOM     26  O   UNL d   1      30.321  15.521 -24.463  0.00  0.00    -0.198 OA
BRANCH  24  27
ATOM     27  C   UNL d   1      29.739  15.530 -23.458  0.00  0.00     0.107 A 
ATOM     28  C   UNL d   1      29.157  15.526 -24.034  0.00  0.00     0.043 A 
ATOM     29  C   UNL d   1      28.357  15.488 -23.820  0.00  0.00     0.141 A 
ATOM     30  F   UNL d   1      27.763  15.483 -24.402  0.00  0.00    -0.204 F 
ATOM     31  C   UNL d   1      28.149  15.453 -23.021  0.00  0.00     0.030 A 
ATOM     32  C   UNL d   1      28.740  15.456 -22.437  0.00  0.00     0.003 A 
ATOM     33  C   UNL d   1      29.535  15.495 -22.659  0.00  0.00     0.013 A 
ENDBRANCH  24  27
ENDBRANCH  23  24
ENDBRANCH   2  23
TORSDOF 6
ENDMDL
MODEL 2
REMARK VINA RESULT:      -1.7      1.303      1.860
REMARK  6 active torsions:
REMARK  status: ('A' for Active; 'I' for Inactive)
REMARK    1  A    between atoms: N_5  and  S_1 
REMARK    2  A    between atoms: C_6  and  S_1 
REMARK    3  A    between atoms: C_2  and  C_10 
REMARK       I    between atoms: N_3  and  C_2 
REMARK    4  A    between atoms: C_11  and  N_4 
REMARK    5  A    between atoms: C_17  and  N_5 
REMARK    6  A    between atoms: O_29  and  C_23 
ROOT
ATOM      1  C   UNL d   1      32.980  19.734 -24.339  0.00  0.00     0.057 A 
ATOM      2  C   UNL d   1      32.733  18.104 -24.392  0.00  0.00     0.094 A 
ATOM      3  C   UNL d   1      33.240  19.256 -23.715  0.00  0.00     0.006 A 
ATOM      4  C   UNL d   1      32.598  19.390 -24.984  0.00  0.00     0.006 A 
ATOM      5  C   UNL d   1      33.113  18.441 -23.748  0.00  0.00     0.020 A 
ATOM      6  C   UNL d   1      32.475  18.587 -25.012  0.00  0.00     0.020 A 
ENDROOT
BRANCH   1   7
ATOM      7  C   UNL d   1      33.103  20.556 -24.315  0.00  0.00     0.265 C 
ATOM      8  N   UNL d   1      33.097  20.960 -23.589  0.00  0.00    -0.269 N 
ATOM      9  C   UNL d   1      33.218  21.765 -23.569  0.00  0.00     0.102 A 
ATOM     10  C   UNL d   1      32.968  20.542 -22.891  0.00  0.00     0.102 A 
ATOM     11  C   UNL d   1      33.212  22.166 -22.847  0.00  0.00     0.100 A 
ATOM     12  N   UNL d   1      33.083  21.745 -22.154  0.00  0.00    -0.301 N 
ATOM     13  C   UNL d   1      32.962  20.939 -22.174  0.00  0.00     0.100 A 
ATOM     14  O   UNL d   1      33.231  20.970 -25.014  0.00  0.00    -0.267 OA
BRANCH  12  15
ATOM     15  C   UNL d   1      33.076  22.135 -21.444  0.00  0.00     0.064 A 
ATOM     16  C   UNL d   1      33.038  21.705 -20.741  0.00  0.00     0.020 A 
ATOM     17  C   UNL d   1      33.031  22.097 -20.021  0.00  0.00     0.026 A 
ATOM     18  C   UNL d   1      33.063  22.921 -19.996  0.00  0.00     0.094 A 
ATOM     19  C   UNL d   1      33.101  23.346 -20.708  0.00  0.00     0.026 A 
ATOM     20  C   UNL d   1      33.108  22.952 -21.420  0.00  0.00     0.020 A 
BRANCH  18  21
ATOM     21  O   UNL d   1      33.056  23.314 -19.276  0.00  0.00    -0.328 OA
ATOM     22  C   UNL d   1      33.227  22.901 -18.585  0.00  0.00     0.181 C 
ENDBRANCH  18  21
ENDBRANCH  12  15
ENDBRANCH   1   7
BRANCH   2  23
ATOM     23  N   UNL d   1      32.614  17.299 -24.413  0.00  0.00    -0.158 NA
BRANCH  23  24
ATOM     24  S   UNL d   1      31.887  16.973 -24.192  0.00  0.00     0.285 S 
ATOM     25  O   UNL d   1      32.008  17.230 -23.424  0.00  0.00    -0.198 OA
ATOM     26  O   UNL d   1      31.778  16.721 -24.967  0.00  0.00    -0.198 OA
BRANCH  24  27
ATOM     27  C   UNL d   1      31.165  16.648 -23.983  0.00  0.00     0.107 A 
ATOM     28  C   UNL d   1      30.468  17.031 -24.175  0.00  0.00     0.043 A 
ATOM     29  C   UNL d   1      29.738  16.700 -23.963  0.00  0.00     0.141 A 
ATOM     30  F   UNL d   1      29.026  17.086 -24.156  0.00  0.00    -0.204 F 
ATOM     31  C   UNL d   1      29.717  15.981 -23.556  0.00  0.00     0.030 A 
ATOM     32  C   UNL d   1      30.425  15.593 -23.361  0.00  0.00     0.003 A 
ATOM     33  C   UNL d   1      31.149  15.929 -23.577  0.00  0.00     0.013 A 
ENDBRANCH  24  27
ENDBRANCH  23  24
ENDBRANCH   2  23
TORSDOF 6
ENDMDL
MODEL 3
REMARK VINA RESULT:      -0.9      1.655      2.981
REMARK  6 active torsions:
REMARK  status: ('A' for Active; 'I' for Inactive)
REMARK    1  A    between atoms: N_5  and  S_1 
REMARK    2  A    between atoms: C_6  and  S_1 
REMARK    3  A    between atoms: C_2  and  C_10 
REMARK       I    between atoms: N_3  and  C_2 
REMARK    4  A    between atoms: C_11  and  N_4 
REMARK    5  A    between atoms: C_17  and  N_5 
REMARK    6  A    between atoms: O_29  and  C_23 
ROOT
ATOM      1  C   UNL d   1      33.080  20.433 -22.978  0.00  0.00     0.057 A 
ATOM      2  C   UNL d   1      33.175  18.799 -23.187  0.00  0.00     0.094 A 
ATOM      3  C   UNL d   1      33.014  19.927 -22.324  0.00  0.00     0.006 A 
ATOM      4  C   UNL d   1      33.193  20.113 -23.730  0.00  0.00     0.006 A 
ATOM      5  C   UNL d   1      33.063  19.111 -22.437  0.00  0.00     0.020 A 
ATOM      6  C   UNL d   1      33.241  19.308 -23.835  0.00  0.00     0.020 A 
ENDROOT
BRANCH   1   7
ATOM      7  C   UNL d   1      33.032  21.256 -22.875  0.00  0.00     0.265 C 
ATOM      8  N   UNL d   1      33.061  21.586 -22.113  0.00  0.00    -0.269 N 
ATOM      9  C   UNL d   1      33.014  22.394 -22.016  0.00  0.00     0.102 A 
ATOM     10  C   UNL d   1      33.138  21.093 -21.458  0.00  0.00     0.102 A 
ATOM     11  C   UNL d   1      33.043  22.720 -21.259  0.00  0.00     0.100 A 
ATOM     12  N   UNL d   1      33.119  22.225 -20.608  0.00  0.00    -0.301 N 
ATOM     13  C   UNL d   1      33.167  21.417 -20.706  0.00  0.00     0.100 A 
ATOM     14  O   UNL d   1      32.956  21.745 -23.532  0.00  0.00    -0.267 OA
BRANCH  12  15
ATOM     15  C   UNL d   1      33.148  22.543 -19.864  0.00  0.00     0.064 A 
ATOM     16  C   UNL d   1      33.194  23.361 -19.769  0.00  0.00     0.020 A 
ATOM     17  C   UNL d   1      33.223  23.685 -19.017  0.00  0.00     0.026 A 
ATOM     18  C   UNL d   1      33.207  23.196 -18.352  0.00  0.00     0.094 A 
ATOM     19  C   UNL d   1      33.161  22.374 -18.457  0.00  0.00     0.026 A 
ATOM     20  C   UNL d   1      33.132  22.057 -19.206  0.00  0.00     0.020 A 
BRANCH  18  21
ATOM     21  O   UNL d   1      33.236  23.520 -17.599  0.00  0.00    -0.328 OA
ATOM     22  C   UNL d   1      33.001  23.069 -16.952  0.00  0.00     0.181 C 
ENDBRANCH  18  21
ENDBRANCH  12  15
ENDBRANCH   1   7
BRANCH   2  23
ATOM     23  N   UNL d   1      33.222  17.992 -23.285  0.00  0.00    -0.158 NA
BRANCH  23  24
ATOM     24  S   UNL d   1      32.567  17.559 -23.542  0.00  0.00     0.285 S 
ATOM     25  O   UNL d   1      32.588  17.958 -24.257  0.00  0.00    -0.198 OA
ATOM     26  O   UNL d   1      32.556  17.166 -22.820  0.00  0.00    -0.198 OA
BRANCH  24  27
ATOM     27  C   UNL d   1      31.917  17.125 -23.789  0.00  0.00     0.107 A 
ATOM     28  C   UNL d   1      31.341  16.902 -23.253  0.00  0.00     0.043 A 
ATOM     29  C   UNL d   1      30.684  16.464 -23.503  0.00  0.00     0.141 A 
ATOM     30  F   UNL d   1      30.096  16.235 -22.962  0.00  0.00    -0.204 F 
ATOM     31  C   UNL d   1      30.613  16.252 -24.299  0.00  0.00     0.030 A 
ATOM     32  C   UNL d   1      31.199  16.478 -24.843  0.00  0.00     0.003 A 
ATOM     33  C   UNL d   1      31.850  16.915 -24.585  0.00  0.00     0.013 A 
ENDBRANCH  24  27
ENDBRANCH  23  24
ENDBRANCH   2  23
TORSDOF 6
ENDMDL
