MODEL 1
REMARK VINA RESULT:     100.2      0.000      0.000
REMARK  6 active torsions:
REMARK  status: ('A' for Active; 'I' for Inactive)
REMARK    1  A    between atoms: C_11  and  N_4 
REMARK    2  A    between atoms: C_19  and  C_7 
REMARK    3  A    between atoms: C_17  and  C_11 
REMARK    4  A    between atoms: O_21  and  C_16 
REMARK    5  A    between atoms: C_20  and  C_17 
REMARK    6  A    between atoms: C_25  and  C_19 
ROOT
ATOM      1  C   UNL d   1      60.517  47.825  49.943  0.00  0.00     0.137 A 
ATOM      2  C   UNL d   1      61.139  47.915  50.480  0.00  0.00     0.192 A 
ATOM      3  C   UNL d   1      59.890  48.360  49.939  0.00  0.00     0.272 A 
ATOM      4  N   UNL d   1      59.883  48.986  50.473  0.00  0.00    -0.258 N 
ATOM      5  N   UNL d   1      61.134  48.538  51.012  0.00  0.00    -0.204 NA
ATOM      6  C   UNL d   1      60.525  47.195  49.408  0.00  0.00     0.205 A 
ATOM      7  C   UNL d   1      60.504  49.080  51.012  0.00  0.00     0.152 A 
ATOM      8  C   UNL d   1      61.143  46.666  49.410  0.00  0.00     0.062 A 
ATOM      9  O   UNL d   1      61.760  47.379  50.479  0.00  0.00    -0.289 OA
ATOM     10  C   UNL d   1      61.763  46.753  49.943  0.00  0.00     0.107 A 
ATOM     11  C   UNL d   1      62.395  46.211  49.944  0.00  0.00     0.049 A 
ATOM     12  C   UNL d   1      61.147  46.037  48.872  0.00  0.00     0.007 A 
ATOM     13  O   UNL d   1      59.272  48.267  49.403  0.00  0.00    -0.266 OA
ATOM     14  O   UNL d   1      59.905  47.109  48.875  0.00  0.00    -0.286 OA
ATOM     15  C   UNL d   1      62.395  45.588  49.409  0.00  0.00     0.096 A 
ATOM     16  C   UNL d   1      61.775  45.501  48.876  0.00  0.00     0.024 A 
ENDROOT
BRANCH   4  17
ATOM     17  C   UNL d   1      59.255  49.521  50.468  0.00  0.00     0.084 C 
BRANCH  17  18
ATOM     18  C   UNL d   1      58.642  49.447  49.907  0.00  0.00     0.019 C 
BRANCH  18  19
ATOM     19  C   UNL d   1      57.854  49.529  50.145  0.00  0.00     0.002 A 
ATOM     20  C   UNL d   1      57.260  49.588  49.568  0.00  0.00     0.000 A 
ATOM     21  C   UNL d   1      56.463  49.671  49.802  0.00  0.00     0.000 A 
ATOM     22  C   UNL d   1      56.267  49.693  50.608  0.00  0.00     0.000 A 
ATOM     23  C   UNL d   1      56.870  49.633  51.182  0.00  0.00     0.000 A 
ATOM     24  C   UNL d   1      57.659  49.551  50.945  0.00  0.00     0.000 A 
ENDBRANCH  18  19
ENDBRANCH  17  18
ENDBRANCH   4  17
BRANCH   7  25
ATOM     25  C   UNL d   1      60.500  49.707  51.548  0.00  0.00     0.038 C 
BRANCH  25  26
ATOM     26  C   UNL d   1      60.976  49.684  52.218  0.00  0.00     0.003 C 
ATOM     27  C   UNL d   1      60.653  49.464  52.937  0.00  0.00     0.000 C 
ENDBRANCH  25  26
ENDBRANCH   7  25
BRANCH  15  28
ATOM     28  O   UNL d   1      63.010  45.051  49.402  0.00  0.00    -0.328 OA
ATOM     29  C   UNL d   1      62.897  44.307  49.069  0.00  0.00     0.181 C 
ENDBRANCH  15  28
TORSDOF 6
ENDMDL
