MODEL 1
REMARK VINA RESULT:      -6.8      0.000      0.000
REMARK  5 active torsions:
REMARK  status: ('A' for Active; 'I' for Inactive)
REMARK    1  A    between atoms: C_4  and  S_1 
REMARK    2  A    between atoms: C_12  and  S_1 
REMARK    3  A    between atoms: C_3  and  C_6 
REMARK       I    between atoms: N_8  and  C_3 
REMARK    4  A    between atoms: C_6  and  C_4 
REMARK    5  A    between atoms: C_14  and  N_8 
ROOT
ATOM      1  C   UNL d   1     -46.656  13.897  22.737  0.00  0.00     0.280 C 
ATOM      2  N   UNL d   1     -46.451  13.289  22.213  0.00  0.00    -0.208 NA
ATOM      3  O   UNL d   1     -46.139  14.087  23.364  0.00  0.00    -0.265 OA
ENDROOT
BRANCH   1   4
ATOM      4  C   UNL d   1     -47.352  14.307  22.648  0.00  0.00     0.075 C 
BRANCH   4   5
ATOM      5  C   UNL d   1     -47.949  14.114  23.045  0.00  0.00     0.104 C 
BRANCH   5   6
ATOM      6  S   UNL d   1     -48.721  14.437  23.025  0.00  0.00     0.211 S 
ATOM      7  O   UNL d   1     -48.431  15.128  22.664  0.00  0.00    -0.217 OA
ATOM      8  O   UNL d   1     -49.012  13.734  23.392  0.00  0.00    -0.217 OA
BRANCH   6   9
ATOM      9  C   UNL d   1     -49.487  14.750  23.009  0.00  0.00     0.088 A 
ATOM     10  C   UNL d   1     -49.701  15.350  23.533  0.00  0.00     0.011 A 
ATOM     11  C   UNL d   1     -50.468  15.665  23.517  0.00  0.00     0.001 A 
ATOM     12  C   UNL d   1     -51.016  15.374  22.975  0.00  0.00     0.000 A 
ATOM     13  C   UNL d   1     -50.813  14.774  22.446  0.00  0.00     0.001 A 
ATOM     14  C   UNL d   1     -50.043  14.460  22.464  0.00  0.00     0.011 A 
ENDBRANCH   6   9
ENDBRANCH   5   6
ENDBRANCH   4   5
ENDBRANCH   1   4
BRANCH   2  15
ATOM     15  C   UNL d   1     -45.741  12.874  22.309  0.00  0.00     0.087 A 
ATOM     16  C   UNL d   1     -45.722  12.214  22.798  0.00  0.00     0.045 A 
ATOM     17  C   UNL d   1     -45.019  11.802  22.894  0.00  0.00     0.121 A 
ATOM     18  O   UNL d   1     -44.834  11.126  23.344  0.00  0.00    -0.299 OA
ATOM     19  C   UNL d   1     -44.339  12.056  22.499  0.00  0.00     0.119 A 
ATOM     20  C   UNL d   1     -44.030  10.979  23.213  0.00  0.00     0.304 A 
ATOM     21  O   UNL d   1     -43.729  11.535  22.706  0.00  0.00    -0.300 OA
ATOM     22  C   UNL d   1     -44.358  12.712  22.014  0.00  0.00     0.028 A 
ATOM     23  C   UNL d   1     -45.060  13.121  21.920  0.00  0.00     0.021 A 
ENDBRANCH   2  15
TORSDOF 5
ENDMDL
MODEL 2
REMARK VINA RESULT:      -6.8      1.512      5.448
REMARK  5 active torsions:
REMARK  status: ('A' for Active; 'I' for Inactive)
REMARK    1  A    between atoms: C_4  and  S_1 
REMARK    2  A    between atoms: C_12  and  S_1 
REMARK    3  A    between atoms: C_3  and  C_6 
REMARK       I    between atoms: N_8  and  C_3 
REMARK    4  A    between atoms: C_6  and  C_4 
REMARK    5  A    between atoms: C_14  and  N_8 
ROOT
ATOM      1  C   UNL d   1     -47.486  13.218  22.956  0.00  0.00     0.280 C 
ATOM      2  N   UNL d   1     -47.656  13.809  22.400  0.00  0.00    -0.208 NA
ATOM      3  O   UNL d   1     -48.086  12.961  23.476  0.00  0.00    -0.265 OA
ENDROOT
BRANCH   1   4
ATOM      4  C   UNL d   1     -46.744  12.887  22.999  0.00  0.00     0.075 C 
BRANCH   4   5
ATOM      5  C   UNL d   1     -46.655  12.219  23.312  0.00  0.00     0.104 C 
BRANCH   5   6
ATOM      6  S   UNL d   1     -45.977  11.728  23.319  0.00  0.00     0.211 S 
ATOM      7  O   UNL d   1     -46.457  11.051  23.268  0.00  0.00    -0.217 OA
ATOM      8  O   UNL d   1     -45.492  12.418  23.371  0.00  0.00    -0.217 OA
BRANCH   6   9
ATOM      9  C   UNL d   1     -45.302  11.250  23.327  0.00  0.00     0.088 A 
ATOM     10  C   UNL d   1     -45.325  10.507  23.686  0.00  0.00     0.011 A 
ATOM     11  C   UNL d   1     -44.649  10.026  23.695  0.00  0.00     0.001 A 
ATOM     12  C   UNL d   1     -43.955  10.294  23.343  0.00  0.00     0.000 A 
ATOM     13  C   UNL d   1     -43.920  11.035  22.980  0.00  0.00     0.001 A 
ATOM     14  C   UNL d   1     -44.599  11.515  22.973  0.00  0.00     0.011 A 
ENDBRANCH   6   9
ENDBRANCH   5   6
ENDBRANCH   4   5
ENDBRANCH   1   4
BRANCH   2  15
ATOM     15  C   UNL d   1     -48.412  14.142  22.362  0.00  0.00     0.087 A 
ATOM     16  C   UNL d   1     -49.011  13.738  21.968  0.00  0.00     0.045 A 
ATOM     17  C   UNL d   1     -49.762  14.068  21.929  0.00  0.00     0.121 A 
ATOM     18  O   UNL d   1     -50.464  13.794  21.576  0.00  0.00    -0.299 OA
ATOM     19  C   UNL d   1     -49.907  14.799  22.285  0.00  0.00     0.119 A 
ATOM     20  C   UNL d   1     -51.035  14.375  21.727  0.00  0.00     0.304 A 
ATOM     21  O   UNL d   1     -50.704  14.980  22.152  0.00  0.00    -0.300 OA
ATOM     22  C   UNL d   1     -49.312  15.199  22.675  0.00  0.00     0.028 A 
ATOM     23  C   UNL d   1     -48.565  14.869  22.713  0.00  0.00     0.021 A 
ENDBRANCH   2  15
TORSDOF 5
ENDMDL
MODEL 3
REMARK VINA RESULT:      -6.2      1.344      5.472
REMARK  5 active torsions:
REMARK  status: ('A' for Active; 'I' for Inactive)
REMARK    1  A    between atoms: C_4  and  S_1 
REMARK    2  A    between atoms: C_12  and  S_1 
REMARK    3  A    between atoms: C_3  and  C_6 
REMARK       I    between atoms: N_8  and  C_3 
REMARK    4  A    between atoms: C_6  and  C_4 
REMARK    5  A    between atoms: C_14  and  N_8 
ROOT
ATOM      1  C   UNL d   1     -47.488  13.970  22.823  0.00  0.00     0.280 C 
ATOM      2  N   UNL d   1     -47.875  14.589  22.430  0.00  0.00    -0.208 NA
ATOM      3  O   UNL d   1     -47.931  13.458  23.312  0.00  0.00    -0.265 OA
ENDROOT
BRANCH   1   4
ATOM      4  C   UNL d   1     -46.688  13.857  22.737  0.00  0.00     0.075 C 
BRANCH   4   5
ATOM      5  C   UNL d   1     -46.421  13.173  22.619  0.00  0.00     0.104 C 
BRANCH   5   6
ATOM      6  S   UNL d   1     -45.643  12.939  22.421  0.00  0.00     0.211 S 
ATOM      7  O   UNL d   1     -45.838  12.945  21.613  0.00  0.00    -0.217 OA
ATOM      8  O   UNL d   1     -45.447  12.934  23.243  0.00  0.00    -0.217 OA
BRANCH   6   9
ATOM      9  C   UNL d   1     -44.871  12.708  22.233  0.00  0.00     0.088 A 
ATOM     10  C   UNL d   1     -44.433  13.136  21.681  0.00  0.00     0.011 A 
ATOM     11  C   UNL d   1     -43.659  12.906  21.491  0.00  0.00     0.001 A 
ATOM     12  C   UNL d   1     -43.330  12.245  21.857  0.00  0.00     0.000 A 
ATOM     13  C   UNL d   1     -43.759  11.809  22.411  0.00  0.00     0.001 A 
ATOM     14  C   UNL d   1     -44.535  12.042  22.600  0.00  0.00     0.011 A 
ENDBRANCH   6   9
ENDBRANCH   5   6
ENDBRANCH   4   5
ENDBRANCH   1   4
BRANCH   2  15
ATOM     15  C   UNL d   1     -48.690  14.699  22.521  0.00  0.00     0.087 A 
ATOM     16  C   UNL d   1     -48.964  15.236  23.080  0.00  0.00     0.045 A 
ATOM     17  C   UNL d   1     -49.773  15.346  23.171  0.00  0.00     0.121 A 
ATOM     18  O   UNL d   1     -50.206  15.841  23.681  0.00  0.00    -0.299 OA
ATOM     19  C   UNL d   1     -50.300  14.916  22.702  0.00  0.00     0.119 A 
ATOM     20  C   UNL d   1     -51.004  15.702  23.509  0.00  0.00     0.304 A 
ATOM     21  O   UNL d   1     -51.064  15.147  22.921  0.00  0.00    -0.300 OA
ATOM     22  C   UNL d   1     -50.026  14.384  22.147  0.00  0.00     0.028 A 
ATOM     23  C   UNL d   1     -49.220  14.276  22.058  0.00  0.00     0.021 A 
ENDBRANCH   2  15
TORSDOF 5
ENDMDL
MODEL 4
REMARK VINA RESULT:      -4.7      8.737     10.025
REMARK  5 active torsions:
REMARK  status: ('A' for Active; 'I' for Inactive)
REMARK    1  A    between atoms: C_4  and  S_1 
REMARK    2  A    between atoms: C_12  and  S_1 
REMARK    3  A    between atoms: C_3  and  C_6 
REMARK       I    between atoms: N_8  and  C_3 
REMARK    4  A    between atoms: C_6  and  C_4 
REMARK    5  A    between atoms: C_14  and  N_8 
ROOT
ATOM      1  C   UNL d   1     -38.829  14.030  20.054  0.00  0.00     0.280 C 
ATOM      2  N   UNL d   1     -38.275  13.953  20.666  0.00  0.00    -0.208 NA
ATOM      3  O   UNL d   1     -39.580  14.355  20.221  0.00  0.00    -0.265 OA
ENDROOT
BRANCH   1   4
ATOM      4  C   UNL d   1     -38.648  13.795  19.296  0.00  0.00     0.075 C 
BRANCH   4   5
ATOM      5  C   UNL d   1     -38.990  14.114  18.719  0.00  0.00     0.104 C 
BRANCH   5   6
ATOM      6  S   UNL d   1     -38.814  14.052  17.903  0.00  0.00     0.211 S 
ATOM      7  O   UNL d   1     -39.215  13.324  17.864  0.00  0.00    -0.217 OA
ATOM      8  O   UNL d   1     -38.407  14.791  17.946  0.00  0.00    -0.217 OA
BRANCH   6   9
ATOM      9  C   UNL d   1     -38.635  13.996  17.097  0.00  0.00     0.088 A 
ATOM     10  C   UNL d   1     -38.917  14.565  16.570  0.00  0.00     0.011 A 
ATOM     11  C   UNL d   1     -38.740  14.511  15.762  0.00  0.00     0.001 A 
ATOM     12  C   UNL d   1     -38.279  13.885  15.488  0.00  0.00     0.000 A 
ATOM     13  C   UNL d   1     -37.992  13.310  16.006  0.00  0.00     0.001 A 
ATOM     14  C   UNL d   1     -38.172  13.367  16.816  0.00  0.00     0.011 A 
ENDBRANCH   6   9
ENDBRANCH   5   6
ENDBRANCH   4   5
ENDBRANCH   1   4
BRANCH   2  15
ATOM     15  C   UNL d   1     -38.465  14.194  21.434  0.00  0.00     0.087 A 
ATOM     16  C   UNL d   1     -38.280  14.957  21.675  0.00  0.00     0.045 A 
ATOM     17  C   UNL d   1     -38.467  15.197  22.438  0.00  0.00     0.121 A 
ATOM     18  O   UNL d   1     -38.350  15.922  22.830  0.00  0.00    -0.299 OA
ATOM     19  C   UNL d   1     -38.839  14.670  22.953  0.00  0.00     0.119 A 
ATOM     20  C   UNL d   1     -38.659  15.820  23.592  0.00  0.00     0.304 A 
ATOM     21  O   UNL d   1     -38.954  15.069  23.669  0.00  0.00    -0.300 OA
ATOM     22  C   UNL d   1     -39.023  13.911  22.713  0.00  0.00     0.028 A 
ATOM     23  C   UNL d   1     -38.835  13.674  21.953  0.00  0.00     0.021 A 
ENDBRANCH   2  15
TORSDOF 5
ENDMDL
MODEL 5
REMARK VINA RESULT:      -4.7      8.302      9.348
REMARK  5 active torsions:
REMARK  status: ('A' for Active; 'I' for Inactive)
REMARK    1  A    between atoms: C_4  and  S_1 
REMARK    2  A    between atoms: C_12  and  S_1 
REMARK    3  A    between atoms: C_3  and  C_6 
REMARK       I    between atoms: N_8  and  C_3 
REMARK    4  A    between atoms: C_6  and  C_4 
REMARK    5  A    between atoms: C_14  and  N_8 
ROOT
ATOM      1  C   UNL d   1     -39.179  14.995  19.343  0.00  0.00     0.280 C 
ATOM      2  N   UNL d   1     -39.684  14.505  18.906  0.00  0.00    -0.208 NA
ATOM      3  O   UNL d   1     -38.996  15.756  19.051  0.00  0.00    -0.265 OA
ENDROOT
BRANCH   1   4
ATOM      4  C   UNL d   1     -38.862  14.745  20.049  0.00  0.00     0.075 C 
BRANCH   4   5
ATOM      5  C   UNL d   1     -39.291  14.703  20.653  0.00  0.00     0.104 C 
BRANCH   5   6
ATOM      6  S   UNL d   1     -39.094  14.437  21.422  0.00  0.00     0.211 S 
ATOM      7  O   UNL d   1     -39.728  13.899  21.406  0.00  0.00    -0.217 OA
ATOM      8  O   UNL d   1     -38.451  14.984  21.434  0.00  0.00    -0.217 OA
BRANCH   6   9
ATOM      9  C   UNL d   1     -38.893  14.178  22.181  0.00  0.00     0.088 A 
ATOM     10  C   UNL d   1     -38.698  13.387  22.312  0.00  0.00     0.011 A 
ATOM     11  C   UNL d   1     -38.496  13.126  23.072  0.00  0.00     0.001 A 
ATOM     12  C   UNL d   1     -38.491  13.661  23.698  0.00  0.00     0.000 A 
ATOM     13  C   UNL d   1     -38.684  14.455  23.580  0.00  0.00     0.001 A 
ATOM     14  C   UNL d   1     -38.886  14.714  22.815  0.00  0.00     0.011 A 
ENDBRANCH   6   9
ENDBRANCH   5   6
ENDBRANCH   4   5
ENDBRANCH   1   4
BRANCH   2  15
ATOM     15  C   UNL d   1     -40.003  14.765  18.189  0.00  0.00     0.087 A 
ATOM     16  C   UNL d   1     -40.727  15.155  18.187  0.00  0.00     0.045 A 
ATOM     17  C   UNL d   1     -41.045  15.414  17.476  0.00  0.00     0.121 A 
ATOM     18  O   UNL d   1     -41.753  15.816  17.304  0.00  0.00    -0.299 OA
ATOM     19  C   UNL d   1     -40.635  15.280  16.771  0.00  0.00     0.119 A 
ATOM     20  C   UNL d   1     -41.761  15.922  16.483  0.00  0.00     0.304 A 
ATOM     21  O   UNL d   1     -41.091  15.601  16.159  0.00  0.00    -0.300 OA
ATOM     22  C   UNL d   1     -39.916  14.893  16.774  0.00  0.00     0.028 A 
ATOM     23  C   UNL d   1     -39.601  14.636  17.484  0.00  0.00     0.021 A 
ENDBRANCH   2  15
TORSDOF 5
ENDMDL
MODEL 6
REMARK VINA RESULT:      -4.3      8.112     10.372
REMARK  5 active torsions:
REMARK  status: ('A' for Active; 'I' for Inactive)
REMARK    1  A    between atoms: C_4  and  S_1 
REMARK    2  A    between atoms: C_12  and  S_1 
REMARK    3  A    between atoms: C_3  and  C_6 
REMARK       I    between atoms: N_8  and  C_3 
REMARK    4  A    between atoms: C_6  and  C_4 
REMARK    5  A    between atoms: C_14  and  N_8 
ROOT
ATOM      1  C   UNL d   1     -38.768  15.003  17.474  0.00  0.00     0.280 C 
ATOM      2  N   UNL d   1     -38.042  14.917  17.085  0.00  0.00    -0.208 NA
ATOM      3  O   UNL d   1     -39.474  14.993  17.028  0.00  0.00    -0.265 OA
ENDROOT
BRANCH   1   4
ATOM      4  C   UNL d   1     -38.801  15.098  18.281  0.00  0.00     0.075 C 
BRANCH   4   5
ATOM      5  C   UNL d   1     -39.305  14.723  18.678  0.00  0.00     0.104 C 
BRANCH   5   6
ATOM      6  S   UNL d   1     -39.402  14.690  19.508  0.00  0.00     0.211 S 
ATOM      7  O   UNL d   1     -38.733  15.173  19.614  0.00  0.00    -0.217 OA
ATOM      8  O   UNL d   1     -40.081  14.200  19.398  0.00  0.00    -0.217 OA
BRANCH   6   9
ATOM      9  C   UNL d   1     -39.504  14.653  20.328  0.00  0.00     0.088 A 
ATOM     10  C   UNL d   1     -40.201  14.929  20.672  0.00  0.00     0.011 A 
ATOM     11  C   UNL d   1     -40.305  14.892  21.495  0.00  0.00     0.001 A 
ATOM     12  C   UNL d   1     -39.707  14.578  21.966  0.00  0.00     0.000 A 
ATOM     13  C   UNL d   1     -39.005  14.299  21.633  0.00  0.00     0.001 A 
ATOM     14  C   UNL d   1     -38.904  14.337  20.808  0.00  0.00     0.011 A 
ENDBRANCH   6   9
ENDBRANCH   5   6
ENDBRANCH   4   5
ENDBRANCH   1   4
BRANCH   2  15
ATOM     15  C   UNL d   1     -38.016  14.821  16.264  0.00  0.00     0.087 A 
ATOM     16  C   UNL d   1     -38.006  14.063  15.946  0.00  0.00     0.045 A 
ATOM     17  C   UNL d   1     -37.980  13.967  15.131  0.00  0.00     0.121 A 
ATOM     18  O   UNL d   1     -37.965  13.282  14.658  0.00  0.00    -0.299 OA
ATOM     19  C   UNL d   1     -37.964  14.632  14.640  0.00  0.00     0.119 A 
ATOM     20  C   UNL d   1     -37.940  13.547  13.874  0.00  0.00     0.304 A 
ATOM     21  O   UNL d   1     -37.940  14.358  13.860  0.00  0.00    -0.300 OA
ATOM     22  C   UNL d   1     -37.975  15.384  14.958  0.00  0.00     0.028 A 
ATOM     23  C   UNL d   1     -38.000  15.478  15.769  0.00  0.00     0.021 A 
ENDBRANCH   2  15
TORSDOF 5
ENDMDL
MODEL 7
REMARK VINA RESULT:      -4.3      8.764      9.832
REMARK  5 active torsions:
REMARK  status: ('A' for Active; 'I' for Inactive)
REMARK    1  A    between atoms: C_4  and  S_1 
REMARK    2  A    between atoms: C_12  and  S_1 
REMARK    3  A    between atoms: C_3  and  C_6 
REMARK       I    between atoms: N_8  and  C_3 
REMARK    4  A    between atoms: C_6  and  C_4 
REMARK    5  A    between atoms: C_14  and  N_8 
ROOT
ATOM      1  C   UNL d   1     -38.920  14.796  19.136  0.00  0.00     0.280 C 
ATOM      2  N   UNL d   1     -38.223  14.611  18.728  0.00  0.00    -0.208 NA
ATOM      3  O   UNL d   1     -39.657  14.623  18.784  0.00  0.00    -0.265 OA
ENDROOT
BRANCH   1   4
ATOM      4  C   UNL d   1     -38.894  15.142  19.871  0.00  0.00     0.075 C 
BRANCH   4   5
ATOM      5  C   UNL d   1     -39.206  14.800  20.453  0.00  0.00     0.104 C 
BRANCH   5   6
ATOM      6  S   UNL d   1     -39.079  14.930  21.270  0.00  0.00     0.211 S 
ATOM      7  O   UNL d   1     -39.008  15.748  21.136  0.00  0.00    -0.217 OA
ATOM      8  O   UNL d   1     -39.152  14.099  21.402  0.00  0.00    -0.217 OA
BRANCH   6   9
ATOM      9  C   UNL d   1     -38.954  15.052  22.078  0.00  0.00     0.088 A 
ATOM     10  C   UNL d   1     -38.689  14.433  22.555  0.00  0.00     0.011 A 
ATOM     11  C   UNL d   1     -38.564  14.552  23.366  0.00  0.00     0.001 A 
ATOM     12  C   UNL d   1     -38.705  15.295  23.693  0.00  0.00     0.000 A 
ATOM     13  C   UNL d   1     -38.971  15.922  23.227  0.00  0.00     0.001 A 
ATOM     14  C   UNL d   1     -39.096  15.799  22.414  0.00  0.00     0.011 A 
ENDBRANCH   6   9
ENDBRANCH   5   6
ENDBRANCH   4   5
ENDBRANCH   1   4
BRANCH   2  15
ATOM     15  C   UNL d   1     -38.257  14.259  17.980  0.00  0.00     0.087 A 
ATOM     16  C   UNL d   1     -38.206  14.731  17.310  0.00  0.00     0.045 A 
ATOM     17  C   UNL d   1     -38.239  14.382  16.567  0.00  0.00     0.121 A 
ATOM     18  O   UNL d   1     -38.203  14.712  15.803  0.00  0.00    -0.299 OA
ATOM     19  C   UNL d   1     -38.323  13.563  16.502  0.00  0.00     0.119 A 
ATOM     20  C   UNL d   1     -38.266  14.074  15.278  0.00  0.00     0.304 A 
ATOM     21  O   UNL d   1     -38.338  13.383  15.694  0.00  0.00    -0.300 OA
ATOM     22  C   UNL d   1     -38.373  13.095  17.170  0.00  0.00     0.028 A 
ATOM     23  C   UNL d   1     -38.340  13.444  17.908  0.00  0.00     0.021 A 
ENDBRANCH   2  15
TORSDOF 5
ENDMDL
