MODEL 1
REMARK VINA RESULT:      37.0      0.000      0.000
REMARK  5 active torsions:
REMARK  status: ('A' for Active; 'I' for Inactive)
REMARK    1  A    between atoms: N_14  and  C_6 
REMARK    2  A    between atoms: C_20  and  N_14 
REMARK    3  A    between atoms: N_15  and  C_21 
REMARK    4  A    between atoms: C_17  and  C_20 
REMARK    5  A    between atoms: C_21  and  C_17 
ROOT
ATOM      1  N   UNL d   1      13.598  13.164  -3.100  0.00  0.00    -0.183 N 
ATOM      2  C   UNL d   1      13.551  13.494  -3.860  0.00  0.00     0.169 A 
ATOM      3  C   UNL d   1      13.768  14.272  -3.991  0.00  0.00     0.073 A 
ATOM      4  C   UNL d   1      14.033  14.718  -3.359  0.00  0.00     0.185 A 
ATOM      5  N   UNL d   1      14.080  14.387  -2.599  0.00  0.00    -0.142 NA
ATOM      6  C   UNL d   1      13.377  12.386  -2.989  0.00  0.00     0.218 A 
ATOM      7  N   UNL d   1      13.284  13.037  -4.488  0.00  0.00    -0.226 NA
ATOM      8  C   UNL d   1      13.722  14.599  -4.743  0.00  0.00     0.007 A 
ATOM      9  N   UNL d   1      14.256  15.507  -3.475  0.00  0.00    -0.225 NA
ATOM     10  C   UNL d   1      13.112  11.929  -3.607  0.00  0.00     0.071 A 
ATOM     11  C   UNL d   1      13.938  15.376  -4.874  0.00  0.00     0.019 A 
ATOM     12  C   UNL d   1      13.065  12.259  -4.367  0.00  0.00     0.087 A 
ATOM     13  C   UNL d   1      14.209  15.837  -4.235  0.00  0.00     0.083 A 
ATOM     14  C   UNL d   1      13.453  14.138  -5.373  0.00  0.00     0.000 C 
ATOM     15  C   UNL d   1      12.787  11.780  -5.017  0.00  0.00     0.021 C 
ATOM     16  C   UNL d   1      14.426  16.612  -4.359  0.00  0.00     0.021 C 
ENDROOT
BRANCH   6  17
ATOM     17  N   UNL d   1      13.429  12.053  -2.202  0.00  0.00    -0.380 NA
BRANCH  17  18
ATOM     18  C   UNL d   1      13.494  11.781  -1.408  0.00  0.00     0.164 C 
BRANCH  18  19
ATOM     19  C   UNL d   1      14.243  11.828  -1.009  0.00  0.00     0.054 C 
BRANCH  19  20
ATOM     20  C   UNL d   1      14.320  12.330  -0.322  0.00  0.00     0.083 C 
BRANCH  20  21
ATOM     21  N   UNL d   1      15.070  12.684  -0.130  0.00  0.00    -0.300 N 
ATOM     22  C   UNL d   1      15.437  11.921  -0.028  0.00  0.00     0.100 C 
ATOM     23  C   UNL d   1      15.542  13.383  -0.014  0.00  0.00     0.100 C 
ENDBRANCH  20  21
ENDBRANCH  19  20
ENDBRANCH  18  19
ENDBRANCH  17  18
ENDBRANCH   6  17
TORSDOF 5
ENDMDL
