MODEL 1
REMARK VINA RESULT:      77.5      0.000      0.000
REMARK  5 active torsions:
REMARK  status: ('A' for Active; 'I' for Inactive)
REMARK    1  A    between atoms: C_5  and  N_1 
REMARK    2  A    between atoms: C_8  and  C_3 
REMARK    3  A    between atoms: C_7  and  C_4 
REMARK    4  A    between atoms: N_12  and  C_5 
REMARK    5  A    between atoms: N_11  and  C_10 
ROOT
ATOM      1  N   UNL d   1     -48.303  29.185  34.926  0.00  0.00    -0.203 N 
ATOM      2  N   UNL d   1     -48.644  28.440  34.840  0.00  0.00    -0.163 NA
ATOM      3  C   UNL d   1     -49.166  28.448  34.256  0.00  0.00     0.103 A 
ATOM      4  C   UNL d   1     -48.627  29.688  34.368  0.00  0.00     0.087 A 
ATOM      5  C   UNL d   1     -49.179  29.234  33.932  0.00  0.00     0.040 A 
ENDROOT
BRANCH   4   6
ATOM      6  C   UNL d   1     -48.394  30.490  34.313  0.00  0.00     0.018 A 
ATOM      7  C   UNL d   1     -48.694  30.959  33.710  0.00  0.00     0.003 A 
ATOM      8  C   UNL d   1     -48.477  31.733  33.646  0.00  0.00     0.018 A 
ATOM      9  C   UNL d   1     -47.941  32.067  34.197  0.00  0.00     0.064 A 
ATOM     10  C   UNL d   1     -47.641  31.599  34.799  0.00  0.00     0.018 A 
ATOM     11  C   UNL d   1     -47.869  30.799  34.861  0.00  0.00     0.003 A 
BRANCH   9  12
ATOM     12  N   UNL d   1     -47.734  32.886  34.100  0.00  0.00    -0.301 N 
ATOM     13  C   UNL d   1     -46.923  33.086  33.994  0.00  0.00     0.100 C 
ATOM     14  C   UNL d   1     -48.211  33.521  34.094  0.00  0.00     0.100 C 
ENDBRANCH   9  12
ENDBRANCH   4   6
BRANCH   1  15
ATOM     15  C   UNL d   1     -47.713  29.401  35.498  0.00  0.00     0.222 C 
ATOM     16  S   UNL d   1     -46.895  29.386  35.266  0.00  0.00    -0.037 SA
BRANCH  15  17
ATOM     17  N   UNL d   1     -47.936  29.617  36.252  0.00  0.00    -0.214 NA
ATOM     18  C   UNL d   1     -47.355  29.784  36.849  0.00  0.00     0.122 C 
ENDBRANCH  15  17
ENDBRANCH   1  15
BRANCH   3  19
ATOM     19  C   UNL d   1     -49.608  27.794  34.020  0.00  0.00     0.019 A 
ATOM     20  C   UNL d   1     -49.375  27.013  34.224  0.00  0.00     0.002 A 
ATOM     21  C   UNL d   1     -49.817  26.360  33.989  0.00  0.00     0.007 A 
ATOM     22  C   UNL d   1     -50.494  26.490  33.549  0.00  0.00     0.035 A 
ATOM     23  C   UNL d   1     -50.741  27.257  33.338  0.00  0.00     0.007 A 
ATOM     24 BR   UNL d   1     -50.952  25.800  33.306  0.00  0.00    -0.049 Br
ATOM     25  C   UNL d   1     -50.294  27.905  33.576  0.00  0.00     0.002 A 
ENDBRANCH   3  19
TORSDOF 5
ENDMDL
MODEL 2
REMARK VINA RESULT:      77.9      2.837      5.740
REMARK  5 active torsions:
REMARK  status: ('A' for Active; 'I' for Inactive)
REMARK    1  A    between atoms: C_5  and  N_1 
REMARK    2  A    between atoms: C_8  and  C_3 
REMARK    3  A    between atoms: C_7  and  C_4 
REMARK    4  A    between atoms: N_12  and  C_5 
REMARK    5  A    between atoms: N_11  and  C_10 
ROOT
ATOM      1  N   UNL d   1     -49.390  26.251  33.947  0.00  0.00    -0.203 N 
ATOM      2  N   UNL d   1     -48.832  26.803  34.198  0.00  0.00    -0.163 NA
ATOM      3  C   UNL d   1     -49.187  27.400  34.561  0.00  0.00     0.103 A 
ATOM      4  C   UNL d   1     -50.134  26.514  34.163  0.00  0.00     0.087 A 
ATOM      5  C   UNL d   1     -50.023  27.245  34.555  0.00  0.00     0.040 A 
ENDROOT
BRANCH   4   6
ATOM      6  C   UNL d   1     -50.823  26.072  33.986  0.00  0.00     0.018 A 
ATOM      7  C   UNL d   1     -51.438  26.428  33.576  0.00  0.00     0.003 A 
ATOM      8  C   UNL d   1     -52.107  26.014  33.399  0.00  0.00     0.018 A 
ATOM      9  C   UNL d   1     -52.180  25.213  33.633  0.00  0.00     0.064 A 
ATOM     10  C   UNL d   1     -51.565  24.856  34.043  0.00  0.00     0.018 A 
ATOM     11  C   UNL d   1     -50.876  25.290  34.223  0.00  0.00     0.003 A 
BRANCH   9  12
ATOM     12  N   UNL d   1     -52.899  24.805  33.430  0.00  0.00    -0.301 N 
ATOM     13  C   UNL d   1     -53.604  25.255  33.338  0.00  0.00     0.100 C 
ATOM     14  C   UNL d   1     -53.011  24.029  33.307  0.00  0.00     0.100 C 
ENDBRANCH   9  12
ENDBRANCH   4   6
BRANCH   1  15
ATOM     15  C   UNL d   1     -49.225  25.528  33.533  0.00  0.00     0.222 C 
ATOM     16  S   UNL d   1     -49.876  25.025  33.314  0.00  0.00    -0.037 SA
BRANCH  15  17
ATOM     17  N   UNL d   1     -48.456  25.328  33.353  0.00  0.00    -0.214 NA
ATOM     18  C   UNL d   1     -48.162  24.544  33.499  0.00  0.00     0.122 C 
ENDBRANCH  15  17
ENDBRANCH   1  15
BRANCH   3  19
ATOM     19  C   UNL d   1     -48.793  28.049  34.881  0.00  0.00     0.019 A 
ATOM     20  C   UNL d   1     -48.434  28.627  34.389  0.00  0.00     0.002 A 
ATOM     21  C   UNL d   1     -48.040  29.276  34.708  0.00  0.00     0.007 A 
ATOM     22  C   UNL d   1     -48.006  29.343  35.522  0.00  0.00     0.035 A 
ATOM     23  C   UNL d   1     -48.356  28.779  36.026  0.00  0.00     0.007 A 
ATOM     24 BR   UNL d   1     -47.591  30.026  35.850  0.00  0.00    -0.049 Br
ATOM     25  C   UNL d   1     -48.748  28.135  35.700  0.00  0.00     0.002 A 
ENDBRANCH   3  19
TORSDOF 5
ENDMDL
