MODEL 1
REMARK VINA RESULT:      -4.4      0.000      0.000
REMARK  4 active torsions:
REMARK  status: ('A' for Active; 'I' for Inactive)
REMARK    1  A    between atoms: C_2  and  S_1 
REMARK    2  A    between atoms: N_3  and  S_1 
REMARK    3  A    between atoms: C_18  and  N_8 
REMARK    4  A    between atoms: C_21  and  C_18 
ROOT
ATOM      1  S   UNL d   1     -42.087-123.046 -50.031  0.00  0.00     0.271 S 
ATOM      2  O   UNL d   1     -42.652-122.446 -50.062  0.00  0.00    -0.200 OA
ATOM      3  O   UNL d   1     -41.522-123.647 -49.995  0.00  0.00    -0.200 OA
ENDROOT
BRANCH   1   4
ATOM      4  C   UNL d   1     -42.319-123.236 -49.262  0.00  0.00     0.104 A 
ATOM      5  C   UNL d   1     -43.046-123.625 -49.136  0.00  0.00     0.012 A 
ATOM      6  C   UNL d   1     -43.285-123.817 -48.370  0.00  0.00     0.001 A 
ATOM      7  C   UNL d   1     -43.527-123.817 -49.780  0.00  0.00     0.001 C 
ATOM      8  C   UNL d   1     -42.802-123.623 -47.732  0.00  0.00     0.000 A 
ATOM      9  C   UNL d   1     -42.080-123.237 -47.857  0.00  0.00     0.001 A 
ATOM     10  C   UNL d   1     -43.038-123.814 -46.965  0.00  0.00     0.000 C 
ATOM     11  C   UNL d   1     -41.843-123.045 -48.624  0.00  0.00     0.012 A 
ATOM     12  C   UNL d   1     -41.123-122.660 -48.745  0.00  0.00     0.001 C 
ENDBRANCH   1   4
BRANCH   1  13
ATOM     13  N   UNL d   1     -41.845-122.866 -50.799  0.00  0.00    -0.226 N 
ATOM     14  C   UNL d   1     -41.827-122.077 -51.048  0.00  0.00     0.111 A 
ATOM     15  C   UNL d   1     -41.586-121.897 -51.816  0.00  0.00     0.100 A 
ATOM     16  N   UNL d   1     -41.363-122.497 -52.333  0.00  0.00    -0.297 N 
ATOM     17  C   UNL d   1     -41.382-123.287 -52.080  0.00  0.00     0.100 A 
ATOM     18  C   UNL d   1     -41.623-123.475 -51.313  0.00  0.00     0.111 A 
BRANCH  16  19
ATOM     19  C   UNL d   1     -41.123-122.312 -53.100  0.00  0.00     0.126 C 
BRANCH  19  20
ATOM     20  C   UNL d   1     -41.606-122.495 -53.742  0.00  0.00     0.253 C 
ATOM     21  O   UNL d   1     -41.430-122.199 -54.491  0.00  0.00    -0.281 OA
ENDBRANCH  19  20
ENDBRANCH  16  19
ENDBRANCH   1  13
TORSDOF 4
ENDMDL
MODEL 2
REMARK VINA RESULT:      -4.3      0.173      1.096
REMARK  4 active torsions:
REMARK  status: ('A' for Active; 'I' for Inactive)
REMARK    1  A    between atoms: C_2  and  S_1 
REMARK    2  A    between atoms: N_3  and  S_1 
REMARK    3  A    between atoms: C_18  and  N_8 
REMARK    4  A    between atoms: C_21  and  C_18 
ROOT
ATOM      1  S   UNL d   1     -42.102-123.066 -49.903  0.00  0.00     0.271 S 
ATOM      2  O   UNL d   1     -42.682-122.482 -49.960  0.00  0.00    -0.200 OA
ATOM      3  O   UNL d   1     -41.524-123.651 -49.842  0.00  0.00    -0.200 OA
ENDROOT
BRANCH   1   4
ATOM      4  C   UNL d   1     -42.339-123.237 -49.131  0.00  0.00     0.104 A 
ATOM      5  C   UNL d   1     -41.846-123.029 -48.493  0.00  0.00     0.012 A 
ATOM      6  C   UNL d   1     -42.076-123.197 -47.718  0.00  0.00     0.001 A 
ATOM      7  C   UNL d   1     -41.123-122.653 -48.636  0.00  0.00     0.001 C 
ATOM      8  C   UNL d   1     -42.796-123.572 -47.581  0.00  0.00     0.000 A 
ATOM      9  C   UNL d   1     -43.288-123.779 -48.215  0.00  0.00     0.001 A 
ATOM     10  C   UNL d   1     -43.030-123.741 -46.809  0.00  0.00     0.000 C 
ATOM     11  C   UNL d   1     -43.055-123.609 -48.989  0.00  0.00     0.012 A 
ATOM     12  C   UNL d   1     -43.547-123.817 -49.619  0.00  0.00     0.001 C 
ENDBRANCH   1   4
BRANCH   1  13
ATOM     13  N   UNL d   1     -41.856-122.904 -50.673  0.00  0.00    -0.226 N 
ATOM     14  C   UNL d   1     -42.027-122.168 -51.012  0.00  0.00     0.111 A 
ATOM     15  C   UNL d   1     -41.781-122.005 -51.782  0.00  0.00     0.100 A 
ATOM     16  N   UNL d   1     -41.367-122.571 -52.214  0.00  0.00    -0.297 N 
ATOM     17  C   UNL d   1     -41.197-123.307 -51.872  0.00  0.00     0.100 A 
ATOM     18  C   UNL d   1     -41.440-123.478 -51.102  0.00  0.00     0.111 A 
BRANCH  16  19
ATOM     19  C   UNL d   1     -41.123-122.404 -52.984  0.00  0.00     0.126 C 
BRANCH  19  20
ATOM     20  C   UNL d   1     -41.676-122.356 -53.593  0.00  0.00     0.253 C 
ATOM     21  O   UNL d   1     -41.426-122.274 -54.375  0.00  0.00    -0.281 OA
ENDBRANCH  19  20
ENDBRANCH  16  19
ENDBRANCH   1  13
TORSDOF 4
ENDMDL
MODEL 3
REMARK VINA RESULT:      -4.0      1.442      4.826
REMARK  4 active torsions:
REMARK  status: ('A' for Active; 'I' for Inactive)
REMARK    1  A    between atoms: C_2  and  S_1 
REMARK    2  A    between atoms: N_3  and  S_1 
REMARK    3  A    between atoms: C_18  and  N_8 
REMARK    4  A    between atoms: C_21  and  C_18 
ROOT
ATOM      1  S   UNL d   1     -41.662-122.592 -52.866  0.00  0.00     0.271 S 
ATOM      2  O   UNL d   1     -41.128-121.964 -52.830  0.00  0.00    -0.200 OA
ATOM      3  O   UNL d   1     -42.197-123.219 -52.905  0.00  0.00    -0.200 OA
ENDROOT
BRANCH   1   4
ATOM      4  C   UNL d   1     -41.800-122.440 -53.665  0.00  0.00     0.104 A 
ATOM      5  C   UNL d   1     -41.527-122.980 -54.239  0.00  0.00     0.012 A 
ATOM      6  C   UNL d   1     -41.661-122.836 -55.040  0.00  0.00     0.001 A 
ATOM      7  C   UNL d   1     -41.123-123.662 -54.004  0.00  0.00     0.001 C 
ATOM      8  C   UNL d   1     -42.064-122.156 -55.269  0.00  0.00     0.000 A 
ATOM      9  C   UNL d   1     -42.335-121.618 -54.699  0.00  0.00     0.001 A 
ATOM     10  C   UNL d   1     -42.200-122.008 -56.069  0.00  0.00     0.000 C 
ATOM     11  C   UNL d   1     -42.200-121.766 -53.898  0.00  0.00     0.012 A 
ATOM     12  C   UNL d   1     -42.472-121.228 -53.333  0.00  0.00     0.001 C 
ENDBRANCH   1   4
BRANCH   1  13
ATOM     13  N   UNL d   1     -41.533-122.753 -52.067  0.00  0.00    -0.226 N 
ATOM     14  C   UNL d   1     -41.690-123.510 -51.771  0.00  0.00     0.111 A 
ATOM     15  C   UNL d   1     -41.561-123.671 -50.972  0.00  0.00     0.100 A 
ATOM     16  N   UNL d   1     -41.278-123.083 -50.470  0.00  0.00    -0.297 N 
ATOM     17  C   UNL d   1     -41.123-122.326 -50.770  0.00  0.00     0.100 A 
ATOM     18  C   UNL d   1     -41.249-122.157 -51.568  0.00  0.00     0.111 A 
BRANCH  16  19
ATOM     19  C   UNL d   1     -41.151-123.249 -49.672  0.00  0.00     0.126 C 
BRANCH  19  20
ATOM     20  C   UNL d   1     -41.778-123.220 -49.138  0.00  0.00     0.253 C 
ATOM     21  O   UNL d   1     -41.635-123.281 -48.328  0.00  0.00    -0.281 OA
ENDBRANCH  19  20
ENDBRANCH  16  19
ENDBRANCH   1  13
TORSDOF 4
ENDMDL
MODEL 4
REMARK VINA RESULT:      -2.5      1.595      2.488
REMARK  4 active torsions:
REMARK  status: ('A' for Active; 'I' for Inactive)
REMARK    1  A    between atoms: C_2  and  S_1 
REMARK    2  A    between atoms: N_3  and  S_1 
REMARK    3  A    between atoms: C_18  and  N_8 
REMARK    4  A    between atoms: C_21  and  C_18 
ROOT
ATOM      1  S   UNL d   1     -41.712-122.422 -52.216  0.00  0.00     0.271 S 
ATOM      2  O   UNL d   1     -41.124-122.994 -52.299  0.00  0.00    -0.200 OA
ATOM      3  O   UNL d   1     -42.301-121.850 -52.129  0.00  0.00    -0.200 OA
ENDROOT
BRANCH   1   4
ATOM      4  C   UNL d   1     -41.687-122.504 -51.396  0.00  0.00     0.104 A 
ATOM      5  C   UNL d   1     -41.962-123.208 -51.043  0.00  0.00     0.012 A 
ATOM      6  C   UNL d   1     -41.940-123.296 -50.223  0.00  0.00     0.001 A 
ATOM      7  C   UNL d   1     -42.257-123.817 -51.517  0.00  0.00     0.001 C 
ATOM      8  C   UNL d   1     -41.646-122.686 -49.756  0.00  0.00     0.000 A 
ATOM      9  C   UNL d   1     -41.373-121.986 -50.105  0.00  0.00     0.001 A 
ATOM     10  C   UNL d   1     -41.623-122.771 -48.936  0.00  0.00     0.000 C 
ATOM     11  C   UNL d   1     -41.396-121.900 -50.926  0.00  0.00     0.012 A 
ATOM     12  C   UNL d   1     -41.123-121.201 -51.271  0.00  0.00     0.001 C 
ENDBRANCH   1   4
BRANCH   1  13
ATOM     13  N   UNL d   1     -41.747-122.331 -53.036  0.00  0.00    -0.226 N 
ATOM     14  C   UNL d   1     -42.302-121.814 -53.368  0.00  0.00     0.111 A 
ATOM     15  C   UNL d   1     -42.336-121.724 -54.187  0.00  0.00     0.100 A 
ATOM     16  N   UNL d   1     -41.822-122.144 -54.673  0.00  0.00    -0.297 N 
ATOM     17  C   UNL d   1     -41.267-122.661 -54.337  0.00  0.00     0.100 A 
ATOM     18  C   UNL d   1     -41.226-122.758 -53.519  0.00  0.00     0.111 A 
BRANCH  16  19
ATOM     19  C   UNL d   1     -41.859-122.050 -55.492  0.00  0.00     0.126 C 
BRANCH  19  20
ATOM     20  C   UNL d   1     -42.521-121.704 -55.839  0.00  0.00     0.253 C 
ATOM     21  O   UNL d   1     -42.895-122.071 -56.477  0.00  0.00    -0.281 OA
ENDBRANCH  19  20
ENDBRANCH  16  19
ENDBRANCH   1  13
TORSDOF 4
ENDMDL
