MODEL 1
REMARK VINA RESULT:      18.8      0.000      0.000
REMARK  4 active torsions:
REMARK  status: ('A' for Active; 'I' for Inactive)
REMARK    1  A    between atoms: N_2  and  S_1 
REMARK    2  A    between atoms: C_3  and  S_1 
REMARK    3  A    between atoms: O_15  and  C_11 
REMARK    4  A    between atoms: O_17  and  C_13 
ROOT
ATOM      1  C   UNL d   1      13.813  12.625  -2.799  0.00  0.00     0.128 A 
ATOM      2  C   UNL d   1      13.452  12.078  -3.306  0.00  0.00     0.039 A 
ATOM      3  C   UNL d   1      13.859  13.414  -3.014  0.00  0.00     0.106 A 
ATOM      4  C   UNL d   1      13.543  13.661  -3.738  0.00  0.00     0.027 A 
ATOM      5  C   UNL d   1      13.140  12.325  -4.023  0.00  0.00     0.095 A 
ATOM      6  C   UNL d   1      13.186  13.119  -4.241  0.00  0.00     0.026 A 
ENDROOT
BRANCH   1   7
ATOM      7  S   UNL d   1      14.130  12.381  -2.074  0.00  0.00     0.274 S 
ATOM      8  O   UNL d   1      13.452  11.941  -1.918  0.00  0.00    -0.199 OA
ATOM      9  O   UNL d   1      14.809  12.823  -2.231  0.00  0.00    -0.199 OA
BRANCH   7  10
ATOM     10  N   UNL d   1      14.449  12.146  -1.361  0.00  0.00    -0.213 N 
ATOM     11  C   UNL d   1      14.031  12.019  -0.695  0.00  0.00     0.157 A 
ATOM     12  N   UNL d   1      14.561  11.785  -0.087  0.00  0.00    -0.224 NA
ATOM     13  C   UNL d   1      13.222  12.081  -0.535  0.00  0.00     0.041 C 
ATOM     14  C   UNL d   1      15.308  11.780  -0.427  0.00  0.00     0.120 A 
ATOM     15  C   UNL d   1      15.231  12.010  -1.236  0.00  0.00     0.114 A 
ENDBRANCH   7  10
ENDBRANCH   1   7
BRANCH   3  16
ATOM     16  O   UNL d   1      14.220  13.962  -2.507  0.00  0.00    -0.327 OA
ATOM     17  C   UNL d   1      14.200  14.762  -2.693  0.00  0.00     0.181 C 
ENDBRANCH   3  16
BRANCH   5  18
ATOM     18  O   UNL d   1      12.781  11.779  -4.528  0.00  0.00    -0.328 OA
ATOM     19  C   UNL d   1      12.890  11.843  -5.342  0.00  0.00     0.181 C 
ENDBRANCH   5  18
TORSDOF 4
ENDMDL
MODEL 2
REMARK VINA RESULT:      19.3      1.350      3.538
REMARK  4 active torsions:
REMARK  status: ('A' for Active; 'I' for Inactive)
REMARK    1  A    between atoms: N_2  and  S_1 
REMARK    2  A    between atoms: C_3  and  S_1 
REMARK    3  A    between atoms: O_15  and  C_11 
REMARK    4  A    between atoms: O_17  and  C_13 
ROOT
ATOM      1  C   UNL d   1      14.428  12.606  -1.666  0.00  0.00     0.128 A 
ATOM      2  C   UNL d   1      15.133  13.038  -1.598  0.00  0.00     0.039 A 
ATOM      3  C   UNL d   1      14.096  12.255  -1.005  0.00  0.00     0.106 A 
ATOM      4  C   UNL d   1      14.469  12.333  -0.269  0.00  0.00     0.027 A 
ATOM      5  C   UNL d   1      15.499  13.113  -0.868  0.00  0.00     0.095 A 
ATOM      6  C   UNL d   1      15.166  12.760  -0.201  0.00  0.00     0.026 A 
ENDROOT
BRANCH   1   7
ATOM      7  S   UNL d   1      14.054  12.527  -2.400  0.00  0.00     0.274 S 
ATOM      8  O   UNL d   1      14.396  11.785  -2.503  0.00  0.00    -0.199 OA
ATOM      9  O   UNL d   1      13.711  13.270  -2.298  0.00  0.00    -0.199 OA
BRANCH   7  10
ATOM     10  N   UNL d   1      13.682  12.457  -3.123  0.00  0.00    -0.213 N 
ATOM     11  C   UNL d   1      13.599  13.048  -3.651  0.00  0.00     0.157 A 
ATOM     12  N   UNL d   1      13.186  12.753  -4.320  0.00  0.00    -0.224 NA
ATOM     13  C   UNL d   1      13.841  13.839  -3.632  0.00  0.00     0.041 C 
ATOM     14  C   UNL d   1      13.030  11.963  -4.160  0.00  0.00     0.120 A 
ATOM     15  C   UNL d   1      13.347  11.780  -3.400  0.00  0.00     0.114 A 
ENDBRANCH   7  10
ENDBRANCH   1   7
BRANCH   3  16
ATOM     16  O   UNL d   1      13.392  11.824  -1.074  0.00  0.00    -0.327 OA
ATOM     17  C   UNL d   1      12.876  11.784  -0.435  0.00  0.00     0.181 C 
ENDBRANCH   3  16
BRANCH   5  18
ATOM     18  O   UNL d   1      16.201  13.543  -0.800  0.00  0.00    -0.328 OA
ATOM     19  C   UNL d   1      16.303  14.059  -0.167  0.00  0.00     0.181 C 
ENDBRANCH   5  18
TORSDOF 4
ENDMDL
