MODEL 1
REMARK VINA RESULT:      -0.6      0.000      0.000
REMARK  6 active torsions:
REMARK  status: ('A' for Active; 'I' for Inactive)
REMARK    1  A    between atoms: C_5  and  C_1 
REMARK    2  A    between atoms: N_8  and  C_5 
REMARK    3  A    between atoms: C_9  and  C_5 
REMARK    4  A    between atoms: C_19  and  C_7 
REMARK    5  A    between atoms: C_10  and  N_8 
REMARK    6  A    between atoms: O_20  and  C_16 
ROOT
ATOM      1  C   UNL d   1      32.308  18.257 -24.376  0.00  0.00     0.109 C 
ENDROOT
BRANCH   1   2
ATOM      2  C   UNL d   1      32.603  18.893 -23.939  0.00  0.00     0.160 A 
ATOM      3  C   UNL d   1      32.772  19.625 -24.297  0.00  0.00     0.258 A 
ATOM      4  C   UNL d   1      33.072  20.253 -23.826  0.00  0.00     0.238 A 
ATOM      5  O   UNL d   1      32.648  19.728 -25.097  0.00  0.00    -0.281 OA
ATOM      6  O   UNL d   1      33.241  20.985 -24.185  0.00  0.00    -0.283 OA
ATOM      7  C   UNL d   1      33.196  20.150 -23.025  0.00  0.00     0.073 A 
ATOM      8  C   UNL d   1      33.027  19.418 -22.667  0.00  0.00     0.146 A 
ATOM      9  O   UNL d   1      32.735  18.800 -23.114  0.00  0.00    -0.299 OA
BRANCH   8  10
ATOM     10  C   UNL d   1      33.157  19.322 -21.849  0.00  0.00     0.259 C 
ATOM     11  O   UNL d   1      32.701  19.744 -21.282  0.00  0.00    -0.281 OA
ENDBRANCH   8  10
ENDBRANCH   1   2
BRANCH   1  12
ATOM     12  N   UNL d   1      32.810  17.756 -24.803  0.00  0.00    -0.225 NA
BRANCH  12  13
ATOM     13  C   UNL d   1      32.954  16.992 -24.540  0.00  0.00     0.163 A 
ATOM     14  N   UNL d   1      33.018  16.835 -23.732  0.00  0.00    -0.225 NA
ATOM     15  C   UNL d   1      33.161  16.075 -23.472  0.00  0.00     0.101 A 
ATOM     16  C   UNL d   1      33.241  15.463 -24.016  0.00  0.00     0.021 A 
ATOM     17  C   UNL d   1      33.179  15.599 -24.828  0.00  0.00     0.005 A 
ATOM     18  C   UNL d   1      33.035  16.364 -25.091  0.00  0.00     0.039 A 
ENDBRANCH  12  13
ENDBRANCH   1  12
BRANCH   1  19
ATOM     19  C   UNL d   1      31.483  18.121 -24.384  0.00  0.00     0.020 A 
ATOM     20  C   UNL d   1      31.036  18.323 -25.047  0.00  0.00     0.004 A 
ATOM     21  C   UNL d   1      30.226  18.186 -25.048  0.00  0.00     0.024 A 
ATOM     22  C   UNL d   1      29.861  17.850 -24.390  0.00  0.00     0.094 A 
ATOM     23  C   UNL d   1      30.303  17.646 -23.724  0.00  0.00     0.024 A 
ATOM     24  C   UNL d   1      31.118  17.785 -23.726  0.00  0.00     0.004 A 
BRANCH  22  25
ATOM     25  O   UNL d   1      29.034  17.712 -24.394  0.00  0.00    -0.328 OA
ATOM     26  C   UNL d   1      28.705  17.015 -24.037  0.00  0.00     0.181 C 
ENDBRANCH  22  25
ENDBRANCH   1  19
TORSDOF 6
ENDMDL
MODEL 2
REMARK VINA RESULT:       0.7      1.621      3.701
REMARK  6 active torsions:
REMARK  status: ('A' for Active; 'I' for Inactive)
REMARK    1  A    between atoms: C_5  and  C_1 
REMARK    2  A    between atoms: N_8  and  C_5 
REMARK    3  A    between atoms: C_9  and  C_5 
REMARK    4  A    between atoms: C_19  and  C_7 
REMARK    5  A    between atoms: C_10  and  N_8 
REMARK    6  A    between atoms: O_20  and  C_16 
ROOT
ATOM      1  C   UNL d   1      31.837  17.877 -24.119  0.00  0.00     0.109 C 
ENDROOT
BRANCH   1   2
ATOM      2  C   UNL d   1      32.007  17.077 -24.001  0.00  0.00     0.160 A 
ATOM      3  C   UNL d   1      32.547  16.672 -24.487  0.00  0.00     0.258 A 
ATOM      4  C   UNL d   1      32.700  15.858 -24.342  0.00  0.00     0.238 A 
ATOM      5  O   UNL d   1      32.923  17.063 -25.097  0.00  0.00    -0.281 OA
ATOM      6  O   UNL d   1      33.240  15.453 -24.829  0.00  0.00    -0.283 OA
ATOM      7  C   UNL d   1      32.324  15.467 -23.732  0.00  0.00     0.073 A 
ATOM      8  C   UNL d   1      31.784  15.871 -23.246  0.00  0.00     0.146 A 
ATOM      9  O   UNL d   1      31.626  16.662 -23.376  0.00  0.00    -0.299 OA
BRANCH   8  10
ATOM     10  C   UNL d   1      31.404  15.464 -22.625  0.00  0.00     0.259 C 
ATOM     11  O   UNL d   1      30.592  15.596 -22.448  0.00  0.00    -0.281 OA
ENDBRANCH   8  10
ENDBRANCH   1   2
BRANCH   1  12
ATOM     12  N   UNL d   1      31.355  18.128 -24.744  0.00  0.00    -0.225 NA
BRANCH  12  13
ATOM     13  C   UNL d   1      30.544  18.004 -24.718  0.00  0.00     0.163 A 
ATOM     14  N   UNL d   1      30.048  18.566 -24.374  0.00  0.00    -0.225 NA
ATOM     15  C   UNL d   1      29.242  18.440 -24.349  0.00  0.00     0.101 A 
ATOM     16  C   UNL d   1      28.923  17.752 -24.668  0.00  0.00     0.021 A 
ATOM     17  C   UNL d   1      29.403  17.178 -25.016  0.00  0.00     0.005 A 
ATOM     18  C   UNL d   1      30.215  17.303 -25.042  0.00  0.00     0.039 A 
ENDBRANCH  12  13
ENDBRANCH   1  12
BRANCH   1  19
ATOM     19  C   UNL d   1      32.160  18.440 -23.593  0.00  0.00     0.020 A 
ATOM     20  C   UNL d   1      32.701  18.999 -23.866  0.00  0.00     0.004 A 
ATOM     21  C   UNL d   1      33.014  19.550 -23.342  0.00  0.00     0.024 A 
ATOM     22  C   UNL d   1      32.790  19.544 -22.550  0.00  0.00     0.094 A 
ATOM     23  C   UNL d   1      32.249  18.987 -22.272  0.00  0.00     0.024 A 
ATOM     24  C   UNL d   1      31.935  18.434 -22.800  0.00  0.00     0.004 A 
BRANCH  22  25
ATOM     25  O   UNL d   1      33.111  20.107 -22.019  0.00  0.00    -0.328 OA
ATOM     26  C   UNL d   1      32.843  20.913 -22.018  0.00  0.00     0.181 C 
ENDBRANCH  22  25
ENDBRANCH   1  19
TORSDOF 6
ENDMDL
MODEL 3
REMARK VINA RESULT:       1.5      1.083      3.375
REMARK  6 active torsions:
REMARK  status: ('A' for Active; 'I' for Inactive)
REMARK    1  A    between atoms: C_5  and  C_1 
REMARK    2  A    between atoms: N_8  and  C_5 
REMARK    3  A    between atoms: C_9  and  C_5 
REMARK    4  A    between atoms: C_19  and  C_7 
REMARK    5  A    between atoms: C_10  and  N_8 
REMARK    6  A    between atoms: O_20  and  C_16 
ROOT
ATOM      1  C   UNL d   1      31.248  17.890 -24.394  0.00  0.00     0.109 C 
ENDROOT
BRANCH   1   2
ATOM      2  C   UNL d   1      30.483  17.673 -24.168  0.00  0.00     0.160 A 
ATOM      3  C   UNL d   1      29.813  18.032 -24.507  0.00  0.00     0.258 A 
ATOM      4  C   UNL d   1      29.048  17.790 -24.256  0.00  0.00     0.238 A 
ATOM      5  O   UNL d   1      29.900  18.610 -25.075  0.00  0.00    -0.281 OA
ATOM      6  O   UNL d   1      28.377  18.149 -24.595  0.00  0.00    -0.283 OA
ATOM      7  C   UNL d   1      28.960  17.211 -23.687  0.00  0.00     0.073 A 
ATOM      8  C   UNL d   1      29.630  16.853 -23.348  0.00  0.00     0.146 A 
ATOM      9  O   UNL d   1      30.379  17.078 -23.583  0.00  0.00    -0.299 OA
BRANCH   8  10
ATOM     10  C   UNL d   1      29.531  16.262 -22.768  0.00  0.00     0.259 C 
ATOM     11  O   UNL d   1      28.787  16.139 -22.393  0.00  0.00    -0.281 OA
ENDBRANCH   8  10
ENDBRANCH   1   2
BRANCH   1  12
ATOM     12  N   UNL d   1      31.590  17.601 -25.090  0.00  0.00    -0.225 NA
BRANCH  12  13
ATOM     13  C   UNL d   1      32.005  16.893 -25.085  0.00  0.00     0.163 A 
ATOM     14  N   UNL d   1      32.830  16.893 -25.069  0.00  0.00    -0.225 NA
ATOM     15  C   UNL d   1      33.240  16.188 -25.064  0.00  0.00     0.101 A 
ATOM     16  C   UNL d   1      32.831  15.474 -25.075  0.00  0.00     0.021 A 
ATOM     17  C   UNL d   1      32.006  15.453 -25.092  0.00  0.00     0.005 A 
ATOM     18  C   UNL d   1      31.592  16.162 -25.097  0.00  0.00     0.039 A 
ENDBRANCH  12  13
ENDBRANCH   1  12
BRANCH   1  19
ATOM     19  C   UNL d   1      31.681  18.411 -23.905  0.00  0.00     0.020 A 
ATOM     20  C   UNL d   1      31.824  18.216 -23.116  0.00  0.00     0.004 A 
ATOM     21  C   UNL d   1      32.251  18.734 -22.641  0.00  0.00     0.024 A 
ATOM     22  C   UNL d   1      32.534  19.444 -22.951  0.00  0.00     0.094 A 
ATOM     23  C   UNL d   1      32.393  19.643 -23.738  0.00  0.00     0.024 A 
ATOM     24  C   UNL d   1      31.964  19.120 -24.214  0.00  0.00     0.004 A 
BRANCH  22  25
ATOM     25  O   UNL d   1      32.968  19.969 -22.463  0.00  0.00    -0.328 OA
ATOM     26  C   UNL d   1      33.150  19.771 -21.658  0.00  0.00     0.181 C 
ENDBRANCH  22  25
ENDBRANCH   1  19
TORSDOF 6
ENDMDL
MODEL 4
REMARK VINA RESULT:       2.3      1.357      3.676
REMARK  6 active torsions:
REMARK  status: ('A' for Active; 'I' for Inactive)
REMARK    1  A    between atoms: C_5  and  C_1 
REMARK    2  A    between atoms: N_8  and  C_5 
REMARK    3  A    between atoms: C_9  and  C_5 
REMARK    4  A    between atoms: C_19  and  C_7 
REMARK    5  A    between atoms: C_10  and  N_8 
REMARK    6  A    between atoms: O_20  and  C_16 
ROOT
ATOM      1  C   UNL d   1      31.190  16.742 -24.413  0.00  0.00     0.109 C 
ENDROOT
BRANCH   1   2
ATOM      2  C   UNL d   1      30.368  16.794 -24.479  0.00  0.00     0.160 A 
ATOM      3  C   UNL d   1      29.914  16.157 -24.760  0.00  0.00     0.258 A 
ATOM      4  C   UNL d   1      29.079  16.241 -24.815  0.00  0.00     0.238 A 
ATOM      5  O   UNL d   1      30.277  15.460 -24.980  0.00  0.00    -0.281 OA
ATOM      6  O   UNL d   1      28.625  15.602 -25.097  0.00  0.00    -0.283 OA
ATOM      7  C   UNL d   1      28.716  16.938 -24.596  0.00  0.00     0.073 A 
ATOM      8  C   UNL d   1      29.170  17.576 -24.314  0.00  0.00     0.146 A 
ATOM      9  O   UNL d   1      29.982  17.508 -24.256  0.00  0.00    -0.299 OA
BRANCH   8  10
ATOM     10  C   UNL d   1      28.790  18.284 -24.092  0.00  0.00     0.259 C 
ATOM     11  O   UNL d   1      28.201  18.294 -23.492  0.00  0.00    -0.281 OA
ENDBRANCH   8  10
ENDBRANCH   1   2
BRANCH   1  12
ATOM     12  N   UNL d   1      31.573  16.011 -24.344  0.00  0.00    -0.225 NA
BRANCH  12  13
ATOM     13  C   UNL d   1      31.989  15.825 -23.661  0.00  0.00     0.163 A 
ATOM     14  N   UNL d   1      32.806  15.715 -23.688  0.00  0.00    -0.225 NA
ATOM     15  C   UNL d   1      33.218  15.530 -23.008  0.00  0.00     0.101 A 
ATOM     16  C   UNL d   1      32.818  15.453 -22.294  0.00  0.00     0.021 A 
ATOM     17  C   UNL d   1      32.001  15.558 -22.246  0.00  0.00     0.005 A 
ATOM     18  C   UNL d   1      31.585  15.745 -22.930  0.00  0.00     0.039 A 
ENDBRANCH  12  13
ENDBRANCH   1  12
BRANCH   1  19
ATOM     19  C   UNL d   1      31.641  17.446 -24.418  0.00  0.00     0.020 A 
ATOM     20  C   UNL d   1      32.059  17.665 -25.094  0.00  0.00     0.004 A 
ATOM     21  C   UNL d   1      32.500  18.359 -25.092  0.00  0.00     0.024 A 
ATOM     22  C   UNL d   1      32.525  18.833 -24.418  0.00  0.00     0.094 A 
ATOM     23  C   UNL d   1      32.108  18.618 -23.739  0.00  0.00     0.024 A 
ATOM     24  C   UNL d   1      31.666  17.920 -23.745  0.00  0.00     0.004 A 
BRANCH  22  25
ATOM     25  O   UNL d   1      32.975  19.540 -24.419  0.00  0.00    -0.328 OA
ATOM     26  C   UNL d   1      32.648  20.269 -24.133  0.00  0.00     0.181 C 
ENDBRANCH  22  25
ENDBRANCH   1  19
TORSDOF 6
ENDMDL
