MODEL 1
REMARK VINA RESULT:      -2.2      0.000      0.000
REMARK  1 active torsions:
REMARK  status: ('A' for Active; 'I' for Inactive)
REMARK    1  A    between atoms: C_12  and  N_1 
ROOT
ATOM      1  N   UNL d   1      59.358  -9.268  33.394  0.00  0.00    -0.244 N 
ATOM      2  C   UNL d   1      59.942  -9.326  32.846  0.00  0.00     0.251 A 
ATOM      3  C   UNL d   1      58.667  -9.363  32.943  0.00  0.00     0.260 A 
ATOM      4  C   UNL d   1      58.845  -9.470  32.172  0.00  0.00     0.033 A 
ATOM      5  C   UNL d   1      59.641  -9.447  32.109  0.00  0.00     0.125 A 
ATOM      6  C   UNL d   1      58.757  -9.817  29.844  0.00  0.00     0.068 A 
ATOM      7  C   UNL d   1      59.191  -9.567  31.421  0.00  0.00    -0.010 A 
ATOM      8  C   UNL d   1      58.404  -9.626  31.231  0.00  0.00    -0.007 A 
ATOM      9  C   UNL d   1      58.192  -9.751  30.443  0.00  0.00    -0.015 A 
ATOM     10  C   UNL d   1      59.548  -9.753  30.072  0.00  0.00    -0.015 A 
ATOM     11  C   UNL d   1      59.765  -9.628  30.854  0.00  0.00    -0.007 A 
ATOM     12  O   UNL d   1      60.571  -9.274  33.032  0.00  0.00    -0.271 OA
ATOM     13  O   UNL d   1      58.060  -9.336  33.282  0.00  0.00    -0.267 OA
ATOM     14  C   UNL d   1      60.558  -9.567  31.058  0.00  0.00    -0.001 A 
ATOM     15  C   UNL d   1      57.833  -9.563  31.810  0.00  0.00    -0.001 A 
ATOM     16  C   UNL d   1      57.382  -9.815  30.232  0.00  0.00    -0.004 A 
ATOM     17  C   UNL d   1      60.124  -9.816  29.491  0.00  0.00    -0.004 A 
ATOM     18  C   UNL d   1      61.132  -9.632  30.463  0.00  0.00    -0.000 A 
ATOM     19  C   UNL d   1      57.014  -9.627  31.596  0.00  0.00    -0.000 A 
ATOM     20  C   UNL d   1      56.801  -9.753  30.805  0.00  0.00    -0.000 A 
ATOM     21  C   UNL d   1      60.916  -9.754  29.698  0.00  0.00    -0.000 A 
ENDROOT
BRANCH   1  22
ATOM     22  C   UNL d   1      59.450  -9.139  34.242  0.00  0.00     0.089 A 
ATOM     23  C   UNL d   1      59.451  -9.816  34.781  0.00  0.00     0.117 A 
ATOM     24  N   UNL d   1      59.544  -9.692  35.639  0.00  0.00    -0.241 NA
ATOM     25  C   UNL d   1      59.637  -8.880  35.961  0.00  0.00     0.099 A 
ATOM     26  C   UNL d   1      59.635  -8.208  35.416  0.00  0.00     0.022 A 
ATOM     27  C   UNL d   1      59.542  -8.338  34.553  0.00  0.00     0.021 A 
ENDBRANCH   1  22
TORSDOF 1
ENDMDL
MODEL 2
REMARK VINA RESULT:      -2.1      8.903      9.270
REMARK  1 active torsions:
REMARK  status: ('A' for Active; 'I' for Inactive)
REMARK    1  A    between atoms: C_12  and  N_1 
ROOT
ATOM      1  N   UNL d   1      57.691  -0.313  31.204  0.00  0.00    -0.244 N 
ATOM      2  C   UNL d   1      57.624  -1.033  30.853  0.00  0.00     0.251 A 
ATOM      3  C   UNL d   1      58.355   0.017  30.830  0.00  0.00     0.260 A 
ATOM      4  C   UNL d   1      58.655  -0.487  30.290  0.00  0.00     0.033 A 
ATOM      5  C   UNL d   1      58.200  -1.144  30.302  0.00  0.00     0.125 A 
ATOM      6  C   UNL d   1      59.947  -1.519  28.612  0.00  0.00     0.068 A 
ATOM      7  C   UNL d   1      58.843  -1.115  29.775  0.00  0.00    -0.010 A 
ATOM      8  C   UNL d   1      59.426  -0.585  29.582  0.00  0.00    -0.007 A 
ATOM      9  C   UNL d   1      59.976  -0.791  29.001  0.00  0.00    -0.015 A 
ATOM     10  C   UNL d   1      59.341  -2.034  28.833  0.00  0.00    -0.015 A 
ATOM     11  C   UNL d   1      58.792  -1.835  29.410  0.00  0.00    -0.007 A 
ATOM     12  O   UNL d   1      57.139  -1.440  31.032  0.00  0.00    -0.271 OA
ATOM     13  O   UNL d   1      58.546   0.656  31.030  0.00  0.00    -0.267 OA
ATOM     14  C   UNL d   1      58.197  -2.363  29.614  0.00  0.00    -0.001 A 
ATOM     15  C   UNL d   1      59.469   0.139  29.957  0.00  0.00    -0.001 A 
ATOM     16  C   UNL d   1      60.585  -0.253  28.791  0.00  0.00    -0.004 A 
ATOM     17  C   UNL d   1      59.296  -2.763  28.458  0.00  0.00    -0.004 A 
ATOM     18  C   UNL d   1      58.161  -3.097  29.228  0.00  0.00    -0.000 A 
ATOM     19  C   UNL d   1      60.085   0.682  29.743  0.00  0.00    -0.000 A 
ATOM     20  C   UNL d   1      60.636   0.476  29.160  0.00  0.00    -0.000 A 
ATOM     21  C   UNL d   1      58.701  -3.288  28.664  0.00  0.00    -0.000 A 
ENDROOT
BRANCH   1  22
ATOM     22  C   UNL d   1      57.183   0.015  31.819  0.00  0.00     0.089 A 
ATOM     23  C   UNL d   1      57.459   0.029  32.639  0.00  0.00     0.117 A 
ATOM     24  N   UNL d   1      56.950   0.360  33.266  0.00  0.00    -0.241 NA
ATOM     25  C   UNL d   1      56.156   0.680  33.068  0.00  0.00     0.099 A 
ATOM     26  C   UNL d   1      55.887   0.662  32.246  0.00  0.00     0.022 A 
ATOM     27  C   UNL d   1      56.403   0.328  31.619  0.00  0.00     0.021 A 
ENDBRANCH   1  22
TORSDOF 1
ENDMDL
MODEL 3
REMARK VINA RESULT:      -1.6      9.623     10.098
REMARK  1 active torsions:
REMARK  status: ('A' for Active; 'I' for Inactive)
REMARK    1  A    between atoms: C_12  and  N_1 
ROOT
ATOM      1  N   UNL d   1      57.093   0.136  32.147  0.00  0.00    -0.244 N 
ATOM      2  C   UNL d   1      57.858   0.227  32.374  0.00  0.00     0.251 A 
ATOM      3  C   UNL d   1      57.137   0.176  31.318  0.00  0.00     0.260 A 
ATOM      4  C   UNL d   1      57.891   0.285  31.080  0.00  0.00     0.033 A 
ATOM      5  C   UNL d   1      58.344   0.316  31.738  0.00  0.00     0.125 A 
ATOM      6  C   UNL d   1      59.856   0.594  29.819  0.00  0.00     0.068 A 
ATOM      7  C   UNL d   1      58.712   0.395  30.997  0.00  0.00    -0.010 A 
ATOM      8  C   UNL d   1      58.483   0.398  30.219  0.00  0.00    -0.007 A 
ATOM      9  C   UNL d   1      59.056   0.497  29.633  0.00  0.00    -0.015 A 
ATOM     10  C   UNL d   1      60.055   0.586  30.620  0.00  0.00    -0.015 A 
ATOM     11  C   UNL d   1      59.488   0.488  31.206  0.00  0.00    -0.007 A 
ATOM     12  O   UNL d   1      58.013   0.220  33.014  0.00  0.00    -0.271 OA
ATOM     13  O   UNL d   1      56.540   0.113  30.966  0.00  0.00    -0.267 OA
ATOM     14  C   UNL d   1      59.709   0.484  31.997  0.00  0.00    -0.001 A 
ATOM     15  C   UNL d   1      57.697   0.303  30.019  0.00  0.00    -0.001 A 
ATOM     16  C   UNL d   1      58.834   0.501  28.824  0.00  0.00    -0.004 A 
ATOM     17  C   UNL d   1      60.844   0.681  30.823  0.00  0.00    -0.004 A 
ATOM     18  C   UNL d   1      60.510   0.581  32.192  0.00  0.00    -0.000 A 
ATOM     19  C   UNL d   1      57.473   0.308  29.201  0.00  0.00    -0.000 A 
ATOM     20  C   UNL d   1      58.049   0.407  28.613  0.00  0.00    -0.000 A 
ATOM     21  C   UNL d   1      61.061   0.677  31.615  0.00  0.00    -0.000 A 
ENDROOT
BRANCH   1  22
ATOM     22  C   UNL d   1      56.408   0.025  32.659  0.00  0.00     0.089 A 
ATOM     23  C   UNL d   1      56.016  -0.745  32.689  0.00  0.00     0.117 A 
ATOM     24  N   UNL d   1      55.322  -0.864  33.205  0.00  0.00    -0.241 NA
ATOM     25  C   UNL d   1      55.018  -0.201  33.695  0.00  0.00     0.099 A 
ATOM     26  C   UNL d   1      55.415   0.567  33.660  0.00  0.00     0.022 A 
ATOM     27  C   UNL d   1      56.113   0.680  33.139  0.00  0.00     0.021 A 
ENDBRANCH   1  22
TORSDOF 1
ENDMDL
MODEL 4
REMARK VINA RESULT:      -1.3      9.589     10.198
REMARK  1 active torsions:
REMARK  status: ('A' for Active; 'I' for Inactive)
REMARK    1  A    between atoms: C_12  and  N_1 
ROOT
ATOM      1  N   UNL d   1      57.075   0.122  32.085  0.00  0.00    -0.244 N 
ATOM      2  C   UNL d   1      57.105   0.117  31.282  0.00  0.00     0.251 A 
ATOM      3  C   UNL d   1      57.868   0.246  32.301  0.00  0.00     0.260 A 
ATOM      4  C   UNL d   1      58.331   0.310  31.654  0.00  0.00     0.033 A 
ATOM      5  C   UNL d   1      57.857   0.230  31.016  0.00  0.00     0.125 A 
ATOM      6  C   UNL d   1      60.140   0.572  30.168  0.00  0.00     0.068 A 
ATOM      7  C   UNL d   1      58.670   0.354  30.895  0.00  0.00    -0.010 A 
ATOM      8  C   UNL d   1      59.328   0.461  31.357  0.00  0.00    -0.007 A 
ATOM      9  C   UNL d   1      60.060   0.569  30.991  0.00  0.00    -0.015 A 
ATOM     10  C   UNL d   1      59.451   0.461  29.728  0.00  0.00    -0.015 A 
ATOM     11  C   UNL d   1      58.720   0.353  30.087  0.00  0.00    -0.007 A 
ATOM     12  O   UNL d   1      56.553   0.029  30.934  0.00  0.00    -0.271 OA
ATOM     13  O   UNL d   1      58.010   0.276  32.982  0.00  0.00    -0.267 OA
ATOM     14  C   UNL d   1      58.047   0.244  29.629  0.00  0.00    -0.001 A 
ATOM     15  C   UNL d   1      59.266   0.460  32.171  0.00  0.00    -0.001 A 
ATOM     16  C   UNL d   1      60.749   0.681  31.456  0.00  0.00    -0.004 A 
ATOM     17  C   UNL d   1      59.510   0.461  28.910  0.00  0.00    -0.004 A 
ATOM     18  C   UNL d   1      58.118   0.246  28.803  0.00  0.00    -0.000 A 
ATOM     19  C   UNL d   1      59.964   0.573  32.641  0.00  0.00    -0.000 A 
ATOM     20  C   UNL d   1      60.699   0.682  32.273  0.00  0.00    -0.000 A 
ATOM     21  C   UNL d   1      58.835   0.352  28.455  0.00  0.00    -0.000 A 
ENDROOT
BRANCH   1  22
ATOM     22  C   UNL d   1      56.377   0.020  32.580  0.00  0.00     0.089 A 
ATOM     23  C   UNL d   1      55.832   0.682  32.694  0.00  0.00     0.117 A 
ATOM     24  N   UNL d   1      55.124   0.585  33.194  0.00  0.00    -0.241 NA
ATOM     25  C   UNL d   1      54.961  -0.185  33.585  0.00  0.00     0.099 A 
ATOM     26  C   UNL d   1      55.511  -0.842  33.468  0.00  0.00     0.022 A 
ATOM     27  C   UNL d   1      56.222  -0.739  32.963  0.00  0.00     0.021 A 
ENDBRANCH   1  22
TORSDOF 1
ENDMDL
MODEL 5
REMARK VINA RESULT:      -0.3      8.338      9.130
REMARK  1 active torsions:
REMARK  status: ('A' for Active; 'I' for Inactive)
REMARK    1  A    between atoms: C_12  and  N_1 
ROOT
ATOM      1  N   UNL d   1      59.149  -2.870  29.104  0.00  0.00    -0.244 N 
ATOM      2  C   UNL d   1      58.602  -2.488  29.553  0.00  0.00     0.251 A 
ATOM      3  C   UNL d   1      59.685  -2.265  28.909  0.00  0.00     0.260 A 
ATOM      4  C   UNL d   1      59.458  -1.571  29.229  0.00  0.00     0.033 A 
ATOM      5  C   UNL d   1      58.782  -1.708  29.633  0.00  0.00     0.125 A 
ATOM      6  C   UNL d   1      59.298   0.682  29.898  0.00  0.00     0.068 A 
ATOM      7  C   UNL d   1      59.092  -0.937  29.626  0.00  0.00    -0.010 A 
ATOM      8  C   UNL d   1      59.734  -0.560  29.304  0.00  0.00    -0.007 A 
ATOM      9  C   UNL d   1      59.834   0.248  29.442  0.00  0.00    -0.015 A 
ATOM     10  C   UNL d   1      58.656   0.268  30.210  0.00  0.00    -0.015 A 
ATOM     11  C   UNL d   1      58.552  -0.535  30.075  0.00  0.00    -0.007 A 
ATOM     12  O   UNL d   1      58.092  -2.822  29.800  0.00  0.00    -0.271 OA
ATOM     13  O   UNL d   1      60.229  -2.441  28.512  0.00  0.00    -0.267 OA
ATOM     14  C   UNL d   1      57.905  -0.927  30.396  0.00  0.00    -0.001 A 
ATOM     15  C   UNL d   1      60.273  -0.974  28.852  0.00  0.00    -0.001 A 
ATOM     16  C   UNL d   1      60.494   0.651  29.116  0.00  0.00    -0.004 A 
ATOM     17  C   UNL d   1      58.113   0.682  30.665  0.00  0.00    -0.004 A 
ATOM     18  C   UNL d   1      57.362  -0.499  30.855  0.00  0.00    -0.000 A 
ATOM     19  C   UNL d   1      60.940  -0.566  28.522  0.00  0.00    -0.000 A 
ATOM     20  C   UNL d   1      61.040   0.245  28.661  0.00  0.00    -0.000 A 
ATOM     21  C   UNL d   1      57.468   0.287  30.983  0.00  0.00    -0.000 A 
ENDROOT
BRANCH   1  22
ATOM     22  C   UNL d   1      59.156  -3.705  28.890  0.00  0.00     0.089 A 
ATOM     23  C   UNL d   1      58.412  -4.107  28.710  0.00  0.00     0.117 A 
ATOM     24  N   UNL d   1      58.413  -4.952  28.493  0.00  0.00    -0.241 NA
ATOM     25  C   UNL d   1      59.169  -5.398  28.455  0.00  0.00     0.099 A 
ATOM     26  C   UNL d   1      59.909  -4.989  28.636  0.00  0.00     0.022 A 
ATOM     27  C   UNL d   1      59.903  -4.139  28.855  0.00  0.00     0.021 A 
ENDBRANCH   1  22
TORSDOF 1
ENDMDL
MODEL 6
REMARK VINA RESULT:      -0.3      9.506     10.919
REMARK  1 active torsions:
REMARK  status: ('A' for Active; 'I' for Inactive)
REMARK    1  A    between atoms: C_12  and  N_1 
ROOT
ATOM      1  N   UNL d   1      57.333   0.115  31.742  0.00  0.00    -0.244 N 
ATOM      2  C   UNL d   1      56.550   0.174  31.913  0.00  0.00     0.251 A 
ATOM      3  C   UNL d   1      57.694   0.213  32.484  0.00  0.00     0.260 A 
ATOM      4  C   UNL d   1      57.146   0.323  33.053  0.00  0.00     0.033 A 
ATOM      5  C   UNL d   1      56.430   0.299  32.699  0.00  0.00     0.125 A 
ATOM      6  C   UNL d   1      56.027   0.682  35.095  0.00  0.00     0.068 A 
ATOM      7  C   UNL d   1      56.464   0.423  33.520  0.00  0.00    -0.010 A 
ATOM      8  C   UNL d   1      57.042   0.485  34.086  0.00  0.00    -0.007 A 
ATOM      9  C   UNL d   1      56.820   0.615  34.871  0.00  0.00    -0.015 A 
ATOM     10  C   UNL d   1      55.466   0.614  34.494  0.00  0.00    -0.015 A 
ATOM     11  C   UNL d   1      55.681   0.485  33.712  0.00  0.00    -0.007 A 
ATOM     12  O   UNL d   1      56.105   0.118  31.431  0.00  0.00    -0.271 OA
ATOM     13  O   UNL d   1      58.389   0.187  32.503  0.00  0.00    -0.267 OA
ATOM     14  C   UNL d   1      55.104   0.420  33.131  0.00  0.00    -0.001 A 
ATOM     15  C   UNL d   1      57.830   0.421  33.882  0.00  0.00    -0.001 A 
ATOM     16  C   UNL d   1      57.407   0.681  35.467  0.00  0.00    -0.004 A 
ATOM     17  C   UNL d   1      54.673   0.678  34.697  0.00  0.00    -0.004 A 
ATOM     18  C   UNL d   1      54.306   0.486  33.347  0.00  0.00    -0.000 A 
ATOM     19  C   UNL d   1      58.423   0.489  34.486  0.00  0.00    -0.000 A 
ATOM     20  C   UNL d   1      58.200   0.619  35.273  0.00  0.00    -0.000 A 
ATOM     21  C   UNL d   1      54.100   0.612  34.113  0.00  0.00    -0.000 A 
ENDROOT
BRANCH   1  22
ATOM     22  C   UNL d   1      57.688  -0.018  30.968  0.00  0.00     0.089 A 
ATOM     23  C   UNL d   1      57.766  -0.825  30.666  0.00  0.00     0.117 A 
ATOM     24  N   UNL d   1      58.125  -0.966  29.883  0.00  0.00    -0.241 NA
ATOM     25  C   UNL d   1      58.408  -0.291  29.398  0.00  0.00     0.099 A 
ATOM     26  C   UNL d   1      58.327   0.514  29.706  0.00  0.00     0.022 A 
ATOM     27  C   UNL d   1      57.965   0.650  30.495  0.00  0.00     0.021 A 
ENDBRANCH   1  22
TORSDOF 1
ENDMDL
