MODEL 1
REMARK VINA RESULT:      -4.4      0.000      0.000
REMARK  5 active torsions:
REMARK  status: ('A' for Active; 'I' for Inactive)
REMARK    1  A    between atoms: N_2  and  S_1 
REMARK    2  A    between atoms: C_8  and  S_1 
REMARK    3  A    between atoms: S_7  and  C_3 
REMARK    4  A    between atoms: C_11  and  S_7 
REMARK    5  A    between atoms: C_12  and  C_11 
ROOT
ATOM      1  N   UNL d   1      59.083   0.044  29.504  0.00  0.00    -0.208 N 
ATOM      2  C   UNL d   1      58.892   0.289  30.277  0.00  0.00     0.189 A 
ATOM      3  N   UNL d   1      59.551   0.682  30.593  0.00  0.00    -0.219 NA
ATOM      4  C   UNL d   1      59.863   0.287  29.342  0.00  0.00     0.114 A 
ATOM      5  C   UNL d   1      60.147   0.679  30.013  0.00  0.00     0.121 A 
ENDROOT
BRANCH   1   6
ATOM      6  S   UNL d   1      58.579  -0.371  28.988  0.00  0.00     0.273 S 
ATOM      7  O   UNL d   1      58.054   0.256  29.055  0.00  0.00    -0.200 OA
ATOM      8  O   UNL d   1      57.932  -0.579  28.511  0.00  0.00    -0.200 OA
BRANCH   6   9
ATOM      9  C   UNL d   1      59.097  -1.013  28.910  0.00  0.00     0.104 A 
ATOM     10  C   UNL d   1      58.865  -1.752  29.180  0.00  0.00     0.013 A 
ATOM     11  C   UNL d   1      59.380  -2.390  29.101  0.00  0.00     0.001 A 
ATOM     12  C   UNL d   1      60.120  -2.283  28.754  0.00  0.00     0.000 A 
ATOM     13  C   UNL d   1      60.346  -1.541  28.485  0.00  0.00     0.001 A 
ATOM     14  C   UNL d   1      59.826  -0.901  28.566  0.00  0.00     0.013 A 
ENDBRANCH   6   9
ENDBRANCH   1   6
BRANCH   2  15
ATOM     15  S   UNL d   1      58.165   0.160  30.666  0.00  0.00    -0.049 SA
BRANCH  15  16
ATOM     16  C   UNL d   1      58.139   0.144  31.492  0.00  0.00     0.038 C 
BRANCH  16  17
ATOM     17  C   UNL d   1      57.410   0.038  31.880  0.00  0.00     0.007 A 
ATOM     18  C   UNL d   1      57.025   0.682  32.240  0.00  0.00     0.001 A 
ATOM     19  C   UNL d   1      56.306   0.583  32.624  0.00  0.00     0.000 A 
ATOM     20  C   UNL d   1      55.961  -0.167  32.653  0.00  0.00     0.000 A 
ATOM     21  C   UNL d   1      56.342  -0.813  32.295  0.00  0.00     0.000 A 
ATOM     22  C   UNL d   1      55.239  -0.276  33.037  0.00  0.00     0.000 C 
ATOM     23  C   UNL d   1      57.065  -0.709  31.911  0.00  0.00     0.001 A 
ENDBRANCH  16  17
ENDBRANCH  15  16
ENDBRANCH   2  15
TORSDOF 5
ENDMDL
MODEL 2
REMARK VINA RESULT:      -3.2      1.120      1.438
REMARK  5 active torsions:
REMARK  status: ('A' for Active; 'I' for Inactive)
REMARK    1  A    between atoms: N_2  and  S_1 
REMARK    2  A    between atoms: C_8  and  S_1 
REMARK    3  A    between atoms: S_7  and  C_3 
REMARK    4  A    between atoms: C_11  and  S_7 
REMARK    5  A    between atoms: C_12  and  C_11 
ROOT
ATOM      1  N   UNL d   1      58.689   0.291  29.714  0.00  0.00    -0.208 N 
ATOM      2  C   UNL d   1      57.937   0.347  30.067  0.00  0.00     0.189 A 
ATOM      3  N   UNL d   1      57.396   0.588  29.485  0.00  0.00    -0.219 NA
ATOM      4  C   UNL d   1      58.612   0.500  28.911  0.00  0.00     0.114 A 
ATOM      5  C   UNL d   1      57.817   0.682  28.775  0.00  0.00     0.121 A 
ENDROOT
BRANCH   1   6
ATOM      6  S   UNL d   1      59.390   0.067  30.100  0.00  0.00     0.273 S 
ATOM      7  O   UNL d   1      59.256   0.682  30.626  0.00  0.00    -0.200 OA
ATOM      8  O   UNL d   1      60.026   0.038  30.633  0.00  0.00    -0.200 OA
BRANCH   6   9
ATOM      9  C   UNL d   1      59.543  -0.559  29.578  0.00  0.00     0.104 A 
ATOM     10  C   UNL d   1      60.088  -0.455  28.973  0.00  0.00     0.013 A 
ATOM     11  C   UNL d   1      60.238  -1.078  28.455  0.00  0.00     0.001 A 
ATOM     12  C   UNL d   1      59.845  -1.796  28.546  0.00  0.00     0.000 A 
ATOM     13  C   UNL d   1      59.300  -1.894  29.154  0.00  0.00     0.001 A 
ATOM     14  C   UNL d   1      59.151  -1.266  29.673  0.00  0.00     0.013 A 
ENDBRANCH   6   9
ENDBRANCH   1   6
BRANCH   2  15
ATOM     15  S   UNL d   1      57.758   0.187  30.866  0.00  0.00    -0.049 SA
BRANCH  15  16
ATOM     16  C   UNL d   1      57.063  -0.219  31.058  0.00  0.00     0.038 C 
BRANCH  16  17
ATOM     17  C   UNL d   1      56.736  -0.141  31.820  0.00  0.00     0.007 A 
ATOM     18  C   UNL d   1      56.778   0.585  32.224  0.00  0.00     0.001 A 
ATOM     19  C   UNL d   1      56.457   0.668  32.976  0.00  0.00     0.000 A 
ATOM     20  C   UNL d   1      56.089   0.021  33.335  0.00  0.00     0.000 A 
ATOM     21  C   UNL d   1      56.046  -0.706  32.934  0.00  0.00     0.000 A 
ATOM     22  C   UNL d   1      55.765   0.095  34.089  0.00  0.00     0.000 C 
ATOM     23  C   UNL d   1      56.369  -0.784  32.179  0.00  0.00     0.001 A 
ENDBRANCH  16  17
ENDBRANCH  15  16
ENDBRANCH   2  15
TORSDOF 5
ENDMDL
MODEL 3
REMARK VINA RESULT:      -3.1      1.928      4.820
REMARK  5 active torsions:
REMARK  status: ('A' for Active; 'I' for Inactive)
REMARK    1  A    between atoms: N_2  and  S_1 
REMARK    2  A    between atoms: C_8  and  S_1 
REMARK    3  A    between atoms: S_7  and  C_3 
REMARK    4  A    between atoms: C_11  and  S_7 
REMARK    5  A    between atoms: C_12  and  C_11 
ROOT
ATOM      1  N   UNL d   1      56.933  -0.182  33.049  0.00  0.00    -0.208 N 
ATOM      2  C   UNL d   1      57.431   0.147  32.468  0.00  0.00     0.189 A 
ATOM      3  N   UNL d   1      57.945   0.682  32.841  0.00  0.00    -0.219 NA
ATOM      4  C   UNL d   1      57.140   0.152  33.784  0.00  0.00     0.114 A 
ATOM      5  C   UNL d   1      57.761   0.682  33.651  0.00  0.00     0.121 A 
ENDROOT
BRANCH   1   6
ATOM      6  S   UNL d   1      56.336  -0.744  32.914  0.00  0.00     0.273 S 
ATOM      7  O   UNL d   1      56.902  -1.202  32.536  0.00  0.00    -0.200 OA
ATOM      8  O   UNL d   1      55.933  -1.426  32.668  0.00  0.00    -0.200 OA
BRANCH   6   9
ATOM      9  C   UNL d   1      55.751  -0.295  33.292  0.00  0.00     0.104 A 
ATOM     10  C   UNL d   1      55.305   0.236  32.854  0.00  0.00     0.013 A 
ATOM     11  C   UNL d   1      54.723   0.682  33.231  0.00  0.00     0.001 A 
ATOM     12  C   UNL d   1      54.594   0.593  34.040  0.00  0.00     0.000 A 
ATOM     13  C   UNL d   1      55.044   0.060  34.473  0.00  0.00     0.001 A 
ATOM     14  C   UNL d   1      55.628  -0.387  34.092  0.00  0.00     0.013 A 
ENDBRANCH   6   9
ENDBRANCH   1   6
BRANCH   2  15
ATOM     15  S   UNL d   1      57.417  -0.031  31.653  0.00  0.00    -0.049 SA
BRANCH  15  16
ATOM     16  C   UNL d   1      57.729   0.508  31.110  0.00  0.00     0.038 C 
BRANCH  16  17
ATOM     17  C   UNL d   1      58.158   0.230  30.452  0.00  0.00     0.007 A 
ATOM     18  C   UNL d   1      58.888   0.574  30.248  0.00  0.00     0.001 A 
ATOM     19  C   UNL d   1      59.315   0.303  29.600  0.00  0.00     0.000 A 
ATOM     20  C   UNL d   1      59.014  -0.318  29.146  0.00  0.00     0.000 A 
ATOM     21  C   UNL d   1      58.285  -0.664  29.347  0.00  0.00     0.000 A 
ATOM     22  C   UNL d   1      59.436  -0.596  28.494  0.00  0.00     0.000 C 
ATOM     23  C   UNL d   1      57.861  -0.389  29.998  0.00  0.00     0.001 A 
ENDBRANCH  16  17
ENDBRANCH  15  16
ENDBRANCH   2  15
TORSDOF 5
ENDMDL
MODEL 4
REMARK VINA RESULT:      -1.7      1.503      4.415
REMARK  5 active torsions:
REMARK  status: ('A' for Active; 'I' for Inactive)
REMARK    1  A    between atoms: N_2  and  S_1 
REMARK    2  A    between atoms: C_8  and  S_1 
REMARK    3  A    between atoms: S_7  and  C_3 
REMARK    4  A    between atoms: C_11  and  S_7 
REMARK    5  A    between atoms: C_12  and  C_11 
ROOT
ATOM      1  N   UNL d   1      57.242   0.401  31.568  0.00  0.00    -0.208 N 
ATOM      2  C   UNL d   1      57.593   0.337  30.815  0.00  0.00     0.189 A 
ATOM      3  N   UNL d   1      57.016   0.511  30.245  0.00  0.00    -0.219 NA
ATOM      4  C   UNL d   1      56.444   0.616  31.461  0.00  0.00     0.114 A 
ATOM      5  C   UNL d   1      56.309   0.682  30.647  0.00  0.00     0.121 A 
ENDROOT
BRANCH   1   6
ATOM      6  S   UNL d   1      57.624   0.273  32.294  0.00  0.00     0.273 S 
ATOM      7  O   UNL d   1      58.267   0.681  31.988  0.00  0.00    -0.200 OA
ATOM      8  O   UNL d   1      58.190   0.274  32.902  0.00  0.00    -0.200 OA
BRANCH   6   9
ATOM      9  C   UNL d   1      56.985  -0.141  32.621  0.00  0.00     0.104 A 
ATOM     10  C   UNL d   1      56.512   0.226  33.182  0.00  0.00     0.013 A 
ATOM     11  C   UNL d   1      55.877  -0.187  33.506  0.00  0.00     0.001 A 
ATOM     12  C   UNL d   1      55.722  -0.961  33.268  0.00  0.00     0.000 A 
ATOM     13  C   UNL d   1      56.199  -1.323  32.706  0.00  0.00     0.001 A 
ATOM     14  C   UNL d   1      56.837  -0.905  32.382  0.00  0.00     0.013 A 
ENDBRANCH   6   9
ENDBRANCH   1   6
BRANCH   2  15
ATOM     15  S   UNL d   1      58.388   0.133  30.662  0.00  0.00    -0.049 SA
BRANCH  15  16
ATOM     16  C   UNL d   1      58.671   0.141  29.885  0.00  0.00     0.038 C 
BRANCH  16  17
ATOM     17  C   UNL d   1      59.285  -0.376  29.664  0.00  0.00     0.007 A 
ATOM     18  C   UNL d   1      60.079  -0.171  29.800  0.00  0.00     0.001 A 
ATOM     19  C   UNL d   1      60.689  -0.677  29.585  0.00  0.00     0.000 A 
ATOM     20  C   UNL d   1      60.509  -1.401  29.228  0.00  0.00     0.000 A 
ATOM     21  C   UNL d   1      59.716  -1.609  29.090  0.00  0.00     0.000 A 
ATOM     22  C   UNL d   1      61.115  -1.915  29.008  0.00  0.00     0.000 C 
ATOM     23  C   UNL d   1      59.108  -1.097  29.309  0.00  0.00     0.001 A 
ENDBRANCH  16  17
ENDBRANCH  15  16
ENDBRANCH   2  15
TORSDOF 5
ENDMDL
