MODEL 1
REMARK VINA RESULT:      39.1      0.000      0.000
REMARK  5 active torsions:
REMARK  status: ('A' for Active; 'I' for Inactive)
REMARK    1  A    between atoms: C_9  and  N_2 
REMARK    2  A    between atoms: C_8  and  O_11 
REMARK    3  A    between atoms: C_12  and  C_9 
REMARK    4  A    between atoms: O_11  and  C_15 
REMARK    5  A    between atoms: C_15  and  C_12 
ROOT
ATOM      1  C   UNL d   1      59.670  49.138  50.998  0.00  0.00     0.087 C 
ENDROOT
BRANCH   1   2
ATOM      2  N   UNL d   1      60.469  49.286  51.150  0.00  0.00    -0.251 N 
ATOM      3  C   UNL d   1      60.946  49.322  50.473  0.00  0.00     0.378 A 
ATOM      4  O   UNL d   1      61.723  49.471  50.696  0.00  0.00    -0.258 OA
ATOM      5  O   UNL d   1      60.679  49.222  49.694  0.00  0.00    -0.237 OA
ATOM      6  C   UNL d   1      61.732  49.530  51.536  0.00  0.00     0.121 A 
ATOM      7  C   UNL d   1      62.344  49.673  52.071  0.00  0.00     0.026 A 
ATOM      8  C   UNL d   1      60.965  49.417  51.806  0.00  0.00     0.092 A 
ATOM      9  C   UNL d   1      62.180  49.701  52.884  0.00  0.00     0.002 A 
ATOM     10  C   UNL d   1      61.413  49.587  53.153  0.00  0.00     0.002 A 
ATOM     11  C   UNL d   1      60.799  49.444  52.615  0.00  0.00     0.020 A 
ENDBRANCH   1   2
BRANCH   1  12
ATOM     12  C   UNL d   1      59.101  49.658  51.268  0.00  0.00     0.046 C 
BRANCH  12  13
ATOM     13  C   UNL d   1      58.372  49.705  50.879  0.00  0.00     0.124 C 
BRANCH  13  14
ATOM     14  O   UNL d   1      58.113  49.070  50.421  0.00  0.00    -0.304 OA
BRANCH  14  15
ATOM     15  C   UNL d   1      57.416  49.141  49.974  0.00  0.00     0.111 A 
ATOM     16  C   UNL d   1      56.723  48.774  50.226  0.00  0.00     0.080 A 
ATOM     17 CL   UNL d   1      56.711  48.333  50.923  0.00  0.00    -0.080 Cl
ATOM     18  C   UNL d   1      56.034  48.847  49.781  0.00  0.00     0.013 A 
ATOM     19  C   UNL d   1      56.038  49.282  49.090  0.00  0.00     0.001 A 
ATOM     20  C   UNL d   1      56.731  49.653  48.830  0.00  0.00     0.002 A 
ATOM     21  C   UNL d   1      57.420  49.580  49.276  0.00  0.00     0.026 A 
ENDBRANCH  14  15
ENDBRANCH  13  14
ENDBRANCH  12  13
ENDBRANCH   1  12
TORSDOF 5
ENDMDL
MODEL 2
REMARK VINA RESULT:      41.7      1.496      1.858
REMARK  5 active torsions:
REMARK  status: ('A' for Active; 'I' for Inactive)
REMARK    1  A    between atoms: C_9  and  N_2 
REMARK    2  A    between atoms: C_8  and  O_11 
REMARK    3  A    between atoms: C_12  and  C_9 
REMARK    4  A    between atoms: O_11  and  C_15 
REMARK    5  A    between atoms: C_15  and  C_12 
ROOT
ATOM      1  C   UNL d   1      59.986  49.020  51.189  0.00  0.00     0.087 C 
ENDROOT
BRANCH   1   2
ATOM      2  N   UNL d   1      60.547  48.503  50.870  0.00  0.00    -0.251 N 
ATOM      3  C   UNL d   1      61.123  48.870  50.401  0.00  0.00     0.378 A 
ATOM      4  O   UNL d   1      61.645  48.301  50.119  0.00  0.00    -0.258 OA
ATOM      5  O   UNL d   1      61.164  49.684  50.242  0.00  0.00    -0.237 OA
ATOM      6  C   UNL d   1      61.388  47.558  50.420  0.00  0.00     0.121 A 
ATOM      7  C   UNL d   1      61.687  46.794  50.328  0.00  0.00     0.026 A 
ATOM      8  C   UNL d   1      60.718  47.688  50.877  0.00  0.00     0.092 A 
ATOM      9  C   UNL d   1      61.307  46.158  50.701  0.00  0.00     0.002 A 
ATOM     10  C   UNL d   1      60.637  46.289  51.158  0.00  0.00     0.002 A 
ATOM     11  C   UNL d   1      60.338  47.057  51.249  0.00  0.00     0.020 A 
ENDBRANCH   1   2
BRANCH   1  12
ATOM     12  C   UNL d   1      59.591  49.543  50.701  0.00  0.00     0.046 C 
BRANCH  12  13
ATOM     13  C   UNL d   1      58.842  49.346  50.410  0.00  0.00     0.124 C 
BRANCH  13  14
ATOM     14  O   UNL d   1      58.172  49.708  50.729  0.00  0.00    -0.304 OA
BRANCH  14  15
ATOM     15  C   UNL d   1      57.459  49.702  50.303  0.00  0.00     0.111 A 
ATOM     16  C   UNL d   1      56.739  49.692  50.702  0.00  0.00     0.080 A 
ATOM     17 CL   UNL d   1      56.716  49.686  51.527  0.00  0.00    -0.080 Cl
ATOM     18  C   UNL d   1      56.033  49.686  50.277  0.00  0.00     0.013 A 
ATOM     19  C   UNL d   1      56.048  49.692  49.461  0.00  0.00     0.001 A 
ATOM     20  C   UNL d   1      56.769  49.702  49.053  0.00  0.00     0.002 A 
ATOM     21  C   UNL d   1      57.474  49.708  49.479  0.00  0.00     0.026 A 
ENDBRANCH  14  15
ENDBRANCH  13  14
ENDBRANCH  12  13
ENDBRANCH   1  12
TORSDOF 5
ENDMDL
