MODEL 1
REMARK VINA RESULT:      -8.1      0.000      0.000
REMARK  4 active torsions:
REMARK  status: ('A' for Active; 'I' for Inactive)
REMARK    1  A    between atoms: C_3  and  S_1 
REMARK    2  A    between atoms: N_5  and  S_1 
REMARK    3  A    between atoms: C_11  and  N_5 
REMARK    4  A    between atoms: C_21  and  N_5 
ROOT
ATOM      1  N   UNL d   1      48.142  35.398  51.936  0.00  0.00    -0.273 N 
ATOM      2  C   UNL d   1      50.252  34.357  52.672  0.00  0.00     0.104 A 
ATOM      3  C   UNL d   1      48.843  35.051  52.178  0.00  0.00     0.067 A 
ATOM      4  C   UNL d   1      49.132  35.206  52.931  0.00  0.00     0.017 A 
ATOM      5  C   UNL d   1      49.257  34.550  51.670  0.00  0.00     0.017 A 
ATOM      6  C   UNL d   1      47.729  35.899  52.444  0.00  0.00     0.265 A 
ATOM      7  C   UNL d   1      49.838  34.859  53.180  0.00  0.00     0.014 A 
ATOM      8  C   UNL d   1      49.959  34.203  51.916  0.00  0.00     0.014 A 
ATOM      9  C   UNL d   1      48.718  35.708  53.439  0.00  0.00     0.006 A 
ATOM     10  C   UNL d   1      48.015  36.055  53.193  0.00  0.00     0.061 A 
ATOM     11  O   UNL d   1      47.012  36.253  52.194  0.00  0.00    -0.267 OA
ATOM     12  C   UNL d   1      47.850  35.243  51.179  0.00  0.00     0.083 A 
ATOM     13  C   UNL d   1      48.970  34.394  50.921  0.00  0.00     0.003 A 
ATOM     14  C   UNL d   1      48.264  34.742  50.672  0.00  0.00     0.019 A 
ENDROOT
BRANCH   2  15
ATOM     15  S   UNL d   1      50.961  34.009  52.924  0.00  0.00     0.271 S 
ATOM     16  O   UNL d   1      51.354  34.297  52.252  0.00  0.00    -0.200 OA
ATOM     17  O   UNL d   1      50.573  33.718  53.600  0.00  0.00    -0.200 OA
BRANCH  15  18
ATOM     18  N   UNL d   1      51.675  33.658  53.181  0.00  0.00    -0.231 N 
BRANCH  18  19
ATOM     19  C   UNL d   1      52.285  34.121  53.478  0.00  0.00     0.075 A 
ATOM     20  C   UNL d   1      52.520  34.029  54.263  0.00  0.00     0.018 A 
ATOM     21  C   UNL d   1      53.126  34.484  54.568  0.00  0.00     0.002 A 
ATOM     22  C   UNL d   1      53.364  34.391  55.363  0.00  0.00     0.000 C 
ATOM     23  C   UNL d   1      53.504  35.038  54.088  0.00  0.00     0.000 A 
ATOM     24  C   UNL d   1      53.270  35.130  53.302  0.00  0.00     0.002 A 
ATOM     25  C   UNL d   1      52.659  34.667  53.006  0.00  0.00     0.018 A 
ENDBRANCH  18  19
BRANCH  18  26
ATOM     26  C   UNL d   1      51.770  32.840  53.139  0.00  0.00     0.092 C 
ATOM     27  C   UNL d   1      52.232  32.509  52.539  0.00  0.00     0.021 C 
ENDBRANCH  18  26
ENDBRANCH  15  18
ENDBRANCH   2  15
TORSDOF 4
ENDMDL
MODEL 2
REMARK VINA RESULT:      -7.9      3.405      5.165
REMARK  4 active torsions:
REMARK  status: ('A' for Active; 'I' for Inactive)
REMARK    1  A    between atoms: C_3  and  S_1 
REMARK    2  A    between atoms: N_5  and  S_1 
REMARK    3  A    between atoms: C_11  and  N_5 
REMARK    4  A    between atoms: C_21  and  N_5 
ROOT
ATOM      1  N   UNL d   1      53.508  34.528  54.474  0.00  0.00    -0.273 N 
ATOM      2  C   UNL d   1      53.420  32.183  53.723  0.00  0.00     0.104 A 
ATOM      3  C   UNL d   1      53.480  33.749  54.227  0.00  0.00     0.067 A 
ATOM      4  C   UNL d   1      52.954  33.531  53.635  0.00  0.00     0.017 A 
ATOM      5  C   UNL d   1      53.977  33.186  54.568  0.00  0.00     0.017 A 
ATOM      6  C   UNL d   1      53.011  35.092  54.133  0.00  0.00     0.265 A 
ATOM      7  C   UNL d   1      52.923  32.746  53.382  0.00  0.00     0.014 A 
ATOM      8  C   UNL d   1      53.947  32.405  54.318  0.00  0.00     0.014 A 
ATOM      9  C   UNL d   1      52.458  34.095  53.293  0.00  0.00     0.006 A 
ATOM     10  C   UNL d   1      52.487  34.876  53.544  0.00  0.00     0.061 A 
ATOM     11  O   UNL d   1      53.040  35.889  54.388  0.00  0.00    -0.267 OA
ATOM     12  C   UNL d   1      54.036  34.750  55.069  0.00  0.00     0.083 A 
ATOM     13  C   UNL d   1      54.501  33.402  55.157  0.00  0.00     0.003 A 
ATOM     14  C   UNL d   1      54.532  34.186  55.411  0.00  0.00     0.019 A 
ENDROOT
BRANCH   2  15
ATOM     15  S   UNL d   1      53.387  31.395  53.467  0.00  0.00     0.271 S 
ATOM     16  O   UNL d   1      52.569  31.459  53.341  0.00  0.00    -0.200 OA
ATOM     17  O   UNL d   1      54.206  31.324  53.591  0.00  0.00    -0.200 OA
BRANCH  15  18
ATOM     18  N   UNL d   1      53.356  30.600  53.209  0.00  0.00    -0.231 N 
BRANCH  18  19
ATOM     19  C   UNL d   1      53.057  30.013  53.700  0.00  0.00     0.075 A 
ATOM     20  C   UNL d   1      53.578  29.548  54.139  0.00  0.00     0.018 A 
ATOM     21  C   UNL d   1      53.291  28.961  54.631  0.00  0.00     0.002 A 
ATOM     22  C   UNL d   1      53.818  28.490  55.076  0.00  0.00     0.000 C 
ATOM     23  C   UNL d   1      52.478  28.834  54.687  0.00  0.00     0.000 A 
ATOM     24  C   UNL d   1      51.957  29.300  54.247  0.00  0.00     0.002 A 
ATOM     25  C   UNL d   1      52.256  29.886  53.756  0.00  0.00     0.018 A 
ENDBRANCH  18  19
BRANCH  18  26
ATOM     26  C   UNL d   1      53.627  30.400  52.457  0.00  0.00     0.092 C 
ATOM     27  C   UNL d   1      53.088  30.224  51.857  0.00  0.00     0.021 C 
ENDBRANCH  18  26
ENDBRANCH  15  18
ENDBRANCH   2  15
TORSDOF 4
ENDMDL
MODEL 3
REMARK VINA RESULT:      -7.9      3.496      5.528
REMARK  4 active torsions:
REMARK  status: ('A' for Active; 'I' for Inactive)
REMARK    1  A    between atoms: C_3  and  S_1 
REMARK    2  A    between atoms: N_5  and  S_1 
REMARK    3  A    between atoms: C_11  and  N_5 
REMARK    4  A    between atoms: C_21  and  N_5 
ROOT
ATOM      1  N   UNL d   1      53.115  29.528  53.847  0.00  0.00    -0.273 N 
ATOM      2  C   UNL d   1      53.740  31.897  54.116  0.00  0.00     0.104 A 
ATOM      3  C   UNL d   1      53.322  30.315  53.934  0.00  0.00     0.067 A 
ATOM      4  C   UNL d   1      53.585  30.585  54.663  0.00  0.00     0.017 A 
ATOM      5  C   UNL d   1      53.267  30.833  53.294  0.00  0.00     0.017 A 
ATOM      6  C   UNL d   1      53.170  29.010  54.486  0.00  0.00     0.265 A 
ATOM      7  C   UNL d   1      53.796  31.379  54.755  0.00  0.00     0.014 A 
ATOM      8  C   UNL d   1      53.475  31.622  53.384  0.00  0.00     0.014 A 
ATOM      9  C   UNL d   1      53.640  30.067  55.303  0.00  0.00     0.006 A 
ATOM     10  C   UNL d   1      53.432  29.278  55.213  0.00  0.00     0.061 A 
ATOM     11  O   UNL d   1      52.957  28.205  54.395  0.00  0.00    -0.267 OA
ATOM     12  C   UNL d   1      52.849  29.254  53.115  0.00  0.00     0.083 A 
ATOM     13  C   UNL d   1      53.004  30.565  52.568  0.00  0.00     0.003 A 
ATOM     14  C   UNL d   1      52.794  29.773  52.475  0.00  0.00     0.019 A 
ENDROOT
BRANCH   2  15
ATOM     15  S   UNL d   1      53.952  32.693  54.211  0.00  0.00     0.271 S 
ATOM     16  O   UNL d   1      54.431  32.658  53.534  0.00  0.00    -0.200 OA
ATOM     17  O   UNL d   1      53.474  32.734  54.891  0.00  0.00    -0.200 OA
BRANCH  15  18
ATOM     18  N   UNL d   1      54.164  33.496  54.310  0.00  0.00    -0.231 N 
BRANCH  18  19
ATOM     19  C   UNL d   1      53.600  34.088  54.236  0.00  0.00     0.075 A 
ATOM     20  C   UNL d   1      53.261  34.235  53.499  0.00  0.00     0.018 A 
ATOM     21  C   UNL d   1      52.698  34.823  53.414  0.00  0.00     0.002 A 
ATOM     22  C   UNL d   1      52.355  34.972  52.667  0.00  0.00     0.000 C 
ATOM     23  C   UNL d   1      52.470  35.270  54.069  0.00  0.00     0.000 A 
ATOM     24  C   UNL d   1      52.810  35.123  54.806  0.00  0.00     0.002 A 
ATOM     25  C   UNL d   1      53.374  34.530  54.880  0.00  0.00     0.018 A 
ENDBRANCH  18  19
BRANCH  18  26
ATOM     26  C   UNL d   1      54.944  33.698  54.484  0.00  0.00     0.092 C 
ATOM     27  C   UNL d   1      55.195  33.737  55.269  0.00  0.00     0.021 C 
ENDBRANCH  18  26
ENDBRANCH  15  18
ENDBRANCH   2  15
TORSDOF 4
ENDMDL
MODEL 4
REMARK VINA RESULT:      -7.8      0.368      1.413
REMARK  4 active torsions:
REMARK  status: ('A' for Active; 'I' for Inactive)
REMARK    1  A    between atoms: C_3  and  S_1 
REMARK    2  A    between atoms: N_5  and  S_1 
REMARK    3  A    between atoms: C_11  and  N_5 
REMARK    4  A    between atoms: C_21  and  N_5 
ROOT
ATOM      1  N   UNL d   1      48.143  35.392  52.088  0.00  0.00    -0.273 N 
ATOM      2  C   UNL d   1      50.332  34.375  52.587  0.00  0.00     0.104 A 
ATOM      3  C   UNL d   1      48.869  35.056  52.256  0.00  0.00     0.067 A 
ATOM      4  C   UNL d   1      49.246  34.601  51.685  0.00  0.00     0.017 A 
ATOM      5  C   UNL d   1      49.222  35.172  52.993  0.00  0.00     0.017 A 
ATOM      6  C   UNL d   1      47.790  35.276  51.351  0.00  0.00     0.265 A 
ATOM      7  C   UNL d   1      49.979  34.259  51.850  0.00  0.00     0.014 A 
ATOM      8  C   UNL d   1      49.951  34.833  53.159  0.00  0.00     0.014 A 
ATOM      9  C   UNL d   1      48.893  34.485  50.948  0.00  0.00     0.006 A 
ATOM     10  C   UNL d   1      48.164  34.823  50.782  0.00  0.00     0.061 A 
ATOM     11  O   UNL d   1      47.046  35.621  51.181  0.00  0.00    -0.267 OA
ATOM     12  C   UNL d   1      47.762  35.850  52.660  0.00  0.00     0.083 A 
ATOM     13  C   UNL d   1      48.848  35.624  53.562  0.00  0.00     0.003 A 
ATOM     14  C   UNL d   1      48.115  35.966  53.397  0.00  0.00     0.019 A 
ENDROOT
BRANCH   2  15
ATOM     15  S   UNL d   1      51.068  34.031  52.750  0.00  0.00     0.271 S 
ATOM     16  O   UNL d   1      50.752  33.642  53.411  0.00  0.00    -0.200 OA
ATOM     17  O   UNL d   1      51.391  34.419  52.089  0.00  0.00    -0.200 OA
BRANCH  15  18
ATOM     18  N   UNL d   1      51.812  33.685  52.912  0.00  0.00    -0.231 N 
BRANCH  18  19
ATOM     19  C   UNL d   1      52.359  34.074  53.386  0.00  0.00     0.075 A 
ATOM     20  C   UNL d   1      52.619  33.717  54.082  0.00  0.00     0.018 A 
ATOM     21  C   UNL d   1      53.163  34.095  54.561  0.00  0.00     0.002 A 
ATOM     22  C   UNL d   1      53.427  33.733  55.266  0.00  0.00     0.000 C 
ATOM     23  C   UNL d   1      53.452  34.838  54.346  0.00  0.00     0.000 A 
ATOM     24  C   UNL d   1      53.191  35.195  53.650  0.00  0.00     0.002 A 
ATOM     25  C   UNL d   1      52.645  34.806  53.176  0.00  0.00     0.018 A 
ENDBRANCH  18  19
BRANCH  18  26
ATOM     26  C   UNL d   1      52.002  32.949  52.595  0.00  0.00     0.092 C 
ATOM     27  C   UNL d   1      51.745  32.259  52.969  0.00  0.00     0.021 C 
ENDBRANCH  18  26
ENDBRANCH  15  18
ENDBRANCH   2  15
TORSDOF 4
ENDMDL
MODEL 5
REMARK VINA RESULT:      -7.3      2.037      5.133
REMARK  4 active torsions:
REMARK  status: ('A' for Active; 'I' for Inactive)
REMARK    1  A    between atoms: C_3  and  S_1 
REMARK    2  A    between atoms: N_5  and  S_1 
REMARK    3  A    between atoms: C_11  and  N_5 
REMARK    4  A    between atoms: C_21  and  N_5 
ROOT
ATOM      1  N   UNL d   1      53.181  30.260  53.482  0.00  0.00    -0.273 N 
ATOM      2  C   UNL d   1      52.429  32.578  53.111  0.00  0.00     0.104 A 
ATOM      3  C   UNL d   1      52.933  31.030  53.359  0.00  0.00     0.067 A 
ATOM      4  C   UNL d   1      52.131  31.192  53.296  0.00  0.00     0.017 A 
ATOM      5  C   UNL d   1      53.485  31.641  53.299  0.00  0.00     0.017 A 
ATOM      6  C   UNL d   1      52.629  29.650  53.542  0.00  0.00     0.265 A 
ATOM      7  C   UNL d   1      51.877  31.968  53.171  0.00  0.00     0.014 A 
ATOM      8  C   UNL d   1      53.235  32.412  53.176  0.00  0.00     0.014 A 
ATOM      9  C   UNL d   1      51.579  30.582  53.356  0.00  0.00     0.006 A 
ATOM     10  C   UNL d   1      51.829  29.810  53.479  0.00  0.00     0.061 A 
ATOM     11  O   UNL d   1      52.884  28.863  53.668  0.00  0.00    -0.267 OA
ATOM     12  C   UNL d   1      53.987  30.096  53.546  0.00  0.00     0.083 A 
ATOM     13  C   UNL d   1      54.285  31.481  53.362  0.00  0.00     0.003 A 
ATOM     14  C   UNL d   1      54.539  30.706  53.486  0.00  0.00     0.019 A 
ENDROOT
BRANCH   2  15
ATOM     15  S   UNL d   1      52.170  33.356  52.987  0.00  0.00     0.271 S 
ATOM     16  O   UNL d   1      52.356  33.299  52.180  0.00  0.00    -0.200 OA
ATOM     17  O   UNL d   1      51.983  33.419  53.795  0.00  0.00    -0.200 OA
BRANCH  15  18
ATOM     18  N   UNL d   1      51.909  34.141  52.864  0.00  0.00    -0.231 N 
BRANCH  18  19
ATOM     19  C   UNL d   1      51.115  34.300  52.731  0.00  0.00     0.075 A 
ATOM     20  C   UNL d   1      50.812  34.243  51.965  0.00  0.00     0.018 A 
ATOM     21  C   UNL d   1      50.023  34.400  51.821  0.00  0.00     0.002 A 
ATOM     22  C   UNL d   1      49.717  34.342  51.047  0.00  0.00     0.000 C 
ATOM     23  C   UNL d   1      49.528  34.616  52.445  0.00  0.00     0.000 A 
ATOM     24  C   UNL d   1      49.830  34.673  53.211  0.00  0.00     0.002 A 
ATOM     25  C   UNL d   1      50.625  34.513  53.344  0.00  0.00     0.018 A 
ENDBRANCH  18  19
BRANCH  18  26
ATOM     26  C   UNL d   1      52.451  34.762  52.876  0.00  0.00     0.092 C 
ATOM     27  C   UNL d   1      52.675  35.100  53.595  0.00  0.00     0.021 C 
ENDBRANCH  18  26
ENDBRANCH  15  18
ENDBRANCH   2  15
TORSDOF 4
ENDMDL
MODEL 6
REMARK VINA RESULT:      -7.1      0.953      2.224
REMARK  4 active torsions:
REMARK  status: ('A' for Active; 'I' for Inactive)
REMARK    1  A    between atoms: C_3  and  S_1 
REMARK    2  A    between atoms: N_5  and  S_1 
REMARK    3  A    between atoms: C_11  and  N_5 
REMARK    4  A    between atoms: C_21  and  N_5 
ROOT
ATOM      1  N   UNL d   1      48.733  34.901  51.929  0.00  0.00    -0.273 N 
ATOM      2  C   UNL d   1      51.017  34.421  52.721  0.00  0.00     0.104 A 
ATOM      3  C   UNL d   1      49.490  34.742  52.194  0.00  0.00     0.067 A 
ATOM      4  C   UNL d   1      50.021  34.362  51.696  0.00  0.00     0.017 A 
ATOM      5  C   UNL d   1      49.720  34.964  52.955  0.00  0.00     0.017 A 
ATOM      6  C   UNL d   1      48.503  34.679  51.168  0.00  0.00     0.265 A 
ATOM      7  C   UNL d   1      50.787  34.200  51.960  0.00  0.00     0.014 A 
ATOM      8  C   UNL d   1      50.481  34.804  53.218  0.00  0.00     0.014 A 
ATOM      9  C   UNL d   1      49.791  34.140  50.935  0.00  0.00     0.006 A 
ATOM     10  C   UNL d   1      49.031  34.300  50.672  0.00  0.00     0.061 A 
ATOM     11  O   UNL d   1      47.727  34.842  50.898  0.00  0.00    -0.267 OA
ATOM     12  C   UNL d   1      48.197  35.283  52.427  0.00  0.00     0.083 A 
ATOM     13  C   UNL d   1      49.192  35.343  53.450  0.00  0.00     0.003 A 
ATOM     14  C   UNL d   1      48.427  35.505  53.188  0.00  0.00     0.019 A 
ENDROOT
BRANCH   2  15
ATOM     15  S   UNL d   1      51.787  34.258  52.982  0.00  0.00     0.271 S 
ATOM     16  O   UNL d   1      51.498  34.046  53.731  0.00  0.00    -0.200 OA
ATOM     17  O   UNL d   1      52.081  34.469  52.233  0.00  0.00    -0.200 OA
BRANCH  15  18
ATOM     18  N   UNL d   1      52.564  34.093  53.243  0.00  0.00    -0.231 N 
BRANCH  18  19
ATOM     19  C   UNL d   1      52.777  33.333  53.467  0.00  0.00     0.075 A 
ATOM     20  C   UNL d   1      52.738  32.721  52.915  0.00  0.00     0.018 A 
ATOM     21  C   UNL d   1      52.947  31.960  53.127  0.00  0.00     0.002 A 
ATOM     22  C   UNL d   1      52.908  31.341  52.568  0.00  0.00     0.000 C 
ATOM     23  C   UNL d   1      53.199  31.804  53.897  0.00  0.00     0.000 A 
ATOM     24  C   UNL d   1      53.238  32.416  54.450  0.00  0.00     0.002 A 
ATOM     25  C   UNL d   1      53.025  33.176  54.226  0.00  0.00     0.018 A 
ENDBRANCH  18  19
BRANCH  18  26
ATOM     26  C   UNL d   1      53.123  34.698  53.277  0.00  0.00     0.092 C 
ATOM     27  C   UNL d   1      53.132  35.217  53.919  0.00  0.00     0.021 C 
ENDBRANCH  18  26
ENDBRANCH  15  18
ENDBRANCH   2  15
TORSDOF 4
ENDMDL
