MODEL 1
REMARK VINA RESULT:      -4.7      0.000      0.000
REMARK  5 active torsions:
REMARK  status: ('A' for Active; 'I' for Inactive)
REMARK    1  A    between atoms: N_2  and  S_1 
REMARK    2  A    between atoms: C_8  and  S_1 
REMARK    3  A    between atoms: S_7  and  C_3 
REMARK    4  A    between atoms: C_11  and  S_7 
REMARK    5  A    between atoms: C_12  and  C_11 
ROOT
ATOM      1  N   UNL d   1      58.883   0.205  29.739  0.00  0.00    -0.208 N 
ATOM      2  C   UNL d   1      58.657   0.387  30.520  0.00  0.00     0.189 A 
ATOM      3  N   UNL d   1      59.321   0.682  30.921  0.00  0.00    -0.219 NA
ATOM      4  C   UNL d   1      59.693   0.390  29.658  0.00  0.00     0.114 A 
ATOM      5  C   UNL d   1      59.957   0.682  30.386  0.00  0.00     0.121 A 
ENDROOT
BRANCH   1   6
ATOM      6  S   UNL d   1      58.388  -0.104  29.148  0.00  0.00     0.273 S 
ATOM      7  O   UNL d   1      57.903   0.547  29.265  0.00  0.00    -0.200 OA
ATOM      8  O   UNL d   1      57.761  -0.203  28.614  0.00  0.00    -0.200 OA
BRANCH   6   9
ATOM      9  C   UNL d   1      58.865  -0.768  29.017  0.00  0.00     0.104 A 
ATOM     10  C   UNL d   1      59.610  -0.670  28.685  0.00  0.00     0.013 A 
ATOM     11  C   UNL d   1      60.084  -1.331  28.555  0.00  0.00     0.001 A 
ATOM     12  C   UNL d   1      59.810  -2.083  28.757  0.00  0.00     0.000 A 
ATOM     13  C   UNL d   1      59.064  -2.175  29.089  0.00  0.00     0.001 A 
ATOM     14  C   UNL d   1      58.589  -1.508  29.219  0.00  0.00     0.013 A 
ENDBRANCH   6   9
ENDBRANCH   1   6
BRANCH   2  15
ATOM     15  S   UNL d   1      57.895   0.288  30.842  0.00  0.00    -0.049 SA
BRANCH  15  16
ATOM     16  C   UNL d   1      57.774   0.393  31.654  0.00  0.00     0.038 C 
BRANCH  16  17
ATOM     17  C   UNL d   1      57.089   0.099  32.008  0.00  0.00     0.007 A 
ATOM     18  C   UNL d   1      56.968  -0.714  32.079  0.00  0.00     0.001 A 
ATOM     19  C   UNL d   1      56.270  -0.996  32.438  0.00  0.00     0.000 A 
ATOM     20  C   UNL d   1      55.703  -0.463  32.721  0.00  0.00     0.000 A 
ATOM     21  C   UNL d   1      55.819   0.347  32.652  0.00  0.00     0.000 A 
ATOM     22  C   UNL d   1      56.505   0.632  32.298  0.00  0.00     0.001 A 
ENDBRANCH  16  17
ENDBRANCH  15  16
ENDBRANCH   2  15
TORSDOF 5
ENDMDL
MODEL 2
REMARK VINA RESULT:      -4.3      1.107      1.321
REMARK  5 active torsions:
REMARK  status: ('A' for Active; 'I' for Inactive)
REMARK    1  A    between atoms: N_2  and  S_1 
REMARK    2  A    between atoms: C_8  and  S_1 
REMARK    3  A    between atoms: S_7  and  C_3 
REMARK    4  A    between atoms: C_11  and  S_7 
REMARK    5  A    between atoms: C_12  and  C_11 
ROOT
ATOM      1  N   UNL d   1      59.046   0.218  29.508  0.00  0.00    -0.208 N 
ATOM      2  C   UNL d   1      58.267   0.313  29.789  0.00  0.00     0.189 A 
ATOM      3  N   UNL d   1      57.784   0.525  29.148  0.00  0.00    -0.219 NA
ATOM      4  C   UNL d   1      59.042   0.373  28.687  0.00  0.00     0.114 A 
ATOM      5  C   UNL d   1      58.265   0.561  28.472  0.00  0.00     0.121 A 
ENDROOT
BRANCH   1   6
ATOM      6  S   UNL d   1      59.706   0.007  29.965  0.00  0.00     0.273 S 
ATOM      7  O   UNL d   1      59.530   0.646  30.448  0.00  0.00    -0.200 OA
ATOM      8  O   UNL d   1      60.289  -0.001  30.555  0.00  0.00    -0.200 OA
BRANCH   6   9
ATOM      9  C   UNL d   1      59.899  -0.643  29.489  0.00  0.00     0.104 A 
ATOM     10  C   UNL d   1      60.494  -0.569  28.929  0.00  0.00     0.013 A 
ATOM     11  C   UNL d   1      60.686  -1.216  28.455  0.00  0.00     0.001 A 
ATOM     12  C   UNL d   1      60.281  -1.929  28.546  0.00  0.00     0.000 A 
ATOM     13  C   UNL d   1      59.686  -1.997  29.108  0.00  0.00     0.001 A 
ATOM     14  C   UNL d   1      59.496  -1.344  29.584  0.00  0.00     0.013 A 
ENDBRANCH   6   9
ENDBRANCH   1   6
BRANCH   2  15
ATOM     15  S   UNL d   1      58.018   0.211  30.578  0.00  0.00    -0.049 SA
BRANCH  15  16
ATOM     16  C   UNL d   1      57.212   0.252  30.764  0.00  0.00     0.038 C 
BRANCH  16  17
ATOM     17  C   UNL d   1      56.958   0.059  31.525  0.00  0.00     0.007 A 
ATOM     18  C   UNL d   1      56.785  -0.722  31.725  0.00  0.00     0.001 A 
ATOM     19  C   UNL d   1      56.529  -0.901  32.499  0.00  0.00     0.000 A 
ATOM     20  C   UNL d   1      56.450  -0.299  33.061  0.00  0.00     0.000 A 
ATOM     21  C   UNL d   1      56.623   0.480  32.866  0.00  0.00     0.000 A 
ATOM     22  C   UNL d   1      56.875   0.664  32.105  0.00  0.00     0.001 A 
ENDBRANCH  16  17
ENDBRANCH  15  16
ENDBRANCH   2  15
TORSDOF 5
ENDMDL
MODEL 3
REMARK VINA RESULT:      -3.5      1.671      4.445
REMARK  5 active torsions:
REMARK  status: ('A' for Active; 'I' for Inactive)
REMARK    1  A    between atoms: N_2  and  S_1 
REMARK    2  A    between atoms: C_8  and  S_1 
REMARK    3  A    between atoms: S_7  and  C_3 
REMARK    4  A    between atoms: C_11  and  S_7 
REMARK    5  A    between atoms: C_12  and  C_11 
ROOT
ATOM      1  N   UNL d   1      57.112  -0.114  32.602  0.00  0.00    -0.208 N 
ATOM      2  C   UNL d   1      57.661   0.212  32.066  0.00  0.00     0.189 A 
ATOM      3  N   UNL d   1      58.194   0.682  32.495  0.00  0.00    -0.219 NA
ATOM      4  C   UNL d   1      57.309   0.157  33.367  0.00  0.00     0.114 A 
ATOM      5  C   UNL d   1      57.974   0.645  33.295  0.00  0.00     0.121 A 
ENDROOT
BRANCH   1   6
ATOM      6  S   UNL d   1      56.482  -0.619  32.406  0.00  0.00     0.273 S 
ATOM      7  O   UNL d   1      56.995  -1.000  31.893  0.00  0.00    -0.200 OA
ATOM      8  O   UNL d   1      56.031  -1.222  32.060  0.00  0.00    -0.200 OA
BRANCH   6   9
ATOM      9  C   UNL d   1      55.950  -0.246  32.919  0.00  0.00     0.104 A 
ATOM     10  C   UNL d   1      55.957  -0.439  33.718  0.00  0.00     0.013 A 
ATOM     11  C   UNL d   1      55.427  -0.067  34.227  0.00  0.00     0.001 A 
ATOM     12  C   UNL d   1      54.896   0.493  33.936  0.00  0.00     0.000 A 
ATOM     13  C   UNL d   1      54.893   0.682  33.137  0.00  0.00     0.001 A 
ATOM     14  C   UNL d   1      55.427   0.306  32.625  0.00  0.00     0.013 A 
ENDBRANCH   6   9
ENDBRANCH   1   6
BRANCH   2  15
ATOM     15  S   UNL d   1      57.671   0.088  31.242  0.00  0.00    -0.049 SA
BRANCH  15  16
ATOM     16  C   UNL d   1      58.112   0.591  30.755  0.00  0.00     0.038 C 
BRANCH  16  17
ATOM     17  C   UNL d   1      58.299   0.354  29.986  0.00  0.00     0.007 A 
ATOM     18  C   UNL d   1      57.868   0.637  29.343  0.00  0.00     0.001 A 
ATOM     19  C   UNL d   1      58.069   0.389  28.572  0.00  0.00     0.000 A 
ATOM     20  C   UNL d   1      58.698  -0.137  28.455  0.00  0.00     0.000 A 
ATOM     21  C   UNL d   1      59.130  -0.421  29.093  0.00  0.00     0.000 A 
ATOM     22  C   UNL d   1      58.937  -0.180  29.856  0.00  0.00     0.001 A 
ENDBRANCH  16  17
ENDBRANCH  15  16
ENDBRANCH   2  15
TORSDOF 5
ENDMDL
MODEL 4
REMARK VINA RESULT:      -2.5      1.177      4.032
REMARK  5 active torsions:
REMARK  status: ('A' for Active; 'I' for Inactive)
REMARK    1  A    between atoms: N_2  and  S_1 
REMARK    2  A    between atoms: C_8  and  S_1 
REMARK    3  A    between atoms: S_7  and  C_3 
REMARK    4  A    between atoms: C_11  and  S_7 
REMARK    5  A    between atoms: C_12  and  C_11 
ROOT
ATOM      1  N   UNL d   1      57.876   0.235  30.597  0.00  0.00    -0.208 N 
ATOM      2  C   UNL d   1      58.177  -0.144  29.919  0.00  0.00     0.189 A 
ATOM      3  N   UNL d   1      57.698   0.062  29.273  0.00  0.00    -0.219 NA
ATOM      4  C   UNL d   1      57.207   0.678  30.367  0.00  0.00     0.114 A 
ATOM      5  C   UNL d   1      57.102   0.568  29.554  0.00  0.00     0.121 A 
ENDROOT
BRANCH   1   6
ATOM      6  S   UNL d   1      58.190   0.180  31.365  0.00  0.00     0.273 S 
ATOM      7  O   UNL d   1      58.912   0.402  31.046  0.00  0.00    -0.200 OA
ATOM      8  O   UNL d   1      58.713   0.195  32.007  0.00  0.00    -0.200 OA
BRANCH   6   9
ATOM      9  C   UNL d   1      57.469  -0.045  31.704  0.00  0.00     0.104 A 
ATOM     10  C   UNL d   1      57.267  -0.841  31.732  0.00  0.00     0.013 A 
ATOM     11  C   UNL d   1      56.550  -1.064  32.069  0.00  0.00     0.001 A 
ATOM     12  C   UNL d   1      56.040  -0.492  32.375  0.00  0.00     0.000 A 
ATOM     13  C   UNL d   1      56.247   0.302  32.344  0.00  0.00     0.001 A 
ATOM     14  C   UNL d   1      56.970   0.525  32.004  0.00  0.00     0.013 A 
ENDBRANCH   6   9
ENDBRANCH   1   6
BRANCH   2  15
ATOM     15  S   UNL d   1      58.843  -0.644  29.895  0.00  0.00    -0.049 SA
BRANCH  15  16
ATOM     16  C   UNL d   1      59.078  -0.983  29.177  0.00  0.00     0.038 C 
BRANCH  16  17
ATOM     17  C   UNL d   1      59.639  -1.588  29.175  0.00  0.00     0.007 A 
ATOM     18  C   UNL d   1      59.405  -2.379  29.178  0.00  0.00     0.001 A 
ATOM     19  C   UNL d   1      59.984  -2.980  29.176  0.00  0.00     0.000 A 
ATOM     20  C   UNL d   1      60.789  -2.782  29.171  0.00  0.00     0.000 A 
ATOM     21  C   UNL d   1      61.026  -1.996  29.168  0.00  0.00     0.000 A 
ATOM     22  C   UNL d   1      60.460  -1.399  29.170  0.00  0.00     0.001 A 
ENDBRANCH  16  17
ENDBRANCH  15  16
ENDBRANCH   2  15
TORSDOF 5
ENDMDL
MODEL 5
REMARK VINA RESULT:      -1.9      1.438      1.995
REMARK  5 active torsions:
REMARK  status: ('A' for Active; 'I' for Inactive)
REMARK    1  A    between atoms: N_2  and  S_1 
REMARK    2  A    between atoms: C_8  and  S_1 
REMARK    3  A    between atoms: S_7  and  C_3 
REMARK    4  A    between atoms: C_11  and  S_7 
REMARK    5  A    between atoms: C_12  and  C_11 
ROOT
ATOM      1  N   UNL d   1      58.970  -1.741  29.130  0.00  0.00    -0.208 N 
ATOM      2  C   UNL d   1      58.748  -1.055  29.548  0.00  0.00     0.189 A 
ATOM      3  N   UNL d   1      59.040  -0.395  29.137  0.00  0.00    -0.219 NA
ATOM      4  C   UNL d   1      59.401  -1.502  28.456  0.00  0.00     0.114 A 
ATOM      5  C   UNL d   1      59.441  -0.675  28.465  0.00  0.00     0.121 A 
ENDROOT
BRANCH   1   6
ATOM      6  S   UNL d   1      58.792  -2.523  29.348  0.00  0.00     0.273 S 
ATOM      7  O   UNL d   1      58.018  -2.275  29.460  0.00  0.00    -0.200 OA
ATOM      8  O   UNL d   1      58.382  -3.201  29.592  0.00  0.00    -0.200 OA
BRANCH   6   9
ATOM      9  C   UNL d   1      59.568  -2.790  29.239  0.00  0.00     0.104 A 
ATOM     10  C   UNL d   1      60.134  -2.624  29.810  0.00  0.00     0.013 A 
ATOM     11  C   UNL d   1      60.907  -2.890  29.702  0.00  0.00     0.001 A 
ATOM     12  C   UNL d   1      61.105  -3.318  29.025  0.00  0.00     0.000 A 
ATOM     13  C   UNL d   1      60.535  -3.482  28.458  0.00  0.00     0.001 A 
ATOM     14  C   UNL d   1      59.758  -3.213  28.569  0.00  0.00     0.013 A 
ENDBRANCH   6   9
ENDBRANCH   1   6
BRANCH   2  15
ATOM     15  S   UNL d   1      58.310  -1.036  30.257  0.00  0.00    -0.049 SA
BRANCH  15  16
ATOM     16  C   UNL d   1      57.861  -0.367  30.445  0.00  0.00     0.038 C 
BRANCH  16  17
ATOM     17  C   UNL d   1      57.548  -0.286  31.205  0.00  0.00     0.007 A 
ATOM     18  C   UNL d   1      56.814  -0.611  31.394  0.00  0.00     0.001 A 
ATOM     19  C   UNL d   1      56.511  -0.520  32.166  0.00  0.00     0.000 A 
ATOM     20  C   UNL d   1      56.945  -0.107  32.737  0.00  0.00     0.000 A 
ATOM     21  C   UNL d   1      57.676   0.219  32.553  0.00  0.00     0.000 A 
ATOM     22  C   UNL d   1      57.980   0.133  31.793  0.00  0.00     0.001 A 
ENDBRANCH  16  17
ENDBRANCH  15  16
ENDBRANCH   2  15
TORSDOF 5
ENDMDL
