MODEL 1
REMARK VINA RESULT:      -9.4      0.000      0.000
REMARK  4 active torsions:
REMARK  status: ('A' for Active; 'I' for Inactive)
REMARK    1  A    between atoms: C_4  and  C_1 
REMARK    2  A    between atoms: N_5  and  C_2 
REMARK       I    between atoms: N_9  and  C_4 
REMARK       I    between atoms: C_7  and  N_5 
REMARK    3  A    between atoms: C_13  and  C_7 
REMARK    4  A    between atoms: C_11  and  N_9 
ROOT
ATOM      1  C   UNL d   1     -47.120  12.838  23.200  0.00  0.00     0.175 A 
ATOM      2  C   UNL d   1     -46.541  13.299  22.980  0.00  0.00     0.114 A 
ATOM      3  O   UNL d   1     -47.763  13.263  23.227  0.00  0.00    -0.301 OA
ATOM      4  C   UNL d   1     -46.822  14.008  22.870  0.00  0.00     0.043 A 
ATOM      5  C   UNL d   1     -47.582  13.987  23.024  0.00  0.00     0.102 A 
ATOM      6  C   UNL d   1     -46.495  14.666  22.654  0.00  0.00     0.004 A 
ATOM      7  C   UNL d   1     -48.005  14.621  22.960  0.00  0.00     0.025 A 
ATOM      8  C   UNL d   1     -46.923  15.307  22.589  0.00  0.00     0.000 A 
ATOM      9  C   UNL d   1     -47.675  15.282  22.742  0.00  0.00     0.002 A 
ENDROOT
BRANCH   1  10
ATOM     10  C   UNL d   1     -47.070  12.094  23.363  0.00  0.00     0.303 C 
ATOM     11  N   UNL d   1     -48.258  11.276  22.974  0.00  0.00    -0.206 NA
ATOM     12  O   UNL d   1     -46.485  11.727  23.698  0.00  0.00    -0.263 OA
BRANCH  11  13
ATOM     13  C   UNL d   1     -48.907  11.639  22.611  0.00  0.00     0.085 A 
ATOM     14  C   UNL d   1     -49.569  11.851  23.062  0.00  0.00     0.019 A 
ATOM     15  C   UNL d   1     -50.220  12.215  22.698  0.00  0.00     0.002 A 
ATOM     16  C   UNL d   1     -50.885  12.428  23.148  0.00  0.00     0.000 C 
ATOM     17  C   UNL d   1     -50.216  12.372  21.878  0.00  0.00     0.000 A 
ATOM     18  C   UNL d   1     -49.544  12.157  21.423  0.00  0.00     0.002 A 
ATOM     19  C   UNL d   1     -50.863  12.734  21.516  0.00  0.00     0.000 C 
ATOM     20  C   UNL d   1     -48.889  11.788  21.800  0.00  0.00     0.019 A 
ENDBRANCH  11  13
ENDBRANCH   1  10
BRANCH   2  21
ATOM     21  N   UNL d   1     -45.807  13.081  22.886  0.00  0.00    -0.204 NA
ATOM     22  C   UNL d   1     -45.506  12.944  22.126  0.00  0.00     0.302 C 
ATOM     23  O   UNL d   1     -45.998  13.041  21.457  0.00  0.00    -0.263 OA
BRANCH  22  24
ATOM     24  C   UNL d   1     -44.711  12.710  22.028  0.00  0.00     0.158 A 
ATOM     25  O   UNL d   1     -44.300  12.137  22.474  0.00  0.00    -0.300 OA
ATOM     26  C   UNL d   1     -43.528  12.086  22.183  0.00  0.00     0.123 A 
ATOM     27  C   UNL d   1     -43.448  12.627  21.553  0.00  0.00     0.029 A 
ATOM     28  C   UNL d   1     -44.167  13.009  21.454  0.00  0.00     0.032 A 
ENDBRANCH  22  24
ENDBRANCH   2  21
TORSDOF 4
ENDMDL
MODEL 2
REMARK VINA RESULT:      -9.2      1.343      2.342
REMARK  4 active torsions:
REMARK  status: ('A' for Active; 'I' for Inactive)
REMARK    1  A    between atoms: C_4  and  C_1 
REMARK    2  A    between atoms: N_5  and  C_2 
REMARK       I    between atoms: N_9  and  C_4 
REMARK       I    between atoms: C_7  and  N_5 
REMARK    3  A    between atoms: C_13  and  C_7 
REMARK    4  A    between atoms: C_11  and  N_9 
ROOT
ATOM      1  C   UNL d   1     -47.312  13.479  23.152  0.00  0.00     0.175 A 
ATOM      2  C   UNL d   1     -46.985  12.869  22.809  0.00  0.00     0.114 A 
ATOM      3  O   UNL d   1     -47.929  13.230  23.540  0.00  0.00    -0.301 OA
ATOM      4  C   UNL d   1     -47.399  12.242  22.984  0.00  0.00     0.043 A 
ATOM      5  C   UNL d   1     -47.986  12.465  23.438  0.00  0.00     0.102 A 
ATOM      6  C   UNL d   1     -47.322  11.504  22.793  0.00  0.00     0.004 A 
ATOM      7  C   UNL d   1     -48.489  11.951  23.697  0.00  0.00     0.025 A 
ATOM      8  C   UNL d   1     -47.832  10.984  23.055  0.00  0.00     0.000 A 
ATOM      9  C   UNL d   1     -48.412  11.209  23.505  0.00  0.00     0.002 A 
ENDROOT
BRANCH   1  10
ATOM     10  C   UNL d   1     -47.069  14.202  23.115  0.00  0.00     0.303 C 
ATOM     11  N   UNL d   1     -48.058  15.178  22.566  0.00  0.00    -0.206 NA
ATOM     12  O   UNL d   1     -46.384  14.477  23.326  0.00  0.00    -0.263 OA
BRANCH  11  13
ATOM     13  C   UNL d   1     -48.807  14.916  22.328  0.00  0.00     0.085 A 
ATOM     14  C   UNL d   1     -49.455  15.000  22.837  0.00  0.00     0.019 A 
ATOM     15  C   UNL d   1     -50.205  14.738  22.600  0.00  0.00     0.002 A 
ATOM     16  C   UNL d   1     -50.857  14.821  23.108  0.00  0.00     0.000 C 
ATOM     17  C   UNL d   1     -50.316  14.387  21.850  0.00  0.00     0.000 A 
ATOM     18  C   UNL d   1     -49.658  14.303  21.336  0.00  0.00     0.002 A 
ATOM     19  C   UNL d   1     -51.062  14.126  21.614  0.00  0.00     0.000 C 
ATOM     20  C   UNL d   1     -48.901  14.571  21.584  0.00  0.00     0.019 A 
ENDBRANCH  11  13
ENDBRANCH   1  10
BRANCH   2  21
ATOM     21  N   UNL d   1     -46.353  12.889  22.367  0.00  0.00    -0.204 NA
ATOM     22  C   UNL d   1     -45.620  12.657  22.678  0.00  0.00     0.302 C 
ATOM     23  O   UNL d   1     -45.564  12.401  23.472  0.00  0.00    -0.263 OA
BRANCH  22  24
ATOM     24  C   UNL d   1     -44.938  12.679  22.198  0.00  0.00     0.158 A 
ATOM     25  O   UNL d   1     -44.857  13.062  21.462  0.00  0.00    -0.300 OA
ATOM     26  C   UNL d   1     -44.087  12.937  21.187  0.00  0.00     0.123 A 
ATOM     27  C   UNL d   1     -43.679  12.475  21.749  0.00  0.00     0.029 A 
ATOM     28  C   UNL d   1     -44.194  12.314  22.368  0.00  0.00     0.032 A 
ENDBRANCH  22  24
ENDBRANCH   2  21
TORSDOF 4
ENDMDL
MODEL 3
REMARK VINA RESULT:      -7.2      1.612      3.165
REMARK  4 active torsions:
REMARK  status: ('A' for Active; 'I' for Inactive)
REMARK    1  A    between atoms: C_4  and  C_1 
REMARK    2  A    between atoms: N_5  and  C_2 
REMARK       I    between atoms: N_9  and  C_4 
REMARK       I    between atoms: C_7  and  N_5 
REMARK    3  A    between atoms: C_13  and  C_7 
REMARK    4  A    between atoms: C_11  and  N_9 
ROOT
ATOM      1  C   UNL d   1     -48.662  12.448  21.917  0.00  0.00     0.175 A 
ATOM      2  C   UNL d   1     -48.430  11.965  22.473  0.00  0.00     0.114 A 
ATOM      3  O   UNL d   1     -49.431  12.487  21.942  0.00  0.00    -0.301 OA
ATOM      4  C   UNL d   1     -49.054  11.703  22.843  0.00  0.00     0.043 A 
ATOM      5  C   UNL d   1     -49.677  12.028  22.514  0.00  0.00     0.102 A 
ATOM      6  C   UNL d   1     -49.141  11.219  23.430  0.00  0.00     0.004 A 
ATOM      7  C   UNL d   1     -50.378  11.865  22.774  0.00  0.00     0.025 A 
ATOM      8  C   UNL d   1     -49.850  11.055  23.692  0.00  0.00     0.000 A 
ATOM      9  C   UNL d   1     -50.465  11.378  23.364  0.00  0.00     0.002 A 
ENDROOT
BRANCH   1  10
ATOM     10  C   UNL d   1     -48.211  12.823  21.427  0.00  0.00     0.303 C 
ATOM     11  N   UNL d   1     -48.502  14.281  21.284  0.00  0.00    -0.206 NA
ATOM     12  O   UNL d   1     -47.636  12.536  21.008  0.00  0.00    -0.263 OA
BRANCH  11  13
ATOM     13  C   UNL d   1     -49.116  14.623  21.721  0.00  0.00     0.085 A 
ATOM     14  C   UNL d   1     -48.953  14.993  22.445  0.00  0.00     0.019 A 
ATOM     15  C   UNL d   1     -49.568  15.336  22.884  0.00  0.00     0.002 A 
ATOM     16  C   UNL d   1     -49.407  15.707  23.609  0.00  0.00     0.000 C 
ATOM     17  C   UNL d   1     -50.354  15.313  22.604  0.00  0.00     0.000 A 
ATOM     18  C   UNL d   1     -50.517  14.939  21.871  0.00  0.00     0.002 A 
ATOM     19  C   UNL d   1     -50.966  15.654  23.039  0.00  0.00     0.000 C 
ATOM     20  C   UNL d   1     -49.888  14.594  21.432  0.00  0.00     0.019 A 
ENDBRANCH  11  13
ENDBRANCH   1  10
BRANCH   2  21
ATOM     21  N   UNL d   1     -47.698  11.777  22.628  0.00  0.00    -0.204 NA
ATOM     22  C   UNL d   1     -47.291  12.157  23.242  0.00  0.00     0.302 C 
ATOM     23  O   UNL d   1     -47.674  12.746  23.696  0.00  0.00    -0.263 OA
BRANCH  22  24
ATOM     24  C   UNL d   1     -46.500  11.953  23.407  0.00  0.00     0.158 A 
ATOM     25  O   UNL d   1     -45.855  12.476  23.491  0.00  0.00    -0.300 OA
ATOM     26  C   UNL d   1     -45.178  12.030  23.653  0.00  0.00     0.123 A 
ATOM     27  C   UNL d   1     -45.392  11.223  23.671  0.00  0.00     0.029 A 
ATOM     28  C   UNL d   1     -46.197  11.171  23.522  0.00  0.00     0.032 A 
ENDBRANCH  22  24
ENDBRANCH   2  21
TORSDOF 4
ENDMDL
