MODEL 1
REMARK VINA RESULT:      -8.1      0.000      0.000
REMARK  1 active torsions:
REMARK  status: ('A' for Active; 'I' for Inactive)
REMARK    1  A    between atoms: C_11  and  C_9 
ROOT
ATOM      1  C   UNL d   1      53.006  31.016  52.999  0.00  0.00     0.215 A 
ATOM      2  N   UNL d   1      52.853  31.786  52.763  0.00  0.00    -0.219 NA
ATOM      3  S   UNL d   1      53.452  31.039  53.686  0.00  0.00    -0.045 SA
ATOM      4  C   UNL d   1      53.577  31.837  53.879  0.00  0.00     0.050 A 
ATOM      5  C   UNL d   1      53.207  32.297  53.310  0.00  0.00     0.090 A 
ATOM      6  C   UNL d   1      53.982  32.192  54.504  0.00  0.00     0.008 A 
ATOM      7  N   UNL d   1      52.753  30.329  52.608  0.00  0.00    -0.120 N 
ATOM      8  C   UNL d   1      53.236  33.121  53.356  0.00  0.00     0.020 A 
ATOM      9  C   UNL d   1      54.006  33.002  54.543  0.00  0.00     0.001 A 
ATOM     10  C   UNL d   1      53.634  33.465  53.970  0.00  0.00     0.002 A 
ENDROOT
BRANCH   9  11
ATOM     11  C   UNL d   1      54.411  33.364  55.167  0.00  0.00     0.000 C 
ATOM     12  C   UNL d   1      55.134  33.725  55.029  0.00  0.00     0.000 C 
ENDBRANCH   9  11
TORSDOF 1
ENDMDL
MODEL 2
REMARK VINA RESULT:      -7.9      1.422      1.954
REMARK  1 active torsions:
REMARK  status: ('A' for Active; 'I' for Inactive)
REMARK    1  A    between atoms: C_11  and  C_9 
ROOT
ATOM      1  C   UNL d   1      51.929  33.729  52.737  0.00  0.00     0.215 A 
ATOM      2  N   UNL d   1      52.349  33.038  52.600  0.00  0.00    -0.219 NA
ATOM      3  S   UNL d   1      52.216  34.075  53.422  0.00  0.00    -0.045 SA
ATOM      4  C   UNL d   1      52.823  33.591  53.715  0.00  0.00     0.050 A 
ATOM      5  C   UNL d   1      52.905  32.952  53.208  0.00  0.00     0.090 A 
ATOM      6  C   UNL d   1      53.306  33.661  54.380  0.00  0.00     0.008 A 
ATOM      7  N   UNL d   1      51.318  34.027  52.261  0.00  0.00    -0.120 N 
ATOM      8  C   UNL d   1      53.471  32.370  53.358  0.00  0.00     0.020 A 
ATOM      9  C   UNL d   1      53.861  33.086  54.521  0.00  0.00     0.001 A 
ATOM     10  C   UNL d   1      53.943  32.442  54.011  0.00  0.00     0.002 A 
ENDROOT
BRANCH   9  11
ATOM     11  C   UNL d   1      54.348  33.149  55.186  0.00  0.00     0.000 C 
ATOM     12  C   UNL d   1      55.051  33.569  55.139  0.00  0.00     0.000 C 
ENDBRANCH   9  11
TORSDOF 1
ENDMDL
MODEL 3
REMARK VINA RESULT:      -7.7      2.107      3.032
REMARK  1 active torsions:
REMARK  status: ('A' for Active; 'I' for Inactive)
REMARK    1  A    between atoms: C_11  and  C_9 
ROOT
ATOM      1  C   UNL d   1      53.106  34.959  54.479  0.00  0.00     0.215 A 
ATOM      2  N   UNL d   1      53.568  34.544  55.014  0.00  0.00    -0.219 NA
ATOM      3  S   UNL d   1      52.939  34.468  53.844  0.00  0.00    -0.045 SA
ATOM      4  C   UNL d   1      53.303  33.737  53.988  0.00  0.00     0.050 A 
ATOM      5  C   UNL d   1      53.691  33.783  54.709  0.00  0.00     0.090 A 
ATOM      6  C   UNL d   1      53.325  33.040  53.547  0.00  0.00     0.008 A 
ATOM      7  N   UNL d   1      52.851  35.744  54.565  0.00  0.00    -0.120 N 
ATOM      8  C   UNL d   1      54.107  33.134  55.003  0.00  0.00     0.020 A 
ATOM      9  C   UNL d   1      53.736  32.405  53.842  0.00  0.00     0.001 A 
ATOM     10  C   UNL d   1      54.126  32.452  54.567  0.00  0.00     0.002 A 
ENDROOT
BRANCH   9  11
ATOM     11  C   UNL d   1      53.761  31.703  53.405  0.00  0.00     0.000 C 
ATOM     12  C   UNL d   1      53.511  31.001  53.745  0.00  0.00     0.000 C 
ENDBRANCH   9  11
TORSDOF 1
ENDMDL
MODEL 4
REMARK VINA RESULT:      -7.6      2.141      3.127
REMARK  1 active torsions:
REMARK  status: ('A' for Active; 'I' for Inactive)
REMARK    1  A    between atoms: C_11  and  C_9 
ROOT
ATOM      1  C   UNL d   1      54.196  33.600  54.931  0.00  0.00     0.215 A 
ATOM      2  N   UNL d   1      53.951  34.381  54.877  0.00  0.00    -0.219 NA
ATOM      3  S   UNL d   1      53.752  33.152  54.409  0.00  0.00    -0.045 SA
ATOM      4  C   UNL d   1      53.222  33.662  54.025  0.00  0.00     0.050 A 
ATOM      5  C   UNL d   1      53.345  34.420  54.313  0.00  0.00     0.090 A 
ATOM      6  C   UNL d   1      52.646  33.523  53.450  0.00  0.00     0.008 A 
ATOM      7  N   UNL d   1      54.794  33.314  55.430  0.00  0.00    -0.120 N 
ATOM      8  C   UNL d   1      52.895  35.052  54.032  0.00  0.00     0.020 A 
ATOM      9  C   UNL d   1      52.208  34.149  53.178  0.00  0.00     0.001 A 
ATOM     10  C   UNL d   1      52.331  34.911  53.469  0.00  0.00     0.002 A 
ENDROOT
BRANCH   9  11
ATOM     11  C   UNL d   1      51.629  34.016  52.602  0.00  0.00     0.000 C 
ATOM     12  C   UNL d   1      50.849  34.219  52.752  0.00  0.00     0.000 C 
ENDBRANCH   9  11
TORSDOF 1
ENDMDL
MODEL 5
REMARK VINA RESULT:      -7.3      1.437      2.716
REMARK  1 active torsions:
REMARK  status: ('A' for Active; 'I' for Inactive)
REMARK    1  A    between atoms: C_11  and  C_9 
ROOT
ATOM      1  C   UNL d   1      53.314  33.058  53.317  0.00  0.00     0.215 A 
ATOM      2  N   UNL d   1      52.750  32.639  52.896  0.00  0.00    -0.219 NA
ATOM      3  S   UNL d   1      53.785  32.523  53.723  0.00  0.00    -0.045 SA
ATOM      4  C   UNL d   1      53.509  31.761  53.549  0.00  0.00     0.050 A 
ATOM      5  C   UNL d   1      52.870  31.831  53.040  0.00  0.00     0.090 A 
ATOM      6  C   UNL d   1      53.764  31.016  53.797  0.00  0.00     0.008 A 
ATOM      7  N   UNL d   1      53.395  33.884  53.331  0.00  0.00    -0.120 N 
ATOM      8  C   UNL d   1      52.476  31.159  52.768  0.00  0.00     0.020 A 
ATOM      9  C   UNL d   1      53.372  30.359  53.526  0.00  0.00     0.001 A 
ATOM     10  C   UNL d   1      52.730  30.431  53.013  0.00  0.00     0.002 A 
ENDROOT
BRANCH   9  11
ATOM     11  C   UNL d   1      53.623  29.610  53.770  0.00  0.00     0.000 C 
ATOM     12  C   UNL d   1      53.235  29.229  54.383  0.00  0.00     0.000 C 
ENDBRANCH   9  11
TORSDOF 1
ENDMDL
