MODEL 1
REMARK VINA RESULT:      43.4      0.000      0.000
REMARK  5 active torsions:
REMARK  status: ('A' for Active; 'I' for Inactive)
REMARK    1  A    between atoms: S_13  and  C_7 
REMARK    2  A    between atoms: C_22  and  C_10 
REMARK    3  A    between atoms: C_11  and  C_16 
REMARK       I    between atoms: N_12  and  C_11 
REMARK    4  A    between atoms: C_16  and  S_13 
REMARK    5  A    between atoms: C_23  and  C_22 
ROOT
ATOM      1  N   UNL d   1      45.540 -17.370  41.485  0.00  0.00    -0.224 N 
ATOM      2  N   UNL d   1      46.229 -18.580  41.833  0.00  0.00    -0.241 N 
ATOM      3  C   UNL d   1      45.950 -18.060  41.259  0.00  0.00     0.343 A 
ATOM      4  C   UNL d   1      46.098 -18.411  42.632  0.00  0.00     0.160 A 
ATOM      5  C   UNL d   1      45.413 -17.209  42.283  0.00  0.00     0.273 A 
ATOM      6  C   UNL d   1      45.692 -17.729  42.856  0.00  0.00     0.115 A 
ATOM      7  C   UNL d   1      45.565 -17.567  43.654  0.00  0.00     0.120 A 
ATOM      8  N   UNL d   1      46.378 -18.934  43.214  0.00  0.00    -0.209 NA
ATOM      9  N   UNL d   1      45.842 -18.084  44.228  0.00  0.00    -0.220 NA
ATOM     10  C   UNL d   1      46.251 -18.772  44.011  0.00  0.00     0.165 A 
ATOM     11  O   UNL d   1      46.077 -18.220  40.459  0.00  0.00    -0.245 OA
ATOM     12  O   UNL d   1      45.007 -16.525  42.502  0.00  0.00    -0.266 OA
ATOM     13  C   UNL d   1      45.265 -16.856  40.910  0.00  0.00     0.107 C 
ATOM     14  C   UNL d   1      46.635 -19.263  41.610  0.00  0.00     0.105 C 
ENDROOT
BRANCH   7  15
ATOM     15  S   UNL d   1      45.159 -16.884  43.873  0.00  0.00    -0.062 SA
BRANCH  15  16
ATOM     16  C   UNL d   1      45.521 -16.327  44.364  0.00  0.00     0.098 C 
BRANCH  16  17
ATOM     17  C   UNL d   1      45.098 -15.675  44.632  0.00  0.00     0.271 C 
ATOM     18  N   UNL d   1      45.432 -14.917  44.580  0.00  0.00    -0.272 N 
ATOM     19  C   UNL d   1      44.914 -14.295  44.886  0.00  0.00     0.083 A 
ATOM     20  C   UNL d   1      46.108 -14.910  44.282  0.00  0.00     0.083 A 
ATOM     21  C   UNL d   1      44.971 -13.577  44.951  0.00  0.00     0.019 A 
ATOM     22  C   UNL d   1      45.622 -13.098  44.724  0.00  0.00     0.002 A 
ATOM     23  C   UNL d   1      46.372 -13.388  44.356  0.00  0.00     0.002 A 
ATOM     24  C   UNL d   1      46.598 -14.226  44.151  0.00  0.00     0.019 A 
ATOM     25  O   UNL d   1      44.344 -15.771  44.953  0.00  0.00    -0.266 OA
ENDBRANCH  16  17
ENDBRANCH  15  16
ENDBRANCH   7  15
BRANCH  10  26
ATOM     26  C   UNL d   1      46.528 -19.291  44.589  0.00  0.00     0.039 C 
BRANCH  26  27
ATOM     27  C   UNL d   1      46.327 -20.093  44.553  0.00  0.00     0.003 C 
ATOM     28  C   UNL d   1      45.544 -20.324  44.523  0.00  0.00     0.000 C 
ENDBRANCH  26  27
ENDBRANCH  10  26
TORSDOF 5
ENDMDL
