MODEL 1
REMARK VINA RESULT:      -6.9      0.000      0.000
REMARK  8 active torsions:
REMARK  status: ('A' for Active; 'I' for Inactive)
REMARK    1  A    between atoms: C_7  and  C_1 
REMARK    2  A    between atoms: S_2  and  N_8 
REMARK    3  A    between atoms: C_11  and  S_2 
REMARK    4  A    between atoms: O_17  and  C_7 
REMARK    5  A    between atoms: N_8  and  C_13 
REMARK    6  A    between atoms: C_22  and  O_17 
REMARK    7  A    between atoms: O_19  and  C_23 
REMARK    8  A    between atoms: C_23  and  C_22 
ROOT
ATOM      1  C   UNL d   1     -49.044  12.631  22.418  0.00  0.00     0.088 A 
ATOM      2  C   UNL d   1     -49.560  11.994  22.479  0.00  0.00     0.105 A 
ATOM      3  C   UNL d   1     -48.356  12.444  22.822  0.00  0.00     0.031 A 
ATOM      4  O   UNL d   1     -49.179  11.403  22.931  0.00  0.00    -0.307 OA
ATOM      5  C   UNL d   1     -48.439  11.686  23.138  0.00  0.00     0.100 A 
ATOM      6  C   UNL d   1     -47.657  12.868  22.945  0.00  0.00     0.022 A 
ATOM      7  C   UNL d   1     -47.049  12.533  23.381  0.00  0.00     0.094 A 
ATOM      8  C   UNL d   1     -47.824  11.353  23.577  0.00  0.00     0.026 A 
ATOM      9  C   UNL d   1     -47.133  11.775  23.697  0.00  0.00     0.022 A 
ATOM     10  C   UNL d   1     -50.316  11.900  22.176  0.00  0.00     0.027 C 
ENDROOT
BRANCH   7  11
ATOM     11  N   UNL d   1     -46.319  12.987  23.504  0.00  0.00    -0.158 NA
BRANCH  11  12
ATOM     12  S   UNL d   1     -45.657  12.870  23.012  0.00  0.00     0.285 S 
ATOM     13  O   UNL d   1     -45.773  13.593  22.631  0.00  0.00    -0.198 OA
ATOM     14  O   UNL d   1     -45.510  12.115  23.389  0.00  0.00    -0.198 OA
BRANCH  12  15
ATOM     15  C   UNL d   1     -44.976  12.716  22.529  0.00  0.00     0.105 A 
ATOM     16  C   UNL d   1     -44.834  13.232  21.899  0.00  0.00     0.013 A 
ATOM     17  C   UNL d   1     -44.182  13.113  21.408  0.00  0.00     0.001 A 
ATOM     18  C   UNL d   1     -43.671  12.478  21.547  0.00  0.00     0.000 A 
ATOM     19  C   UNL d   1     -43.815  11.969  22.173  0.00  0.00     0.001 A 
ATOM     20  C   UNL d   1     -44.468  12.088  22.664  0.00  0.00     0.013 A 
ENDBRANCH  12  15
ENDBRANCH  11  12
ENDBRANCH   7  11
BRANCH   1  21
ATOM     21  C   UNL d   1     -49.243  13.334  21.998  0.00  0.00     0.302 C 
ATOM     22  O   UNL d   1     -49.124  13.397  21.179  0.00  0.00    -0.259 OA
BRANCH  21  23
ATOM     23  O   UNL d   1     -49.566  13.976  22.421  0.00  0.00    -0.269 OA
BRANCH  23  24
ATOM     24  C   UNL d   1     -50.084  14.512  22.051  0.00  0.00     0.152 C 
BRANCH  24  25
ATOM     25  C   UNL d   1     -50.273  15.231  22.406  0.00  0.00     0.143 C 
BRANCH  25  26
ATOM     26  O   UNL d   1     -50.597  15.275  23.174  0.00  0.00    -0.324 OA
ATOM     27  C   UNL d   1     -50.298  15.806  23.698  0.00  0.00     0.182 C 
ENDBRANCH  25  26
ENDBRANCH  24  25
ENDBRANCH  23  24
ENDBRANCH  21  23
ENDBRANCH   1  21
TORSDOF 8
ENDMDL
MODEL 2
REMARK VINA RESULT:      -6.5      1.619      5.086
REMARK  8 active torsions:
REMARK  status: ('A' for Active; 'I' for Inactive)
REMARK    1  A    between atoms: C_7  and  C_1 
REMARK    2  A    between atoms: S_2  and  N_8 
REMARK    3  A    between atoms: C_11  and  S_2 
REMARK    4  A    between atoms: O_17  and  C_7 
REMARK    5  A    between atoms: N_8  and  C_13 
REMARK    6  A    between atoms: C_22  and  O_17 
REMARK    7  A    between atoms: O_19  and  C_23 
REMARK    8  A    between atoms: C_23  and  C_22 
ROOT
ATOM      1  C   UNL d   1     -45.915  12.854  22.633  0.00  0.00     0.088 A 
ATOM      2  C   UNL d   1     -45.246  13.196  22.298  0.00  0.00     0.105 A 
ATOM      3  C   UNL d   1     -46.477  13.441  22.742  0.00  0.00     0.031 A 
ATOM      4  O   UNL d   1     -45.402  14.012  22.201  0.00  0.00    -0.307 OA
ATOM      5  C   UNL d   1     -46.160  14.155  22.475  0.00  0.00     0.100 A 
ATOM      6  C   UNL d   1     -47.243  13.419  23.052  0.00  0.00     0.022 A 
ATOM      7  C   UNL d   1     -47.685  14.108  23.094  0.00  0.00     0.094 A 
ATOM      8  C   UNL d   1     -46.610  14.846  22.519  0.00  0.00     0.026 A 
ATOM      9  C   UNL d   1     -47.368  14.821  22.827  0.00  0.00     0.022 A 
ATOM     10  C   UNL d   1     -44.534  12.854  22.081  0.00  0.00     0.027 C 
ENDROOT
BRANCH   7  11
ATOM     11  N   UNL d   1     -48.489  14.074  23.421  0.00  0.00    -0.158 NA
BRANCH  11  12
ATOM     12  S   UNL d   1     -49.130  13.827  22.951  0.00  0.00     0.285 S 
ATOM     13  O   UNL d   1     -49.168  14.556  22.566  0.00  0.00    -0.198 OA
ATOM     14  O   UNL d   1     -49.116  13.061  23.332  0.00  0.00    -0.198 OA
BRANCH  12  15
ATOM     15  C   UNL d   1     -49.783  13.541  22.489  0.00  0.00     0.105 A 
ATOM     16  C   UNL d   1     -50.199  14.095  22.038  0.00  0.00     0.013 A 
ATOM     17  C   UNL d   1     -50.839  13.853  21.577  0.00  0.00     0.001 A 
ATOM     18  C   UNL d   1     -51.062  13.057  21.567  0.00  0.00     0.000 A 
ATOM     19  C   UNL d   1     -50.646  12.511  22.015  0.00  0.00     0.001 A 
ATOM     20  C   UNL d   1     -50.007  12.754  22.476  0.00  0.00     0.013 A 
ENDBRANCH  12  15
ENDBRANCH  11  12
ENDBRANCH   7  11
BRANCH   1  21
ATOM     21  C   UNL d   1     -45.959  12.032  22.812  0.00  0.00     0.302 C 
ATOM     22  O   UNL d   1     -46.556  11.551  22.494  0.00  0.00    -0.259 OA
BRANCH  21  23
ATOM     23  O   UNL d   1     -45.386  11.701  23.320  0.00  0.00    -0.269 OA
BRANCH  23  24
ATOM     24  C   UNL d   1     -45.385  10.886  23.487  0.00  0.00     0.152 C 
BRANCH  24  25
ATOM     25  C   UNL d   1     -44.686  10.493  23.674  0.00  0.00     0.143 C 
BRANCH  25  26
ATOM     26  O   UNL d   1     -44.631   9.660  23.674  0.00  0.00    -0.324 OA
ATOM     27  C   UNL d   1     -43.910   9.312  23.610  0.00  0.00     0.182 C 
ENDBRANCH  25  26
ENDBRANCH  24  25
ENDBRANCH  23  24
ENDBRANCH  21  23
ENDBRANCH   1  21
TORSDOF 8
ENDMDL
MODEL 3
REMARK VINA RESULT:      -6.1      1.523      5.112
REMARK  8 active torsions:
REMARK  status: ('A' for Active; 'I' for Inactive)
REMARK    1  A    between atoms: C_7  and  C_1 
REMARK    2  A    between atoms: S_2  and  N_8 
REMARK    3  A    between atoms: C_11  and  S_2 
REMARK    4  A    between atoms: O_17  and  C_7 
REMARK    5  A    between atoms: N_8  and  C_13 
REMARK    6  A    between atoms: C_22  and  O_17 
REMARK    7  A    between atoms: O_19  and  C_23 
REMARK    8  A    between atoms: C_23  and  C_22 
ROOT
ATOM      1  C   UNL d   1     -45.276  12.453  22.439  0.00  0.00     0.088 A 
ATOM      2  C   UNL d   1     -45.114  11.823  22.943  0.00  0.00     0.105 A 
ATOM      3  C   UNL d   1     -45.978  12.800  22.680  0.00  0.00     0.031 A 
ATOM      4  O   UNL d   1     -45.732  11.784  23.504  0.00  0.00    -0.307 OA
ATOM      5  C   UNL d   1     -46.259  12.387  23.336  0.00  0.00     0.100 A 
ATOM      6  C   UNL d   1     -46.403  13.445  22.384  0.00  0.00     0.022 A 
ATOM      7  C   UNL d   1     -47.103  13.671  22.746  0.00  0.00     0.094 A 
ATOM      8  C   UNL d   1     -46.965  12.619  23.698  0.00  0.00     0.026 A 
ATOM      9  C   UNL d   1     -47.384  13.258  23.402  0.00  0.00     0.022 A 
ATOM     10  C   UNL d   1     -44.484  11.299  22.942  0.00  0.00     0.027 C 
ENDROOT
BRANCH   7  11
ATOM     11  N   UNL d   1     -47.542  14.350  22.427  0.00  0.00    -0.158 NA
BRANCH  11  12
ATOM     12  S   UNL d   1     -48.362  14.299  22.286  0.00  0.00     0.285 S 
ATOM     13  O   UNL d   1     -48.248  13.844  21.606  0.00  0.00    -0.198 OA
ATOM     14  O   UNL d   1     -48.511  14.768  22.987  0.00  0.00    -0.198 OA
BRANCH  12  15
ATOM     15  C   UNL d   1     -49.203  14.268  22.175  0.00  0.00     0.105 A 
ATOM     16  C   UNL d   1     -49.490  13.752  21.598  0.00  0.00     0.013 A 
ATOM     17  C   UNL d   1     -50.302  13.696  21.463  0.00  0.00     0.001 A 
ATOM     18  C   UNL d   1     -50.827  14.157  21.905  0.00  0.00     0.000 A 
ATOM     19  C   UNL d   1     -50.537  14.668  22.477  0.00  0.00     0.001 A 
ATOM     20  C   UNL d   1     -49.725  14.723  22.612  0.00  0.00     0.013 A 
ENDBRANCH  12  15
ENDBRANCH  11  12
ENDBRANCH   7  11
BRANCH   1  21
ATOM     21  C   UNL d   1     -44.768  12.661  21.799  0.00  0.00     0.302 C 
ATOM     22  O   UNL d   1     -45.014  12.586  21.010  0.00  0.00    -0.259 OA
BRANCH  21  23
ATOM     23  O   UNL d   1     -44.004  12.946  21.970  0.00  0.00    -0.269 OA
BRANCH  23  24
ATOM     24  C   UNL d   1     -43.412  12.956  21.386  0.00  0.00     0.152 C 
BRANCH  24  25
ATOM     25  C   UNL d   1     -42.803  13.511  21.409  0.00  0.00     0.143 C 
BRANCH  25  26
ATOM     26  O   UNL d   1     -42.110  13.427  20.953  0.00  0.00    -0.324 OA
ATOM     27  C   UNL d   1     -41.556  14.010  20.966  0.00  0.00     0.182 C 
ENDBRANCH  25  26
ENDBRANCH  24  25
ENDBRANCH  23  24
ENDBRANCH  21  23
ENDBRANCH   1  21
TORSDOF 8
ENDMDL
MODEL 4
REMARK VINA RESULT:      -5.1      1.873      4.244
REMARK  8 active torsions:
REMARK  status: ('A' for Active; 'I' for Inactive)
REMARK    1  A    between atoms: C_7  and  C_1 
REMARK    2  A    between atoms: S_2  and  N_8 
REMARK    3  A    between atoms: C_11  and  S_2 
REMARK    4  A    between atoms: O_17  and  C_7 
REMARK    5  A    between atoms: N_8  and  C_13 
REMARK    6  A    between atoms: C_22  and  O_17 
REMARK    7  A    between atoms: O_19  and  C_23 
REMARK    8  A    between atoms: C_23  and  C_22 
ROOT
ATOM      1  C   UNL d   1     -47.040  12.002  23.376  0.00  0.00     0.088 A 
ATOM      2  C   UNL d   1     -46.704  11.252  23.367  0.00  0.00     0.105 A 
ATOM      3  C   UNL d   1     -47.849  11.920  23.481  0.00  0.00     0.031 A 
ATOM      4  O   UNL d   1     -47.321  10.697  23.469  0.00  0.00    -0.307 OA
ATOM      5  C   UNL d   1     -48.022  11.116  23.538  0.00  0.00     0.100 A 
ATOM      6  C   UNL d   1     -48.456  12.478  23.532  0.00  0.00     0.022 A 
ATOM      7  C   UNL d   1     -49.230  12.229  23.640  0.00  0.00     0.094 A 
ATOM      8  C   UNL d   1     -48.802  10.869  23.647  0.00  0.00     0.026 A 
ATOM      9  C   UNL d   1     -49.403  11.424  23.697  0.00  0.00     0.022 A 
ATOM     10  C   UNL d   1     -45.920  11.029  23.279  0.00  0.00     0.027 C 
ENDROOT
BRANCH   7  11
ATOM     11  N   UNL d   1     -49.861  12.823  23.693  0.00  0.00    -0.158 NA
BRANCH  11  12
ATOM     12  S   UNL d   1     -50.176  13.172  23.005  0.00  0.00     0.285 S 
ATOM     13  O   UNL d   1     -50.566  12.475  22.794  0.00  0.00    -0.198 OA
ATOM     14  O   UNL d   1     -49.784  13.908  23.198  0.00  0.00    -0.198 OA
BRANCH  12  15
ATOM     15  C   UNL d   1     -50.479  13.560  22.314  0.00  0.00     0.105 A 
ATOM     16  C   UNL d   1     -50.562  14.381  22.346  0.00  0.00     0.013 A 
ATOM     17  C   UNL d   1     -50.853  14.791  21.692  0.00  0.00     0.001 A 
ATOM     18  C   UNL d   1     -51.062  14.380  21.006  0.00  0.00     0.000 A 
ATOM     19  C   UNL d   1     -50.978  13.565  20.979  0.00  0.00     0.001 A 
ATOM     20  C   UNL d   1     -50.687  13.155  21.632  0.00  0.00     0.013 A 
ENDBRANCH  12  15
ENDBRANCH  11  12
ENDBRANCH   7  11
BRANCH   1  21
ATOM     21  C   UNL d   1     -46.580  12.703  23.288  0.00  0.00     0.302 C 
ATOM     22  O   UNL d   1     -45.808  12.755  23.588  0.00  0.00    -0.259 OA
BRANCH  21  23
ATOM     23  O   UNL d   1     -46.915  13.355  22.889  0.00  0.00    -0.269 OA
BRANCH  23  24
ATOM     24  C   UNL d   1     -46.432  13.946  22.559  0.00  0.00     0.152 C 
BRANCH  24  25
ATOM     25  C   UNL d   1     -46.753  14.544  22.093  0.00  0.00     0.143 C 
BRANCH  25  26
ATOM     26  O   UNL d   1     -46.928  15.300  22.401  0.00  0.00    -0.324 OA
ATOM     27  C   UNL d   1     -47.498  15.746  22.050  0.00  0.00     0.182 C 
ENDBRANCH  25  26
ENDBRANCH  24  25
ENDBRANCH  23  24
ENDBRANCH  21  23
ENDBRANCH   1  21
TORSDOF 8
ENDMDL
