MODEL 1
REMARK VINA RESULT:      -7.6      0.000      0.000
REMARK  3 active torsions:
REMARK  status: ('A' for Active; 'I' for Inactive)
REMARK    1  A    between atoms: C_10  and  C_4 
REMARK    2  A    between atoms: C_11  and  C_6 
REMARK    3  A    between atoms: C_12  and  C_9 
ROOT
ATOM      1  N   UNL d   1     -47.413  13.493  22.724  0.00  0.00    -0.212 N 
ATOM      2  C   UNL d   1     -47.341  14.321  22.668  0.00  0.00     0.166 A 
ATOM      3  N   UNL d   1     -46.666  13.161  22.619  0.00  0.00    -0.158 NA
ATOM      4  C   UNL d   1     -46.129  13.788  22.498  0.00  0.00     0.169 A 
ATOM      5  C   UNL d   1     -46.551  14.487  22.530  0.00  0.00     0.066 A 
ATOM      6  C   UNL d   1     -48.155  13.156  22.864  0.00  0.00     0.086 A 
ATOM      7  N   UNL d   1     -48.012  14.807  22.752  0.00  0.00    -0.227 NA
ATOM      8  C   UNL d   1     -48.832  13.632  22.950  0.00  0.00     0.038 A 
ATOM      9  C   UNL d   1     -48.760  14.460  22.894  0.00  0.00     0.085 A 
ENDROOT
BRANCH   6  10
ATOM     10  C   UNL d   1     -48.401  12.367  22.946  0.00  0.00     0.018 A 
ATOM     11  C   UNL d   1     -48.850  12.022  22.350  0.00  0.00     0.002 A 
ATOM     12  C   UNL d   1     -49.083  11.289  22.417  0.00  0.00     0.000 A 
ATOM     13  C   UNL d   1     -48.882  10.822  23.105  0.00  0.00     0.000 A 
ATOM     14  C   UNL d   1     -48.444  11.138  23.698  0.00  0.00     0.000 A 
ATOM     15  C   UNL d   1     -48.201  11.922  23.615  0.00  0.00     0.002 A 
ENDBRANCH   6  10
BRANCH   9  16
ATOM     16  C   UNL d   1     -49.409  14.943  22.975  0.00  0.00     0.018 A 
ATOM     17  C   UNL d   1     -49.495  15.428  23.630  0.00  0.00     0.002 A 
ATOM     18  C   UNL d   1     -50.146  15.901  23.695  0.00  0.00     0.000 A 
ATOM     19  C   UNL d   1     -50.751  15.918  23.102  0.00  0.00     0.000 A 
ATOM     20  C   UNL d   1     -50.664  15.433  22.447  0.00  0.00     0.000 A 
ATOM     21  C   UNL d   1     -49.992  14.941  22.375  0.00  0.00     0.002 A 
ENDBRANCH   9  16
BRANCH   4  22
ATOM     22  C   UNL d   1     -45.323  13.709  22.370  0.00  0.00     0.231 C 
ATOM     23  O   UNL d   1     -44.863  14.386  22.285  0.00  0.00    -0.643 OA
ATOM     24  O   UNL d   1     -44.996  12.950  22.328  0.00  0.00    -0.643 OA
ENDBRANCH   4  22
TORSDOF 3
ENDMDL
MODEL 2
REMARK VINA RESULT:      -7.1      2.021      3.261
REMARK  3 active torsions:
REMARK  status: ('A' for Active; 'I' for Inactive)
REMARK    1  A    between atoms: C_10  and  C_4 
REMARK    2  A    between atoms: C_11  and  C_6 
REMARK    3  A    between atoms: C_12  and  C_9 
ROOT
ATOM      1  N   UNL d   1     -46.698  12.064  23.180  0.00  0.00    -0.212 N 
ATOM      2  C   UNL d   1     -47.100  11.348  23.322  0.00  0.00     0.166 A 
ATOM      3  N   UNL d   1     -45.889  11.929  23.269  0.00  0.00    -0.158 NA
ATOM      4  C   UNL d   1     -45.791  11.125  23.468  0.00  0.00     0.169 A 
ATOM      5  C   UNL d   1     -46.533  10.783  23.497  0.00  0.00     0.066 A 
ATOM      6  C   UNL d   1     -47.128  12.743  22.987  0.00  0.00     0.086 A 
ATOM      7  N   UNL d   1     -47.930  11.316  23.270  0.00  0.00    -0.227 NA
ATOM      8  C   UNL d   1     -47.958  12.722  22.932  0.00  0.00     0.038 A 
ATOM      9  C   UNL d   1     -48.360  12.007  23.075  0.00  0.00     0.085 A 
ENDROOT
BRANCH   6  10
ATOM     10  C   UNL d   1     -46.893  13.521  22.818  0.00  0.00     0.018 A 
ATOM     11  C   UNL d   1     -47.273  14.147  23.193  0.00  0.00     0.002 A 
ATOM     12  C   UNL d   1     -47.061  14.873  23.043  0.00  0.00     0.000 A 
ATOM     13  C   UNL d   1     -46.433  15.045  22.489  0.00  0.00     0.000 A 
ATOM     14  C   UNL d   1     -46.049  14.452  22.111  0.00  0.00     0.000 A 
ATOM     15  C   UNL d   1     -46.284  13.679  22.280  0.00  0.00     0.002 A 
ENDBRANCH   6  10
BRANCH   9  16
ATOM     16  C   UNL d   1     -49.170  11.965  23.027  0.00  0.00     0.018 A 
ATOM     17  C   UNL d   1     -49.564  12.166  22.336  0.00  0.00     0.002 A 
ATOM     18  C   UNL d   1     -50.369  12.119  22.306  0.00  0.00     0.000 A 
ATOM     19  C   UNL d   1     -50.830  11.865  22.970  0.00  0.00     0.000 A 
ATOM     20  C   UNL d   1     -50.436  11.664  23.660  0.00  0.00     0.000 A 
ATOM     21  C   UNL d   1     -49.603  11.711  23.697  0.00  0.00     0.002 A 
ENDBRANCH   9  16
BRANCH   4  22
ATOM     22  C   UNL d   1     -45.076  10.751  23.609  0.00  0.00     0.231 C 
ATOM     23  O   UNL d   1     -44.394  11.206  23.684  0.00  0.00    -0.643 OA
ATOM     24  O   UNL d   1     -45.060   9.926  23.671  0.00  0.00    -0.643 OA
ENDBRANCH   4  22
TORSDOF 3
ENDMDL
MODEL 3
REMARK VINA RESULT:      -6.6      9.096     10.206
REMARK  3 active torsions:
REMARK  status: ('A' for Active; 'I' for Inactive)
REMARK    1  A    between atoms: C_10  and  C_4 
REMARK    2  A    between atoms: C_11  and  C_6 
REMARK    3  A    between atoms: C_12  and  C_9 
ROOT
ATOM      1  N   UNL d   1     -39.071  13.827  18.194  0.00  0.00    -0.212 N 
ATOM      2  C   UNL d   1     -38.687  13.521  18.867  0.00  0.00     0.166 A 
ATOM      3  N   UNL d   1     -38.896  13.340  17.552  0.00  0.00    -0.158 NA
ATOM      4  C   UNL d   1     -38.400  12.729  17.830  0.00  0.00     0.169 A 
ATOM      5  C   UNL d   1     -38.281  12.850  18.630  0.00  0.00     0.066 A 
ATOM      6  C   UNL d   1     -39.530  14.512  18.261  0.00  0.00     0.086 A 
ATOM      7  N   UNL d   1     -38.764  13.902  19.603  0.00  0.00    -0.227 NA
ATOM      8  C   UNL d   1     -39.614  14.900  18.991  0.00  0.00     0.038 A 
ATOM      9  C   UNL d   1     -39.230  14.594  19.664  0.00  0.00     0.085 A 
ENDROOT
BRANCH   6  10
ATOM     10  C   UNL d   1     -39.971  14.942  17.704  0.00  0.00     0.018 A 
ATOM     11  C   UNL d   1     -39.578  15.429  17.170  0.00  0.00     0.002 A 
ATOM     12  C   UNL d   1     -39.979  15.833  16.649  0.00  0.00     0.000 A 
ATOM     13  C   UNL d   1     -40.832  15.785  16.613  0.00  0.00     0.000 A 
ATOM     14  C   UNL d   1     -41.236  15.316  17.123  0.00  0.00     0.000 A 
ATOM     15  C   UNL d   1     -40.796  14.889  17.676  0.00  0.00     0.002 A 
ENDBRANCH   6  10
BRANCH   9  16
ATOM     16  C   UNL d   1     -39.299  14.959  20.388  0.00  0.00     0.018 A 
ATOM     17  C   UNL d   1     -39.907  14.764  20.903  0.00  0.00     0.002 A 
ATOM     18  C   UNL d   1     -39.960  15.136  21.617  0.00  0.00     0.000 A 
ATOM     19  C   UNL d   1     -39.405  15.727  21.859  0.00  0.00     0.000 A 
ATOM     20  C   UNL d   1     -38.797  15.922  21.344  0.00  0.00     0.000 A 
ATOM     21  C   UNL d   1     -38.737  15.540  20.603  0.00  0.00     0.002 A 
ENDBRANCH   9  16
BRANCH   4  22
ATOM     22  C   UNL d   1     -38.092  12.120  17.378  0.00  0.00     0.231 C 
ATOM     23  O   UNL d   1     -37.941  12.250  16.579  0.00  0.00    -0.643 OA
ATOM     24  O   UNL d   1     -37.941  11.390  17.737  0.00  0.00    -0.643 OA
ENDBRANCH   4  22
TORSDOF 3
ENDMDL
MODEL 4
REMARK VINA RESULT:      -5.5      5.930      8.690
REMARK  3 active torsions:
REMARK  status: ('A' for Active; 'I' for Inactive)
REMARK    1  A    between atoms: C_10  and  C_4 
REMARK    2  A    between atoms: C_11  and  C_6 
REMARK    3  A    between atoms: C_12  and  C_9 
ROOT
ATOM      1  N   UNL d   1     -41.309  14.008  20.720  0.00  0.00    -0.212 N 
ATOM      2  C   UNL d   1     -41.688  13.731  20.032  0.00  0.00     0.166 A 
ATOM      3  N   UNL d   1     -41.744  13.757  21.374  0.00  0.00    -0.158 NA
ATOM      4  C   UNL d   1     -42.397  13.323  21.088  0.00  0.00     0.169 A 
ATOM      5  C   UNL d   1     -42.352  13.314  20.272  0.00  0.00     0.066 A 
ATOM      6  C   UNL d   1     -40.615  14.453  20.653  0.00  0.00     0.086 A 
ATOM      7  N   UNL d   1     -41.371  13.901  19.281  0.00  0.00    -0.227 NA
ATOM      8  C   UNL d   1     -40.290  14.628  19.908  0.00  0.00     0.038 A 
ATOM      9  C   UNL d   1     -40.669  14.351  19.220  0.00  0.00     0.085 A 
ENDROOT
BRANCH   6  10
ATOM     10  C   UNL d   1     -40.120  14.799  21.223  0.00  0.00     0.018 A 
ATOM     11  C   UNL d   1     -40.225  15.591  21.418  0.00  0.00     0.002 A 
ATOM     12  C   UNL d   1     -39.770  15.922  21.947  0.00  0.00     0.000 A 
ATOM     13  C   UNL d   1     -39.152  15.478  22.338  0.00  0.00     0.000 A 
ATOM     14  C   UNL d   1     -39.032  14.705  22.164  0.00  0.00     0.000 A 
ATOM     15  C   UNL d   1     -39.525  14.362  21.597  0.00  0.00     0.002 A 
ENDBRANCH   6  10
BRANCH   9  16
ATOM     16  C   UNL d   1     -40.367  14.511  18.482  0.00  0.00     0.018 A 
ATOM     17  C   UNL d   1     -40.600  15.179  18.066  0.00  0.00     0.002 A 
ATOM     18  C   UNL d   1     -40.290  15.322  17.335  0.00  0.00     0.000 A 
ATOM     19  C   UNL d   1     -39.727  14.804  16.975  0.00  0.00     0.000 A 
ATOM     20  C   UNL d   1     -39.494  14.136  17.391  0.00  0.00     0.000 A 
ATOM     21  C   UNL d   1     -39.811  13.983  18.149  0.00  0.00     0.002 A 
ENDBRANCH   9  16
BRANCH   4  22
ATOM     22  C   UNL d   1     -42.976  12.971  21.548  0.00  0.00     0.231 C 
ATOM     23  O   UNL d   1     -42.840  12.221  21.859  0.00  0.00    -0.643 OA
ATOM     24  O   UNL d   1     -43.682  13.380  21.687  0.00  0.00    -0.643 OA
ENDBRANCH   4  22
TORSDOF 3
ENDMDL
MODEL 5
REMARK VINA RESULT:      -5.2      7.355      9.551
REMARK  3 active torsions:
REMARK  status: ('A' for Active; 'I' for Inactive)
REMARK    1  A    between atoms: C_10  and  C_4 
REMARK    2  A    between atoms: C_11  and  C_6 
REMARK    3  A    between atoms: C_12  and  C_9 
ROOT
ATOM      1  N   UNL d   1     -39.503  14.368  19.909  0.00  0.00    -0.212 N 
ATOM      2  C   UNL d   1     -38.734  14.059  19.990  0.00  0.00     0.166 A 
ATOM      3  N   UNL d   1     -39.657  14.473  19.105  0.00  0.00    -0.158 NA
ATOM      4  C   UNL d   1     -38.977  14.226  18.688  0.00  0.00     0.169 A 
ATOM      5  C   UNL d   1     -38.425  13.977  19.236  0.00  0.00     0.066 A 
ATOM      6  C   UNL d   1     -39.960  14.512  20.584  0.00  0.00     0.086 A 
ATOM      7  N   UNL d   1     -38.426  13.895  20.746  0.00  0.00    -0.227 NA
ATOM      8  C   UNL d   1     -39.661  14.353  21.343  0.00  0.00     0.038 A 
ATOM      9  C   UNL d   1     -38.892  14.043  21.425  0.00  0.00     0.085 A 
ENDROOT
BRANCH   6  10
ATOM     10  C   UNL d   1     -40.728  14.812  20.681  0.00  0.00     0.018 A 
ATOM     11  C   UNL d   1     -41.364  14.290  20.691  0.00  0.00     0.002 A 
ATOM     12  C   UNL d   1     -42.082  14.558  20.781  0.00  0.00     0.000 A 
ATOM     13  C   UNL d   1     -42.233  15.395  20.872  0.00  0.00     0.000 A 
ATOM     14  C   UNL d   1     -41.628  15.922  20.865  0.00  0.00     0.000 A 
ATOM     15  C   UNL d   1     -40.865  15.623  20.768  0.00  0.00     0.002 A 
ENDBRANCH   6  10
BRANCH   9  16
ATOM     16  C   UNL d   1     -38.582  13.880  22.158  0.00  0.00     0.018 A 
ATOM     17  C   UNL d   1     -38.532  13.110  22.434  0.00  0.00     0.002 A 
ATOM     18  C   UNL d   1     -38.221  12.966  23.165  0.00  0.00     0.000 A 
ATOM     19  C   UNL d   1     -37.940  13.588  23.665  0.00  0.00     0.000 A 
ATOM     20  C   UNL d   1     -37.990  14.359  23.389  0.00  0.00     0.000 A 
ATOM     21  C   UNL d   1     -38.311  14.513  22.633  0.00  0.00     0.002 A 
ENDBRANCH   9  16
BRANCH   4  22
ATOM     22  C   UNL d   1     -38.888  14.235  17.874  0.00  0.00     0.231 C 
ATOM     23  O   UNL d   1     -39.336  13.718  17.415  0.00  0.00    -0.643 OA
ATOM     24  O   UNL d   1     -38.348  14.764  17.535  0.00  0.00    -0.643 OA
ENDBRANCH   4  22
TORSDOF 3
ENDMDL
MODEL 6
REMARK VINA RESULT:      -5.2      8.650      9.927
REMARK  3 active torsions:
REMARK  status: ('A' for Active; 'I' for Inactive)
REMARK    1  A    between atoms: C_10  and  C_4 
REMARK    2  A    between atoms: C_11  and  C_6 
REMARK    3  A    between atoms: C_12  and  C_9 
ROOT
ATOM      1  N   UNL d   1     -40.322  15.081  17.702  0.00  0.00    -0.212 N 
ATOM      2  C   UNL d   1     -40.783  15.590  18.173  0.00  0.00     0.166 A 
ATOM      3  N   UNL d   1     -40.613  15.107  16.931  0.00  0.00    -0.158 NA
ATOM      4  C   UNL d   1     -41.259  15.635  16.926  0.00  0.00     0.169 A 
ATOM      5  C   UNL d   1     -41.352  15.922  17.686  0.00  0.00     0.066 A 
ATOM      6  C   UNL d   1     -39.696  14.662  18.045  0.00  0.00     0.086 A 
ATOM      7  N   UNL d   1     -40.616  15.677  18.984  0.00  0.00    -0.227 NA
ATOM      8  C   UNL d   1     -39.520  14.742  18.853  0.00  0.00     0.038 A 
ATOM      9  C   UNL d   1     -39.981  15.251  19.325  0.00  0.00     0.085 A 
ENDROOT
BRANCH   6  10
ATOM     10  C   UNL d   1     -39.148  14.125  17.728  0.00  0.00     0.018 A 
ATOM     11  C   UNL d   1     -38.485  14.412  17.334  0.00  0.00     0.002 A 
ATOM     12  C   UNL d   1     -37.970  13.921  17.037  0.00  0.00     0.000 A 
ATOM     13  C   UNL d   1     -38.074  13.075  17.107  0.00  0.00     0.000 A 
ATOM     14  C   UNL d   1     -38.712  12.772  17.486  0.00  0.00     0.000 A 
ATOM     15  C   UNL d   1     -39.256  13.308  17.801  0.00  0.00     0.002 A 
ENDBRANCH   6  10
BRANCH   9  16
ATOM     16  C   UNL d   1     -39.826  15.343  20.117  0.00  0.00     0.018 A 
ATOM     17  C   UNL d   1     -40.352  15.073  20.685  0.00  0.00     0.002 A 
ATOM     18  C   UNL d   1     -40.183  15.173  21.468  0.00  0.00     0.000 A 
ATOM     19  C   UNL d   1     -39.472  15.552  21.729  0.00  0.00     0.000 A 
ATOM     20  C   UNL d   1     -38.946  15.823  21.161  0.00  0.00     0.000 A 
ATOM     21  C   UNL d   1     -39.117  15.722  20.350  0.00  0.00     0.002 A 
ENDBRANCH   9  16
BRANCH   4  22
ATOM     22  C   UNL d   1     -41.714  15.828  16.273  0.00  0.00     0.231 C 
ATOM     23  O   UNL d   1     -41.347  15.922  15.542  0.00  0.00    -0.643 OA
ATOM     24  O   UNL d   1     -42.531  15.922  16.367  0.00  0.00    -0.643 OA
ENDBRANCH   4  22
TORSDOF 3
ENDMDL
