MODEL 1
REMARK VINA RESULT:      31.0      0.000      0.000
REMARK  3 active torsions:
REMARK  status: ('A' for Active; 'I' for Inactive)
REMARK    1  A    between atoms: C_7  and  C_1 
REMARK    2  A    between atoms: C_10  and  C_7 
REMARK    3  A    between atoms: N_8  and  C_9 
ROOT
ATOM      1  C   UNL d   1     -50.957  24.200  33.578  0.00  0.00     0.129 A 
ATOM      2  C   UNL d   1     -51.253  24.961  33.685  0.00  0.00     0.024 A 
ATOM      3  C   UNL d   1     -51.471  23.574  33.452  0.00  0.00     0.050 A 
ATOM      4  C   UNL d   1     -52.288  23.701  33.431  0.00  0.00     0.121 A 
ATOM      5  C   UNL d   1     -52.591  24.460  33.537  0.00  0.00     0.119 A 
ATOM      6  C   UNL d   1     -52.068  25.096  33.665  0.00  0.00     0.028 A 
ATOM      7  O   UNL d   1     -52.927  23.190  33.317  0.00  0.00    -0.299 OA
ATOM      8  O   UNL d   1     -53.407  24.424  33.490  0.00  0.00    -0.300 OA
ATOM      9  C   UNL d   1     -53.619  23.637  33.353  0.00  0.00     0.304 A 
ENDROOT
BRANCH   2  10
ATOM     10  C   UNL d   1     -50.735  25.584  33.810  0.00  0.00     0.011 C 
BRANCH  10  11
ATOM     11  C   UNL d   1     -50.994  26.365  33.683  0.00  0.00     0.116 A 
ATOM     12  C   UNL d   1     -51.804  26.534  33.667  0.00  0.00     0.288 A 
ATOM     13  N   UNL d   1     -52.062  27.301  33.542  0.00  0.00    -0.152 NA
ATOM     14  O   UNL d   1     -52.354  25.921  33.777  0.00  0.00    -0.265 OA
ATOM     15  C   UNL d   1     -51.515  27.901  33.434  0.00  0.00     0.374 A 
ATOM     16  N   UNL d   1     -50.704  27.732  33.451  0.00  0.00    -0.152 NA
ATOM     17  O   UNL d   1     -51.770  28.681  33.307  0.00  0.00    -0.242 OA
ATOM     18  C   UNL d   1     -50.447  26.964  33.576  0.00  0.00     0.288 A 
ATOM     19  O   UNL d   1     -49.640  26.796  33.592  0.00  0.00    -0.265 OA
ENDBRANCH  10  11
ENDBRANCH   2  10
BRANCH   1  20
ATOM     20  N   UNL d   1     -50.148  24.070  33.598  0.00  0.00    -0.114 N 
ATOM     21  O   UNL d   1     -49.850  23.365  33.909  0.00  0.00    -0.532 OA
ATOM     22  O   UNL d   1     -49.633  24.639  33.310  0.00  0.00    -0.532 OA
ENDBRANCH   1  20
TORSDOF 3
ENDMDL
