MODEL 1
REMARK VINA RESULT:      50.6      0.000      0.000
REMARK  6 active torsions:
REMARK  status: ('A' for Active; 'I' for Inactive)
REMARK    1  A    between atoms: N_2  and  S_1 
REMARK    2  A    between atoms: C_8  and  S_1 
REMARK    3  A    between atoms: C_4  and  C_3 
REMARK    4  A    between atoms: O_18  and  C_5 
REMARK    5  A    between atoms: O_20  and  C_12 
REMARK    6  A    between atoms: O_21  and  C_13 
ROOT
ATOM      1  N   UNL d   1      45.224 -15.895  44.393  0.00  0.00    -0.127 NA
ATOM      2  C   UNL d   1      45.949 -16.281  44.401  0.00  0.00     0.086 A 
ATOM      3  S   UNL d   1      46.619 -15.892  44.673  0.00  0.00    -0.073 SA
ATOM      4  C   UNL d   1      45.830 -14.724  44.929  0.00  0.00     0.074 A 
ATOM      5  C   UNL d   1      46.556 -15.110  44.937  0.00  0.00     0.050 A 
ENDROOT
BRANCH   2   6
ATOM      6  C   UNL d   1      46.010 -17.061  44.137  0.00  0.00     0.042 A 
ATOM      7  C   UNL d   1      46.075 -17.209  43.331  0.00  0.00     0.098 A 
ATOM      8  C   UNL d   1      46.134 -17.988  43.074  0.00  0.00     0.050 A 
ATOM      9  C   UNL d   1      46.130 -18.608  43.605  0.00  0.00     0.118 A 
ATOM     10  C   UNL d   1      46.064 -18.454  44.413  0.00  0.00     0.117 A 
ATOM     11  C   UNL d   1      46.004 -17.678  44.683  0.00  0.00     0.030 A 
BRANCH   7  12
ATOM     12  O   UNL d   1      46.080 -16.592  42.788  0.00  0.00    -0.328 OA
ATOM     13  C   UNL d   1      46.213 -16.749  41.990  0.00  0.00     0.181 C 
ENDBRANCH   7  12
BRANCH   9  14
ATOM     14  O   UNL d   1      46.189 -19.380  43.344  0.00  0.00    -0.326 OA
ATOM     15  C   UNL d   1      45.558 -19.739  42.956  0.00  0.00     0.181 C 
ENDBRANCH   9  14
BRANCH  10  16
ATOM     16  O   UNL d   1      46.059 -19.074  44.954  0.00  0.00    -0.326 OA
ATOM     17  C   UNL d   1      46.628 -19.665  44.913  0.00  0.00     0.181 C 
ENDBRANCH  10  16
ENDBRANCH   2   6
BRANCH   1  18
ATOM     18  S   UNL d   1      44.542 -15.290  44.471  0.00  0.00     0.255 S 
ATOM     19  O   UNL d   1      43.759 -14.880  44.666  0.00  0.00    -0.205 OA
ATOM     20  O   UNL d   1      44.048 -15.907  44.916  0.00  0.00    -0.205 OA
BRANCH  18  21
ATOM     21  C   UNL d   1      44.792 -14.521  44.078  0.00  0.00     0.099 A 
ATOM     22  C   UNL d   1      45.645 -14.231  44.141  0.00  0.00     0.015 A 
ATOM     23  C   UNL d   1      45.898 -13.470  43.753  0.00  0.00     0.030 A 
ATOM     24  C   UNL d   1      45.299 -12.983  43.293  0.00  0.00     0.140 A 
ATOM     25  C   UNL d   1      44.441 -13.264  43.224  0.00  0.00     0.030 A 
ATOM     26  F   UNL d   1      45.544 -12.204  42.893  0.00  0.00    -0.204 F 
ATOM     27  C   UNL d   1      44.182 -14.038  43.618  0.00  0.00     0.015 A 
ENDBRANCH  18  21
ENDBRANCH   1  18
TORSDOF 6
ENDMDL
