MODEL 1
REMARK VINA RESULT:      11.9      0.000      0.000
REMARK  6 active torsions:
REMARK  status: ('A' for Active; 'I' for Inactive)
REMARK    1  A    between atoms: S_2  and  C_1 
REMARK    2  A    between atoms: N_3  and  S_2 
REMARK    3  A    between atoms: C_17  and  N_3 
REMARK    4  A    between atoms: C_4  and  C_12 
REMARK    5  A    between atoms: O_20  and  C_4 
REMARK    6  A    between atoms: C_23  and  O_20 
ROOT
ATOM      1  S   UNL d   1      46.186 -18.090  43.742  0.00  0.00     0.153 S 
ATOM      2  O   UNL d   1      45.828 -17.712  43.127  0.00  0.00    -0.232 OA
ENDROOT
BRANCH   1   3
ATOM      3  C   UNL d   1      46.325 -18.673  43.360  0.00  0.00     0.108 A 
ATOM      4  C   UNL d   1      46.328 -18.875  44.070  0.00  0.00     0.023 A 
ATOM      5  C   UNL d   1      46.497 -19.718  44.101  0.00  0.00     0.024 A 
ATOM      6  C   UNL d   1      46.646 -20.330  43.642  0.00  0.00     0.009 A 
ATOM      7  C   UNL d   1      46.389 -19.089  43.730  0.00  0.00    -0.027 A 
ATOM      8  C   UNL d   1      46.643 -20.101  42.833  0.00  0.00     0.024 A 
ATOM      9  C   UNL d   1      46.507 -19.413  42.769  0.00  0.00     0.023 A 
ATOM     10  C   UNL d   1      46.526 -19.415  42.408  0.00  0.00    -0.027 A 
ATOM     11  C   UNL d   1      46.380 -18.815  42.858  0.00  0.00    -0.012 A 
ATOM     12  C   UNL d   1      46.209 -17.958  42.806  0.00  0.00    -0.013 A 
ENDBRANCH   1   3
BRANCH   1  13
ATOM     13  N   UNL d   1      46.247 -17.711  44.482  0.00  0.00    -0.185 NA
BRANCH  13  14
ATOM     14  C   UNL d   1      46.002 -16.914  44.563  0.00  0.00     0.091 A 
ATOM     15  C   UNL d   1      45.231 -16.748  44.879  0.00  0.00     0.020 A 
ATOM     16  C   UNL d   1      45.001 -15.999  44.955  0.00  0.00     0.007 A 
ATOM     17  C   UNL d   1      45.498 -15.381  44.731  0.00  0.00     0.064 A 
ATOM     18  C   UNL d   1      46.250 -15.529  44.422  0.00  0.00     0.007 A 
ATOM     19  C   UNL d   1      46.489 -16.307  44.344  0.00  0.00     0.020 A 
BRANCH  17  20
ATOM     20  C   UNL d   1      45.236 -14.577  44.819  0.00  0.00     0.300 C 
ATOM     21  O   UNL d   1      44.433 -14.410  44.781  0.00  0.00    -0.259 OA
BRANCH  20  22
ATOM     22  O   UNL d   1      45.798 -13.990  44.938  0.00  0.00    -0.271 OA
BRANCH  22  23
ATOM     23  C   UNL d   1      45.598 -13.214  44.720  0.00  0.00     0.126 C 
ATOM     24  C   UNL d   1      46.101 -12.595  44.955  0.00  0.00     0.029 C 
ENDBRANCH  22  23
ENDBRANCH  20  22
ENDBRANCH  17  20
ENDBRANCH  13  14
ENDBRANCH   1  13
TORSDOF 6
ENDMDL
MODEL 2
REMARK VINA RESULT:      12.4      1.334      5.025
REMARK  6 active torsions:
REMARK  status: ('A' for Active; 'I' for Inactive)
REMARK    1  A    between atoms: S_2  and  C_1 
REMARK    2  A    between atoms: N_3  and  S_2 
REMARK    3  A    between atoms: C_17  and  N_3 
REMARK    4  A    between atoms: C_4  and  C_12 
REMARK    5  A    between atoms: O_20  and  C_4 
REMARK    6  A    between atoms: C_23  and  O_20 
ROOT
ATOM      1  S   UNL d   1      45.580 -14.522  44.348  0.00  0.00     0.153 S 
ATOM      2  O   UNL d   1      46.212 -14.581  43.851  0.00  0.00    -0.232 OA
ENDROOT
BRANCH   1   3
ATOM      3  C   UNL d   1      45.659 -13.821  44.435  0.00  0.00     0.108 A 
ATOM      4  C   UNL d   1      45.112 -13.917  43.949  0.00  0.00     0.023 A 
ATOM      5  C   UNL d   1      44.828 -13.139  43.717  0.00  0.00     0.024 A 
ATOM      6  C   UNL d   1      44.949 -12.380  43.843  0.00  0.00     0.009 A 
ATOM      7  C   UNL d   1      45.277 -13.579  44.103  0.00  0.00    -0.027 A 
ATOM      8  C   UNL d   1      45.572 -12.268  44.397  0.00  0.00     0.024 A 
ATOM      9  C   UNL d   1      45.830 -12.888  44.610  0.00  0.00     0.023 A 
ATOM     10  C   UNL d   1      46.076 -12.741  44.831  0.00  0.00    -0.027 A 
ATOM     11  C   UNL d   1      45.957 -13.485  44.707  0.00  0.00    -0.012 A 
ATOM     12  C   UNL d   1      46.259 -14.269  44.955  0.00  0.00    -0.013 A 
ENDBRANCH   1   3
BRANCH   1  13
ATOM     13  N   UNL d   1      45.140 -15.203  44.542  0.00  0.00    -0.185 NA
BRANCH  13  14
ATOM     14  C   UNL d   1      45.439 -15.961  44.344  0.00  0.00     0.091 A 
ATOM     15  C   UNL d   1      45.840 -16.416  44.939  0.00  0.00     0.020 A 
ATOM     16  C   UNL d   1      46.120 -17.127  44.754  0.00  0.00     0.007 A 
ATOM     17  C   UNL d   1      46.028 -17.431  43.993  0.00  0.00     0.064 A 
ATOM     18  C   UNL d   1      45.639 -16.999  43.406  0.00  0.00     0.007 A 
ATOM     19  C   UNL d   1      45.349 -16.260  43.598  0.00  0.00     0.020 A 
BRANCH  17  20
ATOM     20  C   UNL d   1      46.335 -18.201  43.807  0.00  0.00     0.300 C 
ATOM     21  O   UNL d   1      46.313 -18.792  44.378  0.00  0.00    -0.259 OA
BRANCH  20  22
ATOM     22  O   UNL d   1      46.646 -18.331  43.058  0.00  0.00    -0.271 OA
BRANCH  22  23
ATOM     23  C   UNL d   1      46.220 -18.824  42.543  0.00  0.00     0.126 C 
ATOM     24  C   UNL d   1      46.645 -19.333  42.041  0.00  0.00     0.029 C 
ENDBRANCH  22  23
ENDBRANCH  20  22
ENDBRANCH  17  20
ENDBRANCH  13  14
ENDBRANCH   1  13
TORSDOF 6
ENDMDL
