MODEL 1
REMARK VINA RESULT:      31.5      0.000      0.000
REMARK  5 active torsions:
REMARK  status: ('A' for Active; 'I' for Inactive)
REMARK    1  A    between atoms: N_8  and  C_2 
REMARK    2  A    between atoms: C_6  and  C_5 
REMARK    3  A    between atoms: C_7  and  C_6 
REMARK       I    between atoms: N_9  and  C_7 
REMARK    4  A    between atoms: C_18  and  N_9 
REMARK    5  A    between atoms: C_11  and  C_12 
ROOT
ATOM      1  C   UNL d   1     -54.722-102.252 -40.894  0.00  0.00     0.280 C 
ATOM      2  N   UNL d   1     -54.711-102.412 -41.711  0.00  0.00    -0.208 NA
ATOM      3  O   UNL d   1     -54.736-101.476 -40.626  0.00  0.00    -0.265 OA
ENDROOT
BRANCH   1   4
ATOM      4  C   UNL d   1     -54.719-102.876 -40.363  0.00  0.00     0.074 C 
BRANCH   4   5
ATOM      5  C   UNL d   1     -55.163-102.832 -39.669  0.00  0.00     0.093 A 
ATOM      6  C   UNL d   1     -55.986-102.823 -39.631  0.00  0.00     0.272 A 
ATOM      7  N   UNL d   1     -56.206-102.775 -38.838  0.00  0.00    -0.251 N 
ATOM      8  O   UNL d   1     -56.512-102.854 -40.267  0.00  0.00    -0.266 OA
ATOM      9  C   UNL d   1     -55.511-102.756 -38.381  0.00  0.00     0.182 A 
ATOM     10  C   UNL d   1     -56.972-102.751 -38.538  0.00  0.00     0.104 C 
ATOM     11  S   UNL d   1     -54.876-102.791 -38.905  0.00  0.00    -0.045 SA
BRANCH   9  12
ATOM     12  N   UNL d   1     -55.473-102.709 -37.557  0.00  0.00    -0.219 NA
ATOM     13  C   UNL d   1     -55.088-102.080 -37.193  0.00  0.00     0.122 C 
ENDBRANCH   9  12
ENDBRANCH   4   5
ENDBRANCH   1   4
BRANCH   2  14
ATOM     14  C   UNL d   1     -54.714-101.786 -42.246  0.00  0.00     0.085 A 
ATOM     15  C   UNL d   1     -54.715-100.996 -41.974  0.00  0.00     0.019 A 
ATOM     16  C   UNL d   1     -54.718-100.373 -42.515  0.00  0.00     0.005 A 
ATOM     17  C   UNL d   1     -54.721-100.529 -43.330  0.00  0.00     0.039 A 
ATOM     18  C   UNL d   1     -54.720-101.309 -43.599  0.00  0.00     0.005 A 
ATOM     19  C   UNL d   1     -54.717-101.938 -43.055  0.00  0.00     0.019 A 
BRANCH  17  20
ATOM     20  C   UNL d   1     -54.724 -99.907 -43.867  0.00  0.00     0.196 C 
ATOM     21  O   UNL d   1     -54.729-100.059 -44.678  0.00  0.00    -0.287 OA
ATOM     22  C   UNL d   1     -54.722 -99.128 -43.592  0.00  0.00     0.045 C 
ENDBRANCH  17  20
ENDBRANCH   2  14
TORSDOF 5
ENDMDL
