MODEL 1
REMARK VINA RESULT:     -12.3      0.000      0.000
REMARK  1 active torsions:
REMARK  status: ('A' for Active; 'I' for Inactive)
REMARK    1  A    between atoms: C_14  and  C_7 
ROOT
ATOM      1  C   UNL d   1      52.645  31.659  53.049  0.00  0.00     0.121 A 
ATOM      2  C   UNL d   1      53.262  31.925  53.528  0.00  0.00     0.058 A 
ATOM      3  N   UNL d   1      52.720  30.840  52.977  0.00  0.00    -0.195 NA
ATOM      4  S   UNL d   1      52.100  32.195  52.744  0.00  0.00    -0.068 SA
ATOM      5  C   UNL d   1      52.174  32.988  52.918  0.00  0.00     0.027 A 
ATOM      6  C   UNL d   1      52.791  33.254  53.397  0.00  0.00     0.003 A 
ATOM      7  C   UNL d   1      53.333  32.726  53.702  0.00  0.00     0.010 A 
ATOM      8  C   UNL d   1      53.375  30.600  53.406  0.00  0.00     0.311 A 
ATOM      9  S   UNL d   1      53.716  31.270  53.751  0.00  0.00    -0.024 SA
ATOM     10  C   UNL d   1      52.445  34.168  53.292  0.00  0.00    -0.017 A 
ATOM     11  C   UNL d   1      51.741  33.986  52.764  0.00  0.00    -0.012 A 
ATOM     12  C   UNL d   1      50.951  34.281  52.248  0.00  0.00     0.053 A 
ATOM     13  O   UNL d   1      53.650  29.826  53.482  0.00  0.00    -0.258 OA
ATOM     14  C   UNL d   1      52.846  35.031  53.709  0.00  0.00    -0.004 A 
ATOM     15  C   UNL d   1      52.195  34.682  53.193  0.00  0.00    -0.004 A 
ENDROOT
BRANCH   7  16
ATOM     16  C   UNL d   1      53.950  32.992  54.181  0.00  0.00     0.020 A 
ATOM     17  C   UNL d   1      54.674  33.209  53.838  0.00  0.00     0.099 A 
ATOM     18  N   UNL d   1      55.286  33.473  54.324  0.00  0.00    -0.242 NA
ATOM     19  C   UNL d   1      55.182  33.523  55.139  0.00  0.00     0.099 A 
ATOM     20  C   UNL d   1      54.459  33.306  55.472  0.00  0.00     0.021 A 
ATOM     21  C   UNL d   1      53.846  33.042  54.995  0.00  0.00     0.003 A 
ENDBRANCH   7  16
TORSDOF 1
ENDMDL
MODEL 2
REMARK VINA RESULT:     -11.5      1.097      2.753
REMARK  1 active torsions:
REMARK  status: ('A' for Active; 'I' for Inactive)
REMARK    1  A    between atoms: C_14  and  C_7 
ROOT
ATOM      1  C   UNL d   1      53.538  31.703  53.659  0.00  0.00     0.121 A 
ATOM      2  C   UNL d   1      52.888  32.099  53.340  0.00  0.00     0.058 A 
ATOM      3  N   UNL d   1      53.517  30.925  53.384  0.00  0.00    -0.195 NA
ATOM      4  S   UNL d   1      54.060  32.102  54.154  0.00  0.00    -0.068 SA
ATOM      5  C   UNL d   1      53.931  32.888  54.328  0.00  0.00     0.027 A 
ATOM      6  C   UNL d   1      53.280  33.283  54.009  0.00  0.00     0.003 A 
ATOM      7  C   UNL d   1      52.761  32.892  53.517  0.00  0.00     0.010 A 
ATOM      8  C   UNL d   1      52.861  30.838  52.900  0.00  0.00     0.311 A 
ATOM      9  S   UNL d   1      52.466  31.564  52.869  0.00  0.00    -0.024 SA
ATOM     10  C   UNL d   1      53.572  34.093  54.482  0.00  0.00    -0.017 A 
ATOM     11  C   UNL d   1      54.307  33.760  54.880  0.00  0.00    -0.012 A 
ATOM     12  C   UNL d   1      55.096  33.871  55.465  0.00  0.00     0.053 A 
ATOM     13  O   UNL d   1      52.632  30.148  52.511  0.00  0.00    -0.258 OA
ATOM     14  C   UNL d   1      53.103  35.020  54.466  0.00  0.00    -0.004 A 
ATOM     15  C   UNL d   1      53.794  34.536  54.784  0.00  0.00    -0.004 A 
ENDROOT
BRANCH   7  16
ATOM     16  C   UNL d   1      52.110  33.287  53.198  0.00  0.00     0.020 A 
ATOM     17  C   UNL d   1      51.379  33.259  53.590  0.00  0.00     0.099 A 
ATOM     18  N   UNL d   1      50.734  33.658  53.264  0.00  0.00    -0.242 NA
ATOM     19  C   UNL d   1      50.811  34.077  52.561  0.00  0.00     0.099 A 
ATOM     20  C   UNL d   1      51.541  34.100  52.178  0.00  0.00     0.021 A 
ATOM     21  C   UNL d   1      52.188  33.707  52.495  0.00  0.00     0.003 A 
ENDBRANCH   7  16
TORSDOF 1
ENDMDL
MODEL 3
REMARK VINA RESULT:     -10.6      2.078      3.852
REMARK  1 active torsions:
REMARK  status: ('A' for Active; 'I' for Inactive)
REMARK    1  A    between atoms: C_14  and  C_7 
ROOT
ATOM      1  C   UNL d   1      53.473  34.226  54.397  0.00  0.00     0.121 A 
ATOM      2  C   UNL d   1      52.783  34.361  53.965  0.00  0.00     0.058 A 
ATOM      3  N   UNL d   1      53.677  34.935  54.769  0.00  0.00    -0.195 NA
ATOM      4  S   UNL d   1      53.821  33.481  54.396  0.00  0.00    -0.068 SA
ATOM      5  C   UNL d   1      53.480  32.878  53.966  0.00  0.00     0.027 A 
ATOM      6  C   UNL d   1      52.791  33.013  53.533  0.00  0.00     0.003 A 
ATOM      7  C   UNL d   1      52.443  33.750  53.532  0.00  0.00     0.010 A 
ATOM      8  C   UNL d   1      53.122  35.503  54.569  0.00  0.00     0.311 A 
ATOM      9  S   UNL d   1      52.564  35.153  54.069  0.00  0.00    -0.024 SA
ATOM     10  C   UNL d   1      52.817  32.073  53.247  0.00  0.00    -0.017 A 
ATOM     11  C   UNL d   1      53.563  31.820  53.680  0.00  0.00    -0.012 A 
ATOM     12  C   UNL d   1      54.230  31.131  53.918  0.00  0.00     0.053 A 
ATOM     13  O   UNL d   1      53.117  36.289  54.820  0.00  0.00    -0.258 OA
ATOM     14  C   UNL d   1      52.135  31.600  52.622  0.00  0.00    -0.004 A 
ATOM     15  C   UNL d   1      52.886  31.513  53.113  0.00  0.00    -0.004 A 
ENDROOT
BRANCH   7  16
ATOM     16  C   UNL d   1      51.753  33.885  53.099  0.00  0.00     0.020 A 
ATOM     17  C   UNL d   1      51.013  33.756  53.452  0.00  0.00     0.099 A 
ATOM     18  N   UNL d   1      50.329  33.893  53.013  0.00  0.00    -0.242 NA
ATOM     19  C   UNL d   1      50.375  34.154  52.234  0.00  0.00     0.099 A 
ATOM     20  C   UNL d   1      51.115  34.280  51.890  0.00  0.00     0.021 A 
ATOM     21  C   UNL d   1      51.800  34.146  52.320  0.00  0.00     0.003 A 
ENDBRANCH   7  16
TORSDOF 1
ENDMDL
MODEL 4
REMARK VINA RESULT:     -10.0      1.618      2.841
REMARK  1 active torsions:
REMARK  status: ('A' for Active; 'I' for Inactive)
REMARK    1  A    between atoms: C_14  and  C_7 
ROOT
ATOM      1  C   UNL d   1      52.035  33.088  53.033  0.00  0.00     0.121 A 
ATOM      2  C   UNL d   1      52.669  33.333  53.501  0.00  0.00     0.058 A 
ATOM      3  N   UNL d   1      51.571  33.753  52.873  0.00  0.00    -0.195 NA
ATOM      4  S   UNL d   1      51.964  32.298  52.815  0.00  0.00    -0.068 SA
ATOM      5  C   UNL d   1      52.524  31.760  53.065  0.00  0.00     0.027 A 
ATOM      6  C   UNL d   1      53.158  32.004  53.533  0.00  0.00     0.003 A 
ATOM      7  C   UNL d   1      53.231  32.787  53.751  0.00  0.00     0.010 A 
ATOM      8  C   UNL d   1      51.913  34.402  53.238  0.00  0.00     0.311 A 
ATOM      9  S   UNL d   1      52.595  34.148  53.630  0.00  0.00    -0.024 SA
ATOM     10  C   UNL d   1      53.477  31.076  53.541  0.00  0.00    -0.017 A 
ATOM     11  C   UNL d   1      52.831  30.705  53.037  0.00  0.00    -0.012 A 
ATOM     12  C   UNL d   1      52.423  29.919  52.599  0.00  0.00     0.053 A 
ATOM     13  O   UNL d   1      51.628  35.176  53.220  0.00  0.00    -0.258 OA
ATOM     14  C   UNL d   1      54.328  30.720  54.021  0.00  0.00    -0.004 A 
ATOM     15  C   UNL d   1      53.615  30.513  53.509  0.00  0.00    -0.004 A 
ENDROOT
BRANCH   7  16
ATOM     16  C   UNL d   1      53.865  33.032  54.220  0.00  0.00     0.020 A 
ATOM     17  C   UNL d   1      53.794  33.021  55.047  0.00  0.00     0.099 A 
ATOM     18  N   UNL d   1      54.432  33.267  55.508  0.00  0.00    -0.242 NA
ATOM     19  C   UNL d   1      55.131  33.520  55.156  0.00  0.00     0.099 A 
ATOM     20  C   UNL d   1      55.193  33.528  54.333  0.00  0.00     0.021 A 
ATOM     21  C   UNL d   1      54.564  33.285  53.867  0.00  0.00     0.003 A 
ENDBRANCH   7  16
TORSDOF 1
ENDMDL
MODEL 5
REMARK VINA RESULT:      -9.6      1.801      3.539
REMARK  1 active torsions:
REMARK  status: ('A' for Active; 'I' for Inactive)
REMARK    1  A    between atoms: C_14  and  C_7 
ROOT
ATOM      1  C   UNL d   1      53.751  33.125  54.750  0.00  0.00     0.121 A 
ATOM      2  C   UNL d   1      53.141  33.459  54.307  0.00  0.00     0.058 A 
ATOM      3  N   UNL d   1      54.030  33.704  55.268  0.00  0.00    -0.195 NA
ATOM      4  S   UNL d   1      53.971  32.342  54.624  0.00  0.00    -0.068 SA
ATOM      5  C   UNL d   1      53.582  31.901  54.059  0.00  0.00     0.027 A 
ATOM      6  C   UNL d   1      52.972  32.235  53.615  0.00  0.00     0.003 A 
ATOM      7  C   UNL d   1      52.751  33.011  53.738  0.00  0.00     0.010 A 
ATOM      8  C   UNL d   1      53.597  34.390  55.149  0.00  0.00     0.311 A 
ATOM      9  S   UNL d   1      53.044  34.244  54.552  0.00  0.00    -0.024 SA
ATOM     10  C   UNL d   1      52.874  31.376  53.149  0.00  0.00    -0.017 A 
ATOM     11  C   UNL d   1      53.520  30.917  53.573  0.00  0.00    -0.012 A 
ATOM     12  C   UNL d   1      54.038  30.087  53.714  0.00  0.00     0.053 A 
ATOM     13  O   UNL d   1      53.696  35.103  55.551  0.00  0.00    -0.258 OA
ATOM     14  C   UNL d   1      52.191  31.157  52.397  0.00  0.00    -0.004 A 
ATOM     15  C   UNL d   1      52.864  30.847  52.911  0.00  0.00    -0.004 A 
ENDROOT
BRANCH   7  16
ATOM     16  C   UNL d   1      52.141  33.345  53.294  0.00  0.00     0.020 A 
ATOM     17  C   UNL d   1      52.320  33.794  52.619  0.00  0.00     0.099 A 
ATOM     18  N   UNL d   1      51.704  34.125  52.182  0.00  0.00    -0.242 NA
ATOM     19  C   UNL d   1      50.921  34.013  52.408  0.00  0.00     0.099 A 
ATOM     20  C   UNL d   1      50.752  33.566  53.081  0.00  0.00     0.021 A 
ATOM     21  C   UNL d   1      51.358  33.234  53.521  0.00  0.00     0.003 A 
ENDBRANCH   7  16
TORSDOF 1
ENDMDL
MODEL 6
REMARK VINA RESULT:      -9.5      1.580      2.694
REMARK  1 active torsions:
REMARK  status: ('A' for Active; 'I' for Inactive)
REMARK    1  A    between atoms: C_14  and  C_7 
ROOT
ATOM      1  C   UNL d   1      53.675  34.166  54.555  0.00  0.00     0.121 A 
ATOM      2  C   UNL d   1      53.839  33.368  54.423  0.00  0.00     0.058 A 
ATOM      3  N   UNL d   1      54.304  34.483  54.986  0.00  0.00    -0.195 NA
ATOM      4  S   UNL d   1      52.979  34.497  54.266  0.00  0.00    -0.068 SA
ATOM      5  C   UNL d   1      52.454  34.032  53.850  0.00  0.00     0.027 A 
ATOM      6  C   UNL d   1      52.618  33.234  53.718  0.00  0.00     0.003 A 
ATOM      7  C   UNL d   1      53.307  32.903  54.003  0.00  0.00     0.010 A 
ATOM      8  C   UNL d   1      54.852  33.888  55.120  0.00  0.00     0.311 A 
ATOM      9  S   UNL d   1      54.569  33.194  54.773  0.00  0.00    -0.024 SA
ATOM     10  C   UNL d   1      51.766  33.165  53.234  0.00  0.00    -0.017 A 
ATOM     11  C   UNL d   1      51.491  34.017  53.320  0.00  0.00    -0.012 A 
ATOM     12  C   UNL d   1      50.827  34.730  53.155  0.00  0.00     0.053 A 
ATOM     13  O   UNL d   1      55.563  33.967  55.531  0.00  0.00    -0.258 OA
ATOM     14  C   UNL d   1      51.379  32.312  52.785  0.00  0.00    -0.004 A 
ATOM     15  C   UNL d   1      51.254  33.187  52.960  0.00  0.00    -0.004 A 
ENDROOT
BRANCH   7  16
ATOM     16  C   UNL d   1      53.471  32.105  53.871  0.00  0.00     0.020 A 
ATOM     17  C   UNL d   1      53.244  31.539  54.434  0.00  0.00     0.099 A 
ATOM     18  N   UNL d   1      53.412  30.743  54.294  0.00  0.00    -0.242 NA
ATOM     19  C   UNL d   1      53.798  30.510  53.607  0.00  0.00     0.099 A 
ATOM     20  C   UNL d   1      54.020  31.079  53.052  0.00  0.00     0.021 A 
ATOM     21  C   UNL d   1      53.857  31.872  53.183  0.00  0.00     0.003 A 
ENDBRANCH   7  16
TORSDOF 1
ENDMDL
