MODEL 1
REMARK VINA RESULT:     -10.2      0.000      0.000
REMARK  3 active torsions:
REMARK  status: ('A' for Active; 'I' for Inactive)
REMARK       I    between atoms: C_4  and  N_1 
REMARK    1  A    between atoms: C_7  and  C_3 
REMARK    2  A    between atoms: C_8  and  C_4 
REMARK    3  A    between atoms: C_13  and  C_5 
ROOT
ATOM      1  N   UNL d   1      52.553  34.119  53.882  0.00  0.00    -0.194 N 
ATOM      2  N   UNL d   1      51.874  34.497  53.637  0.00  0.00    -0.163 NA
ATOM      3  C   UNL d   1      52.665  33.453  53.406  0.00  0.00     0.091 A 
ATOM      4  C   UNL d   1      53.068  34.357  54.517  0.00  0.00     0.286 C 
ATOM      5  C   UNL d   1      51.562  34.064  53.006  0.00  0.00     0.103 A 
ATOM      6  C   UNL d   1      52.051  33.424  52.867  0.00  0.00     0.040 A 
ATOM      7  O   UNL d   1      52.877  35.042  54.943  0.00  0.00    -0.265 OA
ENDROOT
BRANCH   3   8
ATOM      8  C   UNL d   1      53.294  32.913  53.469  0.00  0.00     0.057 A 
ATOM      9  C   UNL d   1      53.148  32.150  53.711  0.00  0.00     0.197 A 
ATOM     10  O   UNL d   1      52.393  31.910  53.892  0.00  0.00    -0.286 OA
ATOM     11  C   UNL d   1      53.776  31.610  53.774  0.00  0.00     0.042 A 
ATOM     12  C   UNL d   1      54.549  31.829  53.597  0.00  0.00     0.003 A 
ATOM     13  C   UNL d   1      54.676  32.607  53.353  0.00  0.00     0.000 A 
ATOM     14  C   UNL d   1      54.069  33.133  53.290  0.00  0.00     0.005 A 
ENDBRANCH   3   8
BRANCH   4  15
ATOM     15  C   UNL d   1      53.724  33.928  54.698  0.00  0.00     0.087 A 
ATOM     16  S   UNL d   1      54.454  34.049  54.391  0.00  0.00    -0.082 SA
ATOM     17  C   UNL d   1      54.967  33.482  54.730  0.00  0.00     0.036 A 
ATOM     18  C   UNL d   1      54.520  33.013  55.251  0.00  0.00     0.008 A 
ATOM     19  C   UNL d   1      53.753  33.289  55.231  0.00  0.00     0.012 A 
ENDBRANCH   4  15
BRANCH   5  20
ATOM     20  C   UNL d   1      50.874  34.251  52.590  0.00  0.00     0.019 A 
ATOM     21  C   UNL d   1      50.191  34.484  53.006  0.00  0.00     0.002 A 
ATOM     22  C   UNL d   1      49.500  34.672  52.594  0.00  0.00     0.000 A 
ATOM     23  C   UNL d   1      49.485  34.630  51.767  0.00  0.00     0.000 A 
ATOM     24  C   UNL d   1      50.168  34.397  51.351  0.00  0.00     0.000 A 
ATOM     25  C   UNL d   1      50.857  34.210  51.767  0.00  0.00     0.002 A 
ENDBRANCH   5  20
TORSDOF 3
ENDMDL
MODEL 2
REMARK VINA RESULT:     -10.0      1.852      3.457
REMARK  3 active torsions:
REMARK  status: ('A' for Active; 'I' for Inactive)
REMARK       I    between atoms: C_4  and  N_1 
REMARK    1  A    between atoms: C_7  and  C_3 
REMARK    2  A    between atoms: C_8  and  C_4 
REMARK    3  A    between atoms: C_13  and  C_5 
ROOT
ATOM      1  N   UNL d   1      52.917  32.600  53.704  0.00  0.00    -0.194 N 
ATOM      2  N   UNL d   1      52.622  31.883  53.451  0.00  0.00    -0.163 NA
ATOM      3  C   UNL d   1      53.637  32.463  54.087  0.00  0.00     0.091 A 
ATOM      4  C   UNL d   1      52.558  33.365  53.599  0.00  0.00     0.286 C 
ATOM      5  C   UNL d   1      53.160  31.299  53.678  0.00  0.00     0.103 A 
ATOM      6  C   UNL d   1      53.781  31.659  54.067  0.00  0.00     0.040 A 
ATOM      7  O   UNL d   1      51.832  33.407  53.201  0.00  0.00    -0.265 OA
ENDROOT
BRANCH   3   8
ATOM      8  C   UNL d   1      54.122  33.045  54.428  0.00  0.00     0.057 A 
ATOM      9  C   UNL d   1      54.834  33.232  54.082  0.00  0.00     0.197 A 
ATOM     10  O   UNL d   1      55.077  32.854  53.405  0.00  0.00    -0.286 OA
ATOM     11  C   UNL d   1      55.319  33.814  54.424  0.00  0.00     0.042 A 
ATOM     12  C   UNL d   1      55.094  34.210  55.110  0.00  0.00     0.003 A 
ATOM     13  C   UNL d   1      54.369  34.007  55.445  0.00  0.00     0.000 A 
ATOM     14  C   UNL d   1      53.896  33.443  55.116  0.00  0.00     0.005 A 
ENDBRANCH   3   8
BRANCH   4  15
ATOM     15  C   UNL d   1      52.915  34.029  53.879  0.00  0.00     0.087 A 
ATOM     16  S   UNL d   1      52.830  34.320  54.621  0.00  0.00    -0.082 SA
ATOM     17  C   UNL d   1      53.295  35.013  54.675  0.00  0.00     0.036 A 
ATOM     18  C   UNL d   1      53.664  35.130  53.938  0.00  0.00     0.008 A 
ATOM     19  C   UNL d   1      53.428  34.522  53.449  0.00  0.00     0.012 A 
ENDBRANCH   4  15
BRANCH   5  20
ATOM     20  C   UNL d   1      53.079  30.490  53.532  0.00  0.00     0.019 A 
ATOM     21  C   UNL d   1      53.233  29.943  54.141  0.00  0.00     0.002 A 
ATOM     22  C   UNL d   1      53.152  29.133  53.999  0.00  0.00     0.000 A 
ATOM     23  C   UNL d   1      52.918  28.864  53.253  0.00  0.00     0.000 A 
ATOM     24  C   UNL d   1      52.764  29.411  52.643  0.00  0.00     0.000 A 
ATOM     25  C   UNL d   1      52.846  30.219  52.789  0.00  0.00     0.002 A 
ENDBRANCH   5  20
TORSDOF 3
ENDMDL
MODEL 3
REMARK VINA RESULT:      -9.8      1.483      3.533
REMARK  3 active torsions:
REMARK  status: ('A' for Active; 'I' for Inactive)
REMARK       I    between atoms: C_4  and  N_1 
REMARK    1  A    between atoms: C_7  and  C_3 
REMARK    2  A    between atoms: C_8  and  C_4 
REMARK    3  A    between atoms: C_13  and  C_5 
ROOT
ATOM      1  N   UNL d   1      53.325  32.698  54.019  0.00  0.00    -0.194 N 
ATOM      2  N   UNL d   1      53.547  31.924  54.146  0.00  0.00    -0.163 NA
ATOM      3  C   UNL d   1      52.728  32.704  53.446  0.00  0.00     0.091 A 
ATOM      4  C   UNL d   1      53.642  33.389  54.400  0.00  0.00     0.286 C 
ATOM      5  C   UNL d   1      53.088  31.447  53.651  0.00  0.00     0.103 A 
ATOM      6  C   UNL d   1      52.587  31.930  53.224  0.00  0.00     0.040 A 
ATOM      7  O   UNL d   1      54.240  33.287  54.965  0.00  0.00    -0.265 OA
ENDROOT
BRANCH   3   8
ATOM      8  C   UNL d   1      52.345  33.381  53.154  0.00  0.00     0.057 A 
ATOM      9  C   UNL d   1      51.561  33.508  53.327  0.00  0.00     0.197 A 
ATOM     10  O   UNL d   1      51.147  32.979  53.784  0.00  0.00    -0.286 OA
ATOM     11  C   UNL d   1      51.178  34.185  53.035  0.00  0.00     0.042 A 
ATOM     12  C   UNL d   1      51.577  34.736  52.570  0.00  0.00     0.003 A 
ATOM     13  C   UNL d   1      52.371  34.589  52.405  0.00  0.00     0.000 A 
ATOM     14  C   UNL d   1      52.745  33.933  52.687  0.00  0.00     0.005 A 
ENDBRANCH   3   8
BRANCH   4  15
ATOM     15  C   UNL d   1      53.367  34.122  54.218  0.00  0.00     0.087 A 
ATOM     16  S   UNL d   1      52.779  34.504  54.605  0.00  0.00    -0.082 SA
ATOM     17  C   UNL d   1      52.672  35.247  54.235  0.00  0.00     0.036 A 
ATOM     18  C   UNL d   1      53.218  35.299  53.609  0.00  0.00     0.008 A 
ATOM     19  C   UNL d   1      53.646  34.605  53.600  0.00  0.00     0.012 A 
ENDBRANCH   4  15
BRANCH   5  20
ATOM     20  C   UNL d   1      53.132  30.624  53.602  0.00  0.00     0.019 A 
ATOM     21  C   UNL d   1      53.320  30.180  54.282  0.00  0.00     0.002 A 
ATOM     22  C   UNL d   1      53.365  29.356  54.236  0.00  0.00     0.000 A 
ATOM     23  C   UNL d   1      53.225  28.972  53.517  0.00  0.00     0.000 A 
ATOM     24  C   UNL d   1      53.037  29.416  52.838  0.00  0.00     0.000 A 
ATOM     25  C   UNL d   1      52.993  30.239  52.887  0.00  0.00     0.002 A 
ENDBRANCH   5  20
TORSDOF 3
ENDMDL
MODEL 4
REMARK VINA RESULT:      -9.8      0.954      2.019
REMARK  3 active torsions:
REMARK  status: ('A' for Active; 'I' for Inactive)
REMARK       I    between atoms: C_4  and  N_1 
REMARK    1  A    between atoms: C_7  and  C_3 
REMARK    2  A    between atoms: C_8  and  C_4 
REMARK    3  A    between atoms: C_13  and  C_5 
ROOT
ATOM      1  N   UNL d   1      52.165  33.189  52.957  0.00  0.00    -0.194 N 
ATOM      2  N   UNL d   1      51.472  33.269  52.535  0.00  0.00    -0.163 NA
ATOM      3  C   UNL d   1      52.238  33.841  53.461  0.00  0.00     0.091 A 
ATOM      4  C   UNL d   1      52.727  32.553  52.900  0.00  0.00     0.286 C 
ATOM      5  C   UNL d   1      51.112  33.972  52.778  0.00  0.00     0.103 A 
ATOM      6  C   UNL d   1      51.585  34.320  53.346  0.00  0.00     0.040 A 
ATOM      7  O   UNL d   1      52.572  31.938  52.365  0.00  0.00    -0.265 OA
ENDROOT
BRANCH   3   8
ATOM      8  C   UNL d   1      52.865  33.977  53.989  0.00  0.00     0.057 A 
ATOM      9  C   UNL d   1      53.373  34.599  53.859  0.00  0.00     0.197 A 
ATOM     10  O   UNL d   1      53.273  35.089  53.219  0.00  0.00    -0.286 OA
ATOM     11  C   UNL d   1      54.000  34.736  54.387  0.00  0.00     0.042 A 
ATOM     12  C   UNL d   1      54.122  34.253  55.043  0.00  0.00     0.003 A 
ATOM     13  C   UNL d   1      53.596  33.628  55.156  0.00  0.00     0.000 A 
ATOM     14  C   UNL d   1      52.986  33.493  54.646  0.00  0.00     0.005 A 
ENDBRANCH   3   8
BRANCH   4  15
ATOM     15  C   UNL d   1      53.391  32.547  53.353  0.00  0.00     0.087 A 
ATOM     16  S   UNL d   1      53.452  32.210  54.078  0.00  0.00    -0.082 SA
ATOM     17  C   UNL d   1      54.234  32.334  54.348  0.00  0.00     0.036 A 
ATOM     18  C   UNL d   1      54.643  32.758  53.760  0.00  0.00     0.008 A 
ATOM     19  C   UNL d   1      54.122  32.889  53.147  0.00  0.00     0.012 A 
ENDBRANCH   4  15
BRANCH   5  20
ATOM     20  C   UNL d   1      50.397  34.267  52.491  0.00  0.00     0.019 A 
ATOM     21  C   UNL d   1      50.209  34.183  51.683  0.00  0.00     0.002 A 
ATOM     22  C   UNL d   1      49.494  34.478  51.393  0.00  0.00     0.000 A 
ATOM     23  C   UNL d   1      48.963  34.856  51.902  0.00  0.00     0.000 A 
ATOM     24  C   UNL d   1      49.150  34.939  52.710  0.00  0.00     0.000 A 
ATOM     25  C   UNL d   1      49.866  34.644  52.997  0.00  0.00     0.002 A 
ENDBRANCH   5  20
TORSDOF 3
ENDMDL
