MODEL 1
REMARK VINA RESULT:      -5.2      0.000      0.000
REMARK  6 active torsions:
REMARK  status: ('A' for Active; 'I' for Inactive)
REMARK    1  A    between atoms: N_14  and  C_6 
REMARK    2  A    between atoms: C_20  and  N_14 
REMARK    3  A    between atoms: O_19  and  C_22 
REMARK    4  A    between atoms: C_23  and  O_19 
REMARK    5  A    between atoms: C_22  and  C_20 
REMARK    6  A    between atoms: C_21  and  C_23 
ROOT
ATOM      1  N   UNL d   1     -40.776  14.352  19.730  0.00  0.00    -0.193 N 
ATOM      2  C   UNL d   1     -40.156  14.854  19.500  0.00  0.00     0.168 A 
ATOM      3  C   UNL d   1     -39.884  14.855  18.729  0.00  0.00     0.073 A 
ATOM      4  C   UNL d   1     -40.235  14.352  18.188  0.00  0.00     0.185 A 
ATOM      5  N   UNL d   1     -40.855  13.851  18.418  0.00  0.00    -0.143 NA
ATOM      6  C   UNL d   1     -41.034  14.366  20.505  0.00  0.00     0.167 A 
ATOM      7  N   UNL d   1     -39.811  15.355  20.053  0.00  0.00    -0.227 NA
ATOM      8  C   UNL d   1     -39.271  15.351  18.502  0.00  0.00     0.007 A 
ATOM      9  N   UNL d   1     -39.971  14.342  17.403  0.00  0.00    -0.225 NA
ATOM     10  C   UNL d   1     -40.696  14.859  21.055  0.00  0.00     0.058 A 
ATOM     11  C   UNL d   1     -38.999  15.353  17.731  0.00  0.00     0.019 A 
ATOM     12  C   UNL d   1     -40.076  15.361  20.825  0.00  0.00     0.086 A 
ATOM     13  C   UNL d   1     -39.351  14.843  17.174  0.00  0.00     0.083 A 
ATOM     14  C   UNL d   1     -38.925  15.855  19.057  0.00  0.00     0.000 C 
ATOM     15  C   UNL d   1     -39.720  15.881  21.402  0.00  0.00     0.021 C 
ATOM     16  C   UNL d   1     -39.085  14.840  16.404  0.00  0.00     0.021 C 
ENDROOT
BRANCH   6  17
ATOM     17  N   UNL d   1     -41.674  13.845  20.733  0.00  0.00    -0.223 NA
BRANCH  17  18
ATOM     18  C   UNL d   1     -42.122  13.377  21.276  0.00  0.00     0.127 C 
BRANCH  18  19
ATOM     19  C   UNL d   1     -42.900  13.103  21.056  0.00  0.00     0.143 C 
BRANCH  19  20
ATOM     20  O   UNL d   1     -43.423  12.778  21.641  0.00  0.00    -0.298 OA
BRANCH  20  21
ATOM     21  C   UNL d   1     -44.264  12.917  21.593  0.00  0.00     0.168 C 
BRANCH  21  22
ATOM     22  C   UNL d   1     -44.784  12.581  22.181  0.00  0.00     0.261 C 
ATOM     23  O   UNL d   1     -45.360  13.079  22.571  0.00  0.00    -0.281 OA
ENDBRANCH  21  22
ENDBRANCH  20  21
ENDBRANCH  19  20
ENDBRANCH  18  19
ENDBRANCH  17  18
ENDBRANCH   6  17
TORSDOF 6
ENDMDL
MODEL 2
REMARK VINA RESULT:      -4.9      6.750      8.917
REMARK  6 active torsions:
REMARK  status: ('A' for Active; 'I' for Inactive)
REMARK    1  A    between atoms: N_14  and  C_6 
REMARK    2  A    between atoms: C_20  and  N_14 
REMARK    3  A    between atoms: O_19  and  C_22 
REMARK    4  A    between atoms: C_23  and  O_19 
REMARK    5  A    between atoms: C_22  and  C_20 
REMARK    6  A    between atoms: C_21  and  C_23 
ROOT
ATOM      1  N   UNL d   1     -47.976  12.772  23.173  0.00  0.00    -0.193 N 
ATOM      2  C   UNL d   1     -48.795  12.871  23.082  0.00  0.00     0.168 A 
ATOM      3  C   UNL d   1     -49.103  13.585  22.826  0.00  0.00     0.073 A 
ATOM      4  C   UNL d   1     -48.588  14.197  22.661  0.00  0.00     0.185 A 
ATOM      5  N   UNL d   1     -47.769  14.098  22.752  0.00  0.00    -0.143 NA
ATOM      6  C   UNL d   1     -47.688  12.052  23.431  0.00  0.00     0.167 A 
ATOM      7  N   UNL d   1     -49.303  12.248  23.251  0.00  0.00    -0.227 NA
ATOM      8  C   UNL d   1     -49.913  13.683  22.735  0.00  0.00     0.007 A 
ATOM      9  N   UNL d   1     -48.884  14.926  22.400  0.00  0.00    -0.225 NA
ATOM     10  C   UNL d   1     -48.186  11.432  23.599  0.00  0.00     0.058 A 
ATOM     11  C   UNL d   1     -50.221  14.395  22.479  0.00  0.00     0.019 A 
ATOM     12  C   UNL d   1     -49.005  11.532  23.508  0.00  0.00     0.086 A 
ATOM     13  C   UNL d   1     -49.703  15.025  22.309  0.00  0.00     0.083 A 
ATOM     14  C   UNL d   1     -50.422  13.056  22.905  0.00  0.00     0.000 C 
ATOM     15  C   UNL d   1     -49.530  10.882  23.684  0.00  0.00     0.021 C 
ATOM     16  C   UNL d   1     -50.002  15.738  22.053  0.00  0.00     0.021 C 
ENDROOT
BRANCH   6  17
ATOM     17  N   UNL d   1     -46.842  11.958  23.522  0.00  0.00    -0.223 NA
BRANCH  17  18
ATOM     18  C   UNL d   1     -46.135  11.528  23.693  0.00  0.00     0.127 C 
BRANCH  18  19
ATOM     19  C   UNL d   1     -45.500  11.515  23.124  0.00  0.00     0.143 C 
BRANCH  19  20
ATOM     20  O   UNL d   1     -44.696  11.414  23.378  0.00  0.00    -0.298 OA
BRANCH  20  21
ATOM     21  C   UNL d   1     -44.389  10.633  23.538  0.00  0.00     0.168 C 
BRANCH  21  22
ATOM     22  C   UNL d   1     -43.646  10.390  23.195  0.00  0.00     0.261 C 
ATOM     23  O   UNL d   1     -42.911  10.652  23.546  0.00  0.00    -0.281 OA
ENDBRANCH  21  22
ENDBRANCH  20  21
ENDBRANCH  19  20
ENDBRANCH  18  19
ENDBRANCH  17  18
ENDBRANCH   6  17
TORSDOF 6
ENDMDL
MODEL 3
REMARK VINA RESULT:      -4.5      2.917      6.935
REMARK  6 active torsions:
REMARK  status: ('A' for Active; 'I' for Inactive)
REMARK    1  A    between atoms: N_14  and  C_6 
REMARK    2  A    between atoms: C_20  and  N_14 
REMARK    3  A    between atoms: O_19  and  C_22 
REMARK    4  A    between atoms: C_23  and  O_19 
REMARK    5  A    between atoms: C_22  and  C_20 
REMARK    6  A    between atoms: C_21  and  C_23 
ROOT
ATOM      1  N   UNL d   1     -44.755  12.559  22.370  0.00  0.00    -0.193 N 
ATOM      2  C   UNL d   1     -45.368  12.218  22.814  0.00  0.00     0.168 A 
ATOM      3  C   UNL d   1     -46.090  12.596  22.888  0.00  0.00     0.073 A 
ATOM      4  C   UNL d   1     -46.196  13.316  22.516  0.00  0.00     0.185 A 
ATOM      5  N   UNL d   1     -45.583  13.657  22.072  0.00  0.00    -0.143 NA
ATOM      6  C   UNL d   1     -44.041  12.167  22.308  0.00  0.00     0.167 A 
ATOM      7  N   UNL d   1     -45.250  11.493  23.183  0.00  0.00    -0.227 NA
ATOM      8  C   UNL d   1     -46.696  12.258  23.327  0.00  0.00     0.007 A 
ATOM      9  N   UNL d   1     -46.921  13.711  22.582  0.00  0.00    -0.225 NA
ATOM     10  C   UNL d   1     -43.919  11.450  22.671  0.00  0.00     0.058 A 
ATOM     11  C   UNL d   1     -47.417  12.635  23.401  0.00  0.00     0.019 A 
ATOM     12  C   UNL d   1     -44.532  11.109  23.115  0.00  0.00     0.086 A 
ATOM     13  C   UNL d   1     -47.534  13.369  23.025  0.00  0.00     0.083 A 
ATOM     14  C   UNL d   1     -46.576  11.530  23.697  0.00  0.00     0.000 C 
ATOM     15  C   UNL d   1     -44.406  10.355  23.497  0.00  0.00     0.021 C 
ATOM     16  C   UNL d   1     -48.250  13.751  23.095  0.00  0.00     0.021 C 
ENDROOT
BRANCH   6  17
ATOM     17  N   UNL d   1     -43.415  12.526  21.848  0.00  0.00    -0.223 NA
BRANCH  17  18
ATOM     18  C   UNL d   1     -42.610  12.679  21.643  0.00  0.00     0.127 C 
BRANCH  18  19
ATOM     19  C   UNL d   1     -42.423  13.324  21.116  0.00  0.00     0.143 C 
BRANCH  19  20
ATOM     20  O   UNL d   1     -41.615  13.536  20.964  0.00  0.00    -0.298 OA
BRANCH  20  21
ATOM     21  C   UNL d   1     -41.408  14.343  20.778  0.00  0.00     0.168 C 
BRANCH  21  22
ATOM     22  C   UNL d   1     -40.619  14.529  20.511  0.00  0.00     0.261 C 
ATOM     23  O   UNL d   1     -40.510  15.028  19.824  0.00  0.00    -0.281 OA
ENDBRANCH  21  22
ENDBRANCH  20  21
ENDBRANCH  19  20
ENDBRANCH  18  19
ENDBRANCH  17  18
ENDBRANCH   6  17
TORSDOF 6
ENDMDL
MODEL 4
REMARK VINA RESULT:      -4.3      2.658      3.323
REMARK  6 active torsions:
REMARK  status: ('A' for Active; 'I' for Inactive)
REMARK    1  A    between atoms: N_14  and  C_6 
REMARK    2  A    between atoms: C_20  and  N_14 
REMARK    3  A    between atoms: O_19  and  C_22 
REMARK    4  A    between atoms: C_23  and  O_19 
REMARK    5  A    between atoms: C_22  and  C_20 
REMARK    6  A    between atoms: C_21  and  C_23 
ROOT
ATOM      1  N   UNL d   1     -39.435  14.316  18.841  0.00  0.00    -0.193 N 
ATOM      2  C   UNL d   1     -39.636  14.608  18.090  0.00  0.00     0.168 A 
ATOM      3  C   UNL d   1     -39.216  14.376  17.427  0.00  0.00     0.073 A 
ATOM      4  C   UNL d   1     -38.596  13.852  17.518  0.00  0.00     0.185 A 
ATOM      5  N   UNL d   1     -38.395  13.560  18.269  0.00  0.00    -0.143 NA
ATOM      6  C   UNL d   1     -39.865  14.559  19.491  0.00  0.00     0.167 A 
ATOM      7  N   UNL d   1     -40.261  15.134  18.011  0.00  0.00    -0.227 NA
ATOM      8  C   UNL d   1     -39.415  14.664  16.684  0.00  0.00     0.007 A 
ATOM      9  N   UNL d   1     -38.162  13.608  16.856  0.00  0.00    -0.225 NA
ATOM     10  C   UNL d   1     -40.485  15.080  19.418  0.00  0.00     0.058 A 
ATOM     11  C   UNL d   1     -38.996  14.433  16.022  0.00  0.00     0.019 A 
ATOM     12  C   UNL d   1     -40.686  15.371  18.668  0.00  0.00     0.086 A 
ATOM     13  C   UNL d   1     -38.362  13.899  16.106  0.00  0.00     0.083 A 
ATOM     14  C   UNL d   1     -40.044  15.193  16.606  0.00  0.00     0.000 C 
ATOM     15  C   UNL d   1     -41.337  15.918  18.589  0.00  0.00     0.021 C 
ATOM     16  C   UNL d   1     -37.941  13.665  15.450  0.00  0.00     0.021 C 
ENDROOT
BRANCH   6  17
ATOM     17  N   UNL d   1     -39.652  14.254  20.262  0.00  0.00    -0.223 NA
BRANCH  17  18
ATOM     18  C   UNL d   1     -39.589  14.281  21.104  0.00  0.00     0.127 C 
BRANCH  18  19
ATOM     19  C   UNL d   1     -38.870  14.022  21.483  0.00  0.00     0.143 C 
BRANCH  19  20
ATOM     20  O   UNL d   1     -38.901  13.586  22.212  0.00  0.00    -0.298 OA
BRANCH  20  21
ATOM     21  C   UNL d   1     -38.301  13.699  22.809  0.00  0.00     0.168 C 
BRANCH  21  22
ATOM     22  C   UNL d   1     -37.942  13.022  23.184  0.00  0.00     0.261 C 
ATOM     23  O   UNL d   1     -38.412  12.524  23.697  0.00  0.00    -0.281 OA
ENDBRANCH  21  22
ENDBRANCH  20  21
ENDBRANCH  19  20
ENDBRANCH  18  19
ENDBRANCH  17  18
ENDBRANCH   6  17
TORSDOF 6
ENDMDL
MODEL 5
REMARK VINA RESULT:      -3.8      5.830      7.410
REMARK  6 active torsions:
REMARK  status: ('A' for Active; 'I' for Inactive)
REMARK    1  A    between atoms: N_14  and  C_6 
REMARK    2  A    between atoms: C_20  and  N_14 
REMARK    3  A    between atoms: O_19  and  C_22 
REMARK    4  A    between atoms: C_23  and  O_19 
REMARK    5  A    between atoms: C_22  and  C_20 
REMARK    6  A    between atoms: C_21  and  C_23 
ROOT
ATOM      1  N   UNL d   1     -46.603  12.287  23.131  0.00  0.00    -0.193 N 
ATOM      2  C   UNL d   1     -45.795  12.269  22.945  0.00  0.00     0.168 A 
ATOM      3  C   UNL d   1     -45.338  11.616  23.130  0.00  0.00     0.073 A 
ATOM      4  C   UNL d   1     -45.694  10.982  23.503  0.00  0.00     0.185 A 
ATOM      5  N   UNL d   1     -46.503  11.000  23.689  0.00  0.00    -0.143 NA
ATOM      6  C   UNL d   1     -47.043  12.948  22.938  0.00  0.00     0.167 A 
ATOM      7  N   UNL d   1     -45.448  12.913  22.570  0.00  0.00    -0.227 NA
ATOM      8  C   UNL d   1     -44.539  11.599  22.946  0.00  0.00     0.007 A 
ATOM      9  N   UNL d   1     -45.245  10.313  23.697  0.00  0.00    -0.225 NA
ATOM     10  C   UNL d   1     -46.705  13.588  22.568  0.00  0.00     0.058 A 
ATOM     11  C   UNL d   1     -44.082  10.946  23.131  0.00  0.00     0.019 A 
ATOM     12  C   UNL d   1     -45.896  13.570  22.381  0.00  0.00     0.086 A 
ATOM     13  C   UNL d   1     -44.437  10.295  23.511  0.00  0.00     0.083 A 
ATOM     14  C   UNL d   1     -44.191  12.246  22.569  0.00  0.00     0.000 C 
ATOM     15  C   UNL d   1     -45.539  14.241  21.992  0.00  0.00     0.021 C 
ATOM     16  C   UNL d   1     -43.988   9.642  23.698  0.00  0.00     0.021 C 
ENDROOT
BRANCH   6  17
ATOM     17  N   UNL d   1     -47.876  12.958  23.134  0.00  0.00    -0.223 NA
BRANCH  17  18
ATOM     18  C   UNL d   1     -48.619  13.328  23.291  0.00  0.00     0.127 C 
BRANCH  18  19
ATOM     19  C   UNL d   1     -49.306  13.107  22.835  0.00  0.00     0.143 C 
BRANCH  19  20
ATOM     20  O   UNL d   1     -49.933  13.665  22.703  0.00  0.00    -0.298 OA
BRANCH  20  21
ATOM     21  C   UNL d   1     -50.711  13.395  22.479  0.00  0.00     0.168 C 
BRANCH  21  22
ATOM     22  C   UNL d   1     -51.031  13.606  21.716  0.00  0.00     0.261 C 
ATOM     23  O   UNL d   1     -51.027  14.425  21.467  0.00  0.00    -0.281 OA
ENDBRANCH  21  22
ENDBRANCH  20  21
ENDBRANCH  19  20
ENDBRANCH  18  19
ENDBRANCH  17  18
ENDBRANCH   6  17
TORSDOF 6
ENDMDL
MODEL 6
REMARK VINA RESULT:      -2.9      3.411      4.370
REMARK  6 active torsions:
REMARK  status: ('A' for Active; 'I' for Inactive)
REMARK    1  A    between atoms: N_14  and  C_6 
REMARK    2  A    between atoms: C_20  and  N_14 
REMARK    3  A    between atoms: O_19  and  C_22 
REMARK    4  A    between atoms: C_23  and  O_19 
REMARK    5  A    between atoms: C_22  and  C_20 
REMARK    6  A    between atoms: C_21  and  C_23 
ROOT
ATOM      1  N   UNL d   1     -38.194  14.119  18.620  0.00  0.00    -0.193 N 
ATOM      2  C   UNL d   1     -38.251  13.737  17.886  0.00  0.00     0.168 A 
ATOM      3  C   UNL d   1     -38.174  12.924  17.832  0.00  0.00     0.073 A 
ATOM      4  C   UNL d   1     -38.041  12.496  18.515  0.00  0.00     0.185 A 
ATOM      5  N   UNL d   1     -37.984  12.878  19.250  0.00  0.00    -0.143 NA
ATOM      6  C   UNL d   1     -38.274  14.932  18.654  0.00  0.00     0.167 A 
ATOM      7  N   UNL d   1     -38.385  14.178  17.206  0.00  0.00    -0.227 NA
ATOM      8  C   UNL d   1     -38.229  12.546  17.105  0.00  0.00     0.007 A 
ATOM      9  N   UNL d   1     -37.961  11.672  18.477  0.00  0.00    -0.225 NA
ATOM     10  C   UNL d   1     -38.406  15.372  17.984  0.00  0.00     0.058 A 
ATOM     11  C   UNL d   1     -38.153  11.734  17.051  0.00  0.00     0.019 A 
ATOM     12  C   UNL d   1     -38.462  14.990  17.250  0.00  0.00     0.086 A 
ATOM     13  C   UNL d   1     -38.017  11.290  17.742  0.00  0.00     0.083 A 
ATOM     14  C   UNL d   1     -38.364  12.990  16.422  0.00  0.00     0.000 C 
ATOM     15  C   UNL d   1     -38.602  15.451  16.545  0.00  0.00     0.021 C 
ATOM     16  C   UNL d   1     -37.940  10.481  17.695  0.00  0.00     0.021 C 
ENDROOT
BRANCH   6  17
ATOM     17  N   UNL d   1     -38.214  15.318  19.416  0.00  0.00    -0.223 NA
BRANCH  17  18
ATOM     18  C   UNL d   1     -38.472  15.836  20.032  0.00  0.00     0.127 C 
BRANCH  18  19
ATOM     19  C   UNL d   1     -38.335  15.624  20.847  0.00  0.00     0.143 C 
BRANCH  19  20
ATOM     20  O   UNL d   1     -38.876  15.871  21.453  0.00  0.00    -0.298 OA
BRANCH  20  21
ATOM     21  C   UNL d   1     -38.905  15.460  22.201  0.00  0.00     0.168 C 
BRANCH  21  22
ATOM     22  C   UNL d   1     -38.982  15.903  22.926  0.00  0.00     0.261 C 
ATOM     23  O   UNL d   1     -38.507  15.689  23.605  0.00  0.00    -0.281 OA
ENDBRANCH  21  22
ENDBRANCH  20  21
ENDBRANCH  19  20
ENDBRANCH  18  19
ENDBRANCH  17  18
ENDBRANCH   6  17
TORSDOF 6
ENDMDL
