MODEL 1
REMARK VINA RESULT:      -7.6      0.000      0.000
REMARK  5 active torsions:
REMARK  status: ('A' for Active; 'I' for Inactive)
REMARK    1  A    between atoms: N_2  and  S_1 
REMARK    2  A    between atoms: C_9  and  S_1 
REMARK    3  A    between atoms: C_8  and  N_2 
REMARK       I    between atoms: C_14  and  N_2 
REMARK    4  A    between atoms: C_17  and  C_3 
REMARK    5  A    between atoms: N_6  and  C_5 
ROOT
ATOM      1  N   UNL d   1      54.334  32.440  53.683  0.00  0.00    -0.198 N 
ATOM      2  C   UNL d   1      55.054  32.480  53.257  0.00  0.00     0.274 C 
ATOM      3  O   UNL d   1      55.514  33.174  53.284  0.00  0.00    -0.266 OA
ATOM      4  C   UNL d   1      55.324  31.840  52.805  0.00  0.00     0.067 C 
ENDROOT
BRANCH   1   5
ATOM      5  S   UNL d   1      53.883  31.726  53.642  0.00  0.00     0.274 S 
ATOM      6  O   UNL d   1      53.689  31.909  52.866  0.00  0.00    -0.200 OA
ATOM      7  O   UNL d   1      54.089  31.542  54.444  0.00  0.00    -0.200 OA
BRANCH   5   8
ATOM      8  C   UNL d   1      53.440  31.035  53.582  0.00  0.00     0.106 A 
ATOM      9  C   UNL d   1      53.582  30.411  54.066  0.00  0.00     0.037 A 
ATOM     10  C   UNL d   1      53.150  29.704  54.027  0.00  0.00     0.138 A 
ATOM     11  C   UNL d   1      52.516  29.667  53.420  0.00  0.00     0.080 A 
ATOM     12  C   UNL d   1      52.384  30.319  52.931  0.00  0.00     0.014 A 
ATOM     13 CL   UNL d   1      52.043  28.987  53.325  0.00  0.00    -0.081 Cl
ATOM     14  C   UNL d   1      52.841  30.986  53.017  0.00  0.00     0.014 A 
BRANCH  10  15
ATOM     15  N   UNL d   1      53.305  29.063  54.532  0.00  0.00    -0.113 N 
ATOM     16  O   UNL d   1      52.955  29.085  55.291  0.00  0.00    -0.532 OA
ATOM     17  O   UNL d   1      53.767  28.437  54.321  0.00  0.00    -0.532 OA
ENDBRANCH  10  15
ENDBRANCH   5   8
ENDBRANCH   1   5
BRANCH   1  18
ATOM     18  C   UNL d   1      54.078  33.081  54.127  0.00  0.00     0.078 A 
ATOM     19  C   UNL d   1      53.560  33.584  53.812  0.00  0.00     0.021 A 
ATOM     20  C   UNL d   1      53.281  34.245  54.238  0.00  0.00     0.029 A 
ATOM     21  C   UNL d   1      52.759  34.835  54.046  0.00  0.00     0.064 A 
ATOM     22  C   UNL d   1      53.543  34.383  55.004  0.00  0.00     0.100 A 
ATOM     23  C   UNL d   1      52.692  35.341  54.683  0.00  0.00     0.103 A 
ATOM     24  C   UNL d   1      52.232  36.020  54.757  0.00  0.00     0.027 C 
ATOM     25  O   UNL d   1      53.182  35.057  55.278  0.00  0.00    -0.307 OA
ATOM     26  C   UNL d   1      54.094  33.865  55.366  0.00  0.00     0.026 A 
ATOM     27  C   UNL d   1      54.355  33.226  54.935  0.00  0.00     0.020 A 
BRANCH  21  28
ATOM     28  C   UNL d   1      52.352  34.920  53.319  0.00  0.00     0.198 C 
ATOM     29  O   UNL d   1      52.718  35.220  52.655  0.00  0.00    -0.286 OA
ATOM     30  C   UNL d   1      51.538  34.683  53.290  0.00  0.00     0.045 C 
ENDBRANCH  21  28
ENDBRANCH   1  18
TORSDOF 5
ENDMDL
MODEL 2
REMARK VINA RESULT:      -6.3      2.047      3.309
REMARK  5 active torsions:
REMARK  status: ('A' for Active; 'I' for Inactive)
REMARK    1  A    between atoms: N_2  and  S_1 
REMARK    2  A    between atoms: C_9  and  S_1 
REMARK    3  A    between atoms: C_8  and  N_2 
REMARK       I    between atoms: C_14  and  N_2 
REMARK    4  A    between atoms: C_17  and  C_3 
REMARK    5  A    between atoms: N_6  and  C_5 
ROOT
ATOM      1  N   UNL d   1      52.274  34.098  53.249  0.00  0.00    -0.198 N 
ATOM      2  C   UNL d   1      52.581  34.748  53.679  0.00  0.00     0.274 C 
ATOM      3  O   UNL d   1      52.272  35.512  53.555  0.00  0.00    -0.266 OA
ATOM      4  C   UNL d   1      53.192  34.649  54.231  0.00  0.00     0.067 C 
ENDROOT
BRANCH   1   5
ATOM      5  S   UNL d   1      52.603  33.332  53.391  0.00  0.00     0.274 S 
ATOM      6  O   UNL d   1      53.122  33.455  52.768  0.00  0.00    -0.200 OA
ATOM      7  O   UNL d   1      52.062  33.213  54.035  0.00  0.00    -0.200 OA
BRANCH   5   8
ATOM      8  C   UNL d   1      52.935  32.590  53.514  0.00  0.00     0.106 A 
ATOM      9  C   UNL d   1      52.619  31.935  53.175  0.00  0.00     0.037 A 
ATOM     10  C   UNL d   1      52.934  31.176  53.282  0.00  0.00     0.138 A 
ATOM     11  C   UNL d   1      53.646  31.117  53.794  0.00  0.00     0.080 A 
ATOM     12  C   UNL d   1      53.958  31.801  54.134  0.00  0.00     0.014 A 
ATOM     13 CL   UNL d   1      54.015  30.385  53.945  0.00  0.00    -0.081 Cl
ATOM     14  C   UNL d   1      53.604  32.520  53.993  0.00  0.00     0.014 A 
BRANCH  10  15
ATOM     15  N   UNL d   1      52.600  30.503  52.927  0.00  0.00    -0.113 N 
ATOM     16  O   UNL d   1      52.832  30.334  52.142  0.00  0.00    -0.532 OA
ATOM     17  O   UNL d   1      52.074  30.022  53.302  0.00  0.00    -0.532 OA
ENDBRANCH  10  15
ENDBRANCH   5   8
ENDBRANCH   1   5
BRANCH   1  18
ATOM     18  C   UNL d   1      51.669  34.208  52.706  0.00  0.00     0.078 A 
ATOM     19  C   UNL d   1      50.954  34.417  52.963  0.00  0.00     0.021 A 
ATOM     20  C   UNL d   1      50.319  34.537  52.435  0.00  0.00     0.029 A 
ATOM     21  C   UNL d   1      49.546  34.748  52.554  0.00  0.00     0.064 A 
ATOM     22  C   UNL d   1      50.429  34.437  51.627  0.00  0.00     0.100 A 
ATOM     23  C   UNL d   1      49.171  34.782  51.830  0.00  0.00     0.103 A 
ATOM     24  C   UNL d   1      48.387  34.972  51.663  0.00  0.00     0.027 C 
ATOM     25  O   UNL d   1      49.724  34.588  51.254  0.00  0.00    -0.307 OA
ATOM     26  C   UNL d   1      51.179  34.215  51.324  0.00  0.00     0.026 A 
ATOM     27  C   UNL d   1      51.786  34.103  51.854  0.00  0.00     0.020 A 
BRANCH  21  28
ATOM     28  C   UNL d   1      49.183  34.907  53.292  0.00  0.00     0.198 C 
ATOM     29  O   UNL d   1      49.109  34.334  53.866  0.00  0.00    -0.286 OA
ATOM     30  C   UNL d   1      48.890  35.691  53.429  0.00  0.00     0.045 C 
ENDBRANCH  21  28
ENDBRANCH   1  18
TORSDOF 5
ENDMDL
MODEL 3
REMARK VINA RESULT:      -5.9      2.189      4.520
REMARK  5 active torsions:
REMARK  status: ('A' for Active; 'I' for Inactive)
REMARK    1  A    between atoms: N_2  and  S_1 
REMARK    2  A    between atoms: C_9  and  S_1 
REMARK    3  A    between atoms: C_8  and  N_2 
REMARK       I    between atoms: C_14  and  N_2 
REMARK    4  A    between atoms: C_17  and  C_3 
REMARK    5  A    between atoms: N_6  and  C_5 
ROOT
ATOM      1  N   UNL d   1      52.843  33.934  53.858  0.00  0.00    -0.198 N 
ATOM      2  C   UNL d   1      52.980  34.445  54.507  0.00  0.00     0.274 C 
ATOM      3  O   UNL d   1      53.629  34.312  55.012  0.00  0.00    -0.266 OA
ATOM      4  C   UNL d   1      52.480  35.089  54.662  0.00  0.00     0.067 C 
ENDROOT
BRANCH   1   5
ATOM      5  S   UNL d   1      52.178  34.088  53.359  0.00  0.00     0.274 S 
ATOM      6  O   UNL d   1      51.704  33.675  53.886  0.00  0.00    -0.200 OA
ATOM      7  O   UNL d   1      52.675  34.515  52.819  0.00  0.00    -0.200 OA
BRANCH   5   8
ATOM      8  C   UNL d   1      51.520  34.228  52.887  0.00  0.00     0.106 A 
ATOM      9  C   UNL d   1      50.839  34.512  53.202  0.00  0.00     0.037 A 
ATOM     10  C   UNL d   1      50.161  34.661  52.749  0.00  0.00     0.138 A 
ATOM     11  C   UNL d   1      50.222  34.492  51.888  0.00  0.00     0.080 A 
ATOM     12  C   UNL d   1      50.929  34.201  51.582  0.00  0.00     0.014 A 
ATOM     13 CL   UNL d   1      49.578  34.619  51.373  0.00  0.00    -0.081 Cl
ATOM     14  C   UNL d   1      51.562  34.074  52.077  0.00  0.00     0.014 A 
BRANCH  10  15
ATOM     15  N   UNL d   1      49.460  34.955  53.084  0.00  0.00    -0.113 N 
ATOM     16  O   UNL d   1      49.485  35.730  53.397  0.00  0.00    -0.532 OA
ATOM     17  O   UNL d   1      48.776  34.531  53.118  0.00  0.00    -0.532 OA
ENDBRANCH  10  15
ENDBRANCH   5   8
ENDBRANCH   1   5
BRANCH   1  18
ATOM     18  C   UNL d   1      53.345  33.300  53.716  0.00  0.00     0.078 A 
ATOM     19  C   UNL d   1      53.047  32.571  53.696  0.00  0.00     0.021 A 
ATOM     20  C   UNL d   1      53.531  31.906  53.553  0.00  0.00     0.029 A 
ATOM     21  C   UNL d   1      53.368  31.114  53.505  0.00  0.00     0.064 A 
ATOM     22  C   UNL d   1      54.338  32.003  53.429  0.00  0.00     0.100 A 
ATOM     23  C   UNL d   1      54.062  30.714  53.353  0.00  0.00     0.103 A 
ATOM     24  C   UNL d   1      54.180  29.904  53.256  0.00  0.00     0.027 C 
ATOM     25  O   UNL d   1      54.665  31.269  53.306  0.00  0.00    -0.307 OA
ATOM     26  C   UNL d   1      54.684  32.766  53.444  0.00  0.00     0.026 A 
ATOM     27  C   UNL d   1      54.195  33.402  53.585  0.00  0.00     0.020 A 
BRANCH  21  28
ATOM     28  C   UNL d   1      52.616  30.757  53.595  0.00  0.00     0.198 C 
ATOM     29  O   UNL d   1      52.052  30.789  53.007  0.00  0.00    -0.286 OA
ATOM     30  C   UNL d   1      52.452  30.355  54.324  0.00  0.00     0.045 C 
ENDBRANCH  21  28
ENDBRANCH   1  18
TORSDOF 5
ENDMDL
MODEL 4
REMARK VINA RESULT:      -5.0      1.379      2.397
REMARK  5 active torsions:
REMARK  status: ('A' for Active; 'I' for Inactive)
REMARK    1  A    between atoms: N_2  and  S_1 
REMARK    2  A    between atoms: C_9  and  S_1 
REMARK    3  A    between atoms: C_8  and  N_2 
REMARK       I    between atoms: C_14  and  N_2 
REMARK    4  A    between atoms: C_17  and  C_3 
REMARK    5  A    between atoms: N_6  and  C_5 
ROOT
ATOM      1  N   UNL d   1      51.871  32.729  53.219  0.00  0.00    -0.198 N 
ATOM      2  C   UNL d   1      51.051  32.562  53.199  0.00  0.00     0.274 C 
ATOM      3  O   UNL d   1      50.500  33.186  53.192  0.00  0.00    -0.266 OA
ATOM      4  C   UNL d   1      50.771  31.781  53.186  0.00  0.00     0.067 C 
ENDROOT
BRANCH   1   5
ATOM      5  S   UNL d   1      52.413  32.080  53.225  0.00  0.00     0.274 S 
ATOM      6  O   UNL d   1      52.286  31.999  54.032  0.00  0.00    -0.200 OA
ATOM      7  O   UNL d   1      52.540  32.169  52.391  0.00  0.00    -0.200 OA
BRANCH   5   8
ATOM      8  C   UNL d   1      52.937  31.446  53.252  0.00  0.00     0.106 A 
ATOM      9  C   UNL d   1      52.696  30.722  53.500  0.00  0.00     0.037 A 
ATOM     10  C   UNL d   1      53.204  30.067  53.536  0.00  0.00     0.138 A 
ATOM     11  C   UNL d   1      54.035  30.203  53.285  0.00  0.00     0.080 A 
ATOM     12  C   UNL d   1      54.264  30.954  53.032  0.00  0.00     0.014 A 
ATOM     13 CL   UNL d   1      54.599  29.589  53.296  0.00  0.00    -0.081 Cl
ATOM     14  C   UNL d   1      53.721  31.559  53.018  0.00  0.00     0.014 A 
BRANCH  10  15
ATOM     15  N   UNL d   1      52.946  29.321  53.795  0.00  0.00    -0.113 N 
ATOM     16  O   UNL d   1      52.537  28.848  53.240  0.00  0.00    -0.532 OA
ATOM     17  O   UNL d   1      53.072  29.046  54.542  0.00  0.00    -0.532 OA
ENDBRANCH  10  15
ENDBRANCH   5   8
ENDBRANCH   1   5
BRANCH   1  18
ATOM     18  C   UNL d   1      52.137  33.506  53.232  0.00  0.00     0.078 A 
ATOM     19  C   UNL d   1      52.520  33.770  53.868  0.00  0.00     0.021 A 
ATOM     20  C   UNL d   1      52.802  34.554  53.911  0.00  0.00     0.029 A 
ATOM     21  C   UNL d   1      53.204  34.957  54.489  0.00  0.00     0.064 A 
ATOM     22  C   UNL d   1      52.684  35.071  53.283  0.00  0.00     0.100 A 
ATOM     23  C   UNL d   1      53.339  35.718  54.230  0.00  0.00     0.103 A 
ATOM     24  C   UNL d   1      53.724  36.335  54.617  0.00  0.00     0.027 C 
ATOM     25  O   UNL d   1      53.014  35.787  53.479  0.00  0.00    -0.307 OA
ATOM     26  C   UNL d   1      52.280  34.818  52.594  0.00  0.00     0.026 A 
ATOM     27  C   UNL d   1      52.012  34.050  52.570  0.00  0.00     0.020 A 
BRANCH  21  28
ATOM     28  C   UNL d   1      53.445  34.650  55.230  0.00  0.00     0.198 C 
ATOM     29  O   UNL d   1      52.958  34.675  55.884  0.00  0.00    -0.286 OA
ATOM     30  C   UNL d   1      54.220  34.310  55.285  0.00  0.00     0.045 C 
ENDBRANCH  21  28
ENDBRANCH   1  18
TORSDOF 5
ENDMDL
MODEL 5
REMARK VINA RESULT:      -5.0      3.663      5.695
REMARK  5 active torsions:
REMARK  status: ('A' for Active; 'I' for Inactive)
REMARK    1  A    between atoms: N_2  and  S_1 
REMARK    2  A    between atoms: C_9  and  S_1 
REMARK    3  A    between atoms: C_8  and  N_2 
REMARK       I    between atoms: C_14  and  N_2 
REMARK    4  A    between atoms: C_17  and  C_3 
REMARK    5  A    between atoms: N_6  and  C_5 
ROOT
ATOM      1  N   UNL d   1      50.313  34.384  52.297  0.00  0.00    -0.198 N 
ATOM      2  C   UNL d   1      50.417  34.355  51.466  0.00  0.00     0.274 C 
ATOM      3  O   UNL d   1      51.066  33.945  51.143  0.00  0.00    -0.266 OA
ATOM      4  C   UNL d   1      49.884  34.729  50.953  0.00  0.00     0.067 C 
ENDROOT
BRANCH   1   5
ATOM      5  S   UNL d   1      49.647  34.805  52.603  0.00  0.00     0.274 S 
ATOM      6  O   UNL d   1      50.106  35.485  52.628  0.00  0.00    -0.200 OA
ATOM      7  O   UNL d   1      49.178  34.098  52.575  0.00  0.00    -0.200 OA
BRANCH   5   8
ATOM      8  C   UNL d   1      49.010  35.233  52.902  0.00  0.00     0.106 A 
ATOM      9  C   UNL d   1      48.361  35.373  52.453  0.00  0.00     0.037 A 
ATOM     10  C   UNL d   1      47.706  35.801  52.730  0.00  0.00     0.138 A 
ATOM     11  C   UNL d   1      47.756  36.100  53.555  0.00  0.00     0.080 A 
ATOM     12  C   UNL d   1      48.431  35.946  54.002  0.00  0.00     0.014 A 
ATOM     13 CL   UNL d   1      47.134  36.537  53.897  0.00  0.00    -0.081 Cl
ATOM     14  C   UNL d   1      49.043  35.520  53.675  0.00  0.00     0.014 A 
BRANCH  10  15
ATOM     15  N   UNL d   1      47.038  35.941  52.257  0.00  0.00    -0.113 N 
ATOM     16  O   UNL d   1      46.392  35.419  52.349  0.00  0.00    -0.532 OA
ATOM     17  O   UNL d   1      46.992  36.547  51.727  0.00  0.00    -0.532 OA
ENDBRANCH  10  15
ENDBRANCH   5   8
ENDBRANCH   1   5
BRANCH   1  18
ATOM     18  C   UNL d   1      50.847  34.010  52.796  0.00  0.00     0.078 A 
ATOM     19  C   UNL d   1      51.476  34.408  53.052  0.00  0.00     0.021 A 
ATOM     20  C   UNL d   1      52.037  34.056  53.561  0.00  0.00     0.029 A 
ATOM     21  C   UNL d   1      52.718  34.336  53.897  0.00  0.00     0.064 A 
ATOM     22  C   UNL d   1      51.941  33.277  53.805  0.00  0.00     0.100 A 
ATOM     23  C   UNL d   1      53.049  33.744  54.349  0.00  0.00     0.103 A 
ATOM     24  C   UNL d   1      53.741  33.761  54.797  0.00  0.00     0.027 C 
ATOM     25  O   UNL d   1      52.563  33.085  54.290  0.00  0.00    -0.307 OA
ATOM     26  C   UNL d   1      51.280  32.828  53.548  0.00  0.00     0.026 A 
ATOM     27  C   UNL d   1      50.745  33.189  53.053  0.00  0.00     0.020 A 
BRANCH  21  28
ATOM     28  C   UNL d   1      53.037  35.105  53.803  0.00  0.00     0.198 C 
ATOM     29  O   UNL d   1      53.425  35.329  53.121  0.00  0.00    -0.286 OA
ATOM     30  C   UNL d   1      52.946  35.654  54.443  0.00  0.00     0.045 C 
ENDBRANCH  21  28
ENDBRANCH   1  18
TORSDOF 5
ENDMDL
MODEL 6
REMARK VINA RESULT:      -4.9      2.181      4.057
REMARK  5 active torsions:
REMARK  status: ('A' for Active; 'I' for Inactive)
REMARK    1  A    between atoms: N_2  and  S_1 
REMARK    2  A    between atoms: C_9  and  S_1 
REMARK    3  A    between atoms: C_8  and  N_2 
REMARK       I    between atoms: C_14  and  N_2 
REMARK    4  A    between atoms: C_17  and  C_3 
REMARK    5  A    between atoms: N_6  and  C_5 
ROOT
ATOM      1  N   UNL d   1      52.469  32.295  53.228  0.00  0.00    -0.198 N 
ATOM      2  C   UNL d   1      52.260  31.484  53.227  0.00  0.00     0.274 C 
ATOM      3  O   UNL d   1      52.845  30.904  53.343  0.00  0.00    -0.266 OA
ATOM      4  C   UNL d   1      51.475  31.242  53.112  0.00  0.00     0.067 C 
ENDROOT
BRANCH   1   5
ATOM      5  S   UNL d   1      51.858  32.867  53.108  0.00  0.00     0.274 S 
ATOM      6  O   UNL d   1      52.179  33.035  52.372  0.00  0.00    -0.200 OA
ATOM      7  O   UNL d   1      51.532  32.688  53.871  0.00  0.00    -0.200 OA
BRANCH   5   8
ATOM      8  C   UNL d   1      51.272  33.428  52.973  0.00  0.00     0.106 A 
ATOM      9  C   UNL d   1      50.991  33.561  52.233  0.00  0.00     0.037 A 
ATOM     10  C   UNL d   1      50.401  34.121  52.070  0.00  0.00     0.138 A 
ATOM     11  C   UNL d   1      50.089  34.571  52.758  0.00  0.00     0.080 A 
ATOM     12  C   UNL d   1      50.390  34.421  53.511  0.00  0.00     0.014 A 
ATOM     13 CL   UNL d   1      49.495  35.149  52.666  0.00  0.00    -0.081 Cl
ATOM     14  C   UNL d   1      50.970  33.859  53.609  0.00  0.00     0.014 A 
BRANCH  10  15
ATOM     15  N   UNL d   1      50.116  34.252  51.301  0.00  0.00    -0.113 N 
ATOM     16  O   UNL d   1      49.319  34.048  51.151  0.00  0.00    -0.532 OA
ATOM     17  O   UNL d   1      50.569  34.561  50.710  0.00  0.00    -0.532 OA
ENDBRANCH  10  15
ENDBRANCH   5   8
ENDBRANCH   1   5
BRANCH   1  18
ATOM     18  C   UNL d   1      53.250  32.523  53.342  0.00  0.00     0.078 A 
ATOM     19  C   UNL d   1      53.443  32.915  53.998  0.00  0.00     0.021 A 
ATOM     20  C   UNL d   1      54.227  33.159  54.144  0.00  0.00     0.029 A 
ATOM     21  C   UNL d   1      54.566  33.561  54.760  0.00  0.00     0.064 A 
ATOM     22  C   UNL d   1      54.820  32.994  53.598  0.00  0.00     0.100 A 
ATOM     23  C   UNL d   1      55.363  33.649  54.608  0.00  0.00     0.103 A 
ATOM     24  C   UNL d   1      55.939  34.018  55.067  0.00  0.00     0.027 C 
ATOM     25  O   UNL d   1      55.518  33.295  53.884  0.00  0.00    -0.307 OA
ATOM     26  C   UNL d   1      54.644  32.578  52.892  0.00  0.00     0.026 A 
ATOM     27  C   UNL d   1      53.873  32.348  52.768  0.00  0.00     0.020 A 
BRANCH  21  28
ATOM     28  C   UNL d   1      54.173  33.843  55.444  0.00  0.00     0.198 C 
ATOM     29  O   UNL d   1      53.779  34.557  55.449  0.00  0.00    -0.286 OA
ATOM     30  C   UNL d   1      54.196  33.362  56.142  0.00  0.00     0.045 C 
ENDBRANCH  21  28
ENDBRANCH   1  18
TORSDOF 5
ENDMDL
