MODEL 1
REMARK VINA RESULT:      29.8      0.000      0.000
REMARK  4 active torsions:
REMARK  status: ('A' for Active; 'I' for Inactive)
REMARK    1  A    between atoms: N_14  and  C_6 
REMARK    2  A    between atoms: C_19  and  N_14 
REMARK    3  A    between atoms: O_17  and  C_20 
REMARK    4  A    between atoms: C_20  and  C_19 
ROOT
ATOM      1  N   UNL d   1      14.593  13.717  -1.541  0.00  0.00    -0.183 N 
ATOM      2  C   UNL d   1      14.152  13.070  -1.816  0.00  0.00     0.169 A 
ATOM      3  C   UNL d   1      13.861  13.057  -2.581  0.00  0.00     0.073 A 
ATOM      4  C   UNL d   1      14.014  13.695  -3.069  0.00  0.00     0.185 A 
ATOM      5  N   UNL d   1      14.455  14.342  -2.794  0.00  0.00    -0.142 NA
ATOM      6  C   UNL d   1      14.875  13.711  -0.775  0.00  0.00     0.218 A 
ATOM      7  N   UNL d   1      14.004  12.435  -1.316  0.00  0.00    -0.226 NA
ATOM      8  C   UNL d   1      13.424  12.417  -2.852  0.00  0.00     0.007 A 
ATOM      9  N   UNL d   1      13.727  13.697  -3.846  0.00  0.00    -0.225 NA
ATOM     10  C   UNL d   1      14.732  13.085  -0.276  0.00  0.00     0.071 A 
ATOM     11  C   UNL d   1      13.134  12.405  -3.616  0.00  0.00     0.019 A 
ATOM     12  C   UNL d   1      14.290  12.438  -0.551  0.00  0.00     0.087 A 
ATOM     13  C   UNL d   1      13.285  13.050  -4.120  0.00  0.00     0.083 A 
ATOM     14  C   UNL d   1      13.277  11.780  -2.349  0.00  0.00     0.000 C 
ATOM     15  C   UNL d   1      14.139  11.780  -0.028  0.00  0.00     0.021 C 
ATOM     16  C   UNL d   1      12.999  13.044  -4.882  0.00  0.00     0.021 C 
ENDROOT
BRANCH   6  17
ATOM     17  N   UNL d   1      15.329  14.382  -0.499  0.00  0.00    -0.378 NA
BRANCH  17  18
ATOM     18  C   UNL d   1      15.675  15.035  -0.087  0.00  0.00     0.189 C 
BRANCH  18  19
ATOM     19  C   UNL d   1      15.337  15.809  -0.156  0.00  0.00     0.151 C 
BRANCH  19  20
ATOM     20  O   UNL d   1      15.786  16.436  -0.491  0.00  0.00    -0.323 OA
ATOM     21  C   UNL d   1      15.409  17.076  -0.910  0.00  0.00     0.182 C 
ENDBRANCH  19  20
ENDBRANCH  18  19
ENDBRANCH  17  18
ENDBRANCH   6  17
TORSDOF 4
ENDMDL
