MODEL 1
REMARK VINA RESULT:      -1.7      0.000      0.000
REMARK  4 active torsions:
REMARK  status: ('A' for Active; 'I' for Inactive)
REMARK    1  A    between atoms: C_15  and  N_5 
REMARK    2  A    between atoms: N_13  and  C_7 
REMARK    3  A    between atoms: C_18  and  N_13 
REMARK    4  A    between atoms: C_16  and  C_15 
ROOT
ATOM      1  N   UNL d   1      58.169  -0.972  30.225  0.00  0.00     0.039 N 
ATOM      2  C   UNL d   1      57.942  -1.748  30.070  0.00  0.00     0.755 A 
ATOM      3  C   UNL d   1      58.840  -0.652  29.889  0.00  0.00     0.134 A 
ATOM      4  C   UNL d   1      59.307  -1.111  29.382  0.00  0.00     0.081 A 
ATOM      5  N   UNL d   1      58.409  -2.211  29.561  0.00  0.00    -0.103 N 
ATOM      6  C   UNL d   1      59.092  -1.890  29.218  0.00  0.00     0.281 A 
ATOM      7  C   UNL d   1      57.611  -0.654  30.738  0.00  0.00     0.768 A 
ATOM      8  N   UNL d   1      57.255  -1.903  30.483  0.00  0.00     0.060 NA
ATOM      9  S   UNL d   1      59.189   0.090  29.946  0.00  0.00    -0.068 SA
ATOM     10  N   UNL d   1      57.048  -1.227  30.898  0.00  0.00     0.061 NA
ATOM     11  C   UNL d   1      59.943  -0.651  29.127  0.00  0.00     0.013 A 
ATOM     12  C   UNL d   1      59.870   0.091  29.476  0.00  0.00     0.031 A 
ATOM     13  O   UNL d   1      59.558  -2.348  28.711  0.00  0.00    -0.266 OA
ATOM     14  C   UNL d   1      60.574  -0.811  28.626  0.00  0.00     0.001 A 
ATOM     15  C   UNL d   1      60.427   0.682  29.327  0.00  0.00     0.006 A 
ATOM     16  C   UNL d   1      61.133  -0.228  28.473  0.00  0.00     0.000 A 
ATOM     17  C   UNL d   1      61.060   0.523  28.826  0.00  0.00     0.001 A 
ENDROOT
BRANCH   7  18
ATOM     18  N   UNL d   1      57.619   0.117  31.043  0.00  0.00    -0.059 NA
BRANCH  18  19
ATOM     19  C   UNL d   1      57.225   0.290  31.754  0.00  0.00     0.100 A 
ATOM     20  C   UNL d   1      56.422   0.497  31.733  0.00  0.00     0.020 A 
ATOM     21  C   UNL d   1      56.024   0.671  32.438  0.00  0.00     0.002 A 
ATOM     22  C   UNL d   1      56.434   0.636  33.158  0.00  0.00     0.000 A 
ATOM     23  C   UNL d   1      57.240   0.428  33.175  0.00  0.00     0.002 A 
ATOM     24  C   UNL d   1      57.633   0.255  32.464  0.00  0.00     0.020 A 
ENDBRANCH  18  19
ENDBRANCH   7  18
BRANCH   5  25
ATOM     25  C   UNL d   1      58.194  -2.986  29.399  0.00  0.00     0.101 C 
BRANCH  25  26
ATOM     26  C   UNL d   1      58.175  -3.258  28.622  0.00  0.00     0.020 C 
ATOM     27  C   UNL d   1      58.085  -4.061  28.461  0.00  0.00     0.002 C 
ENDBRANCH  25  26
ENDBRANCH   5  25
TORSDOF 4
ENDMDL
