MODEL 1
REMARK VINA RESULT:      -6.6      0.000      0.000
REMARK  1 active torsions:
REMARK  status: ('A' for Active; 'I' for Inactive)
REMARK       I    between atoms: C_8  and  N_9 
REMARK    1  A    between atoms: N_9  and  C_10 
ROOT
ATOM      1  C   UNL d   1      57.162  -0.732  31.416  0.00  0.00     0.102 A 
ATOM      2  O   UNL d   1      56.722  -1.300  31.826  0.00  0.00    -0.307 OA
ATOM      3  C   UNL d   1      56.991   0.012  31.724  0.00  0.00     0.025 A 
ATOM      4  C   UNL d   1      56.439  -0.093  32.332  0.00  0.00     0.025 A 
ATOM      5  C   UNL d   1      56.275  -0.896  32.394  0.00  0.00     0.100 A 
ATOM      6  C   UNL d   1      57.699  -0.807  30.797  0.00  0.00     0.044 A 
ATOM      7  C   UNL d   1      57.353   0.681  31.417  0.00  0.00     0.004 A 
ATOM      8  C   UNL d   1      58.066  -0.141  30.484  0.00  0.00     0.087 A 
ATOM      9  C   UNL d   1      57.892   0.609  30.797  0.00  0.00     0.019 A 
ATOM     10  C   UNL d   1      56.064   0.448  32.840  0.00  0.00     0.002 A 
ATOM     11  C   UNL d   1      55.738  -1.167  32.960  0.00  0.00     0.025 A 
ATOM     12  C   UNL d   1      55.530   0.177  33.402  0.00  0.00     0.000 A 
ATOM     13  C   UNL d   1      55.366  -0.632  33.463  0.00  0.00     0.002 A 
ENDROOT
BRANCH   8  14
ATOM     14  N   UNL d   1      58.605  -0.213  29.864  0.00  0.00    -0.208 NA
ATOM     15  C   UNL d   1      58.387   0.007  29.099  0.00  0.00     0.279 C 
ATOM     16  O   UNL d   1      57.626   0.300  28.958  0.00  0.00    -0.265 OA
ATOM     17  C   UNL d   1      58.926  -0.064  28.474  0.00  0.00     0.068 C 
ENDBRANCH   8  14
TORSDOF 1
ENDMDL
MODEL 2
REMARK VINA RESULT:      -5.6      1.631      3.903
REMARK  1 active torsions:
REMARK  status: ('A' for Active; 'I' for Inactive)
REMARK       I    between atoms: C_8  and  N_9 
REMARK    1  A    between atoms: N_9  and  C_10 
ROOT
ATOM      1  C   UNL d   1      56.733   0.248  31.851  0.00  0.00     0.102 A 
ATOM      2  O   UNL d   1      57.178   0.681  31.304  0.00  0.00    -0.307 OA
ATOM      3  C   UNL d   1      56.863  -0.555  31.724  0.00  0.00     0.025 A 
ATOM      4  C   UNL d   1      57.394  -0.623  31.092  0.00  0.00     0.025 A 
ATOM      5  C   UNL d   1      57.586   0.134  30.836  0.00  0.00     0.100 A 
ATOM      6  C   UNL d   1      56.225   0.492  32.450  0.00  0.00     0.044 A 
ATOM      7  C   UNL d   1      56.489  -1.114  32.192  0.00  0.00     0.004 A 
ATOM      8  C   UNL d   1      55.846  -0.063  32.923  0.00  0.00     0.087 A 
ATOM      9  C   UNL d   1      55.979  -0.873  32.793  0.00  0.00     0.019 A 
ATOM     10  C   UNL d   1      57.728  -1.286  30.716  0.00  0.00     0.002 A 
ATOM     11  C   UNL d   1      58.110   0.238  30.205  0.00  0.00     0.025 A 
ATOM     12  C   UNL d   1      58.248  -1.181  30.090  0.00  0.00     0.000 A 
ATOM     13  C   UNL d   1      58.440  -0.417  29.833  0.00  0.00     0.002 A 
ENDROOT
BRANCH   8  14
ATOM     14  N   UNL d   1      55.336   0.179  33.525  0.00  0.00    -0.208 NA
ATOM     15  C   UNL d   1      55.641   0.434  34.248  0.00  0.00     0.279 C 
ATOM     16  O   UNL d   1      56.459   0.447  34.366  0.00  0.00    -0.265 OA
ATOM     17  C   UNL d   1      55.130   0.678  34.853  0.00  0.00     0.068 C 
ENDBRANCH   8  14
TORSDOF 1
ENDMDL
MODEL 3
REMARK VINA RESULT:      -4.4      1.385      3.828
REMARK  1 active torsions:
REMARK  status: ('A' for Active; 'I' for Inactive)
REMARK       I    between atoms: C_8  and  N_9 
REMARK    1  A    between atoms: N_9  and  C_10 
ROOT
ATOM      1  C   UNL d   1      57.259   0.650  31.078  0.00  0.00     0.102 A 
ATOM      2  O   UNL d   1      57.262   0.639  30.251  0.00  0.00    -0.307 OA
ATOM      3  C   UNL d   1      58.037   0.667  31.346  0.00  0.00     0.025 A 
ATOM      4  C   UNL d   1      58.529   0.665  30.681  0.00  0.00     0.025 A 
ATOM      5  C   UNL d   1      58.054   0.648  30.011  0.00  0.00     0.100 A 
ATOM      6  C   UNL d   1      56.639   0.648  31.617  0.00  0.00     0.044 A 
ATOM      7  C   UNL d   1      58.198   0.681  32.150  0.00  0.00     0.004 A 
ATOM      8  C   UNL d   1      56.791   0.662  32.425  0.00  0.00     0.087 A 
ATOM      9  C   UNL d   1      57.577   0.679  32.694  0.00  0.00     0.019 A 
ATOM     10  C   UNL d   1      59.357   0.678  30.603  0.00  0.00     0.002 A 
ATOM     11  C   UNL d   1      58.397   0.643  29.259  0.00  0.00     0.025 A 
ATOM     12  C   UNL d   1      59.697   0.673  29.855  0.00  0.00     0.000 A 
ATOM     13  C   UNL d   1      59.216   0.655  29.181  0.00  0.00     0.002 A 
ENDROOT
BRANCH   8  14
ATOM     14  N   UNL d   1      56.171   0.659  32.968  0.00  0.00    -0.208 NA
ATOM     15  C   UNL d   1      55.824  -0.054  33.198  0.00  0.00     0.279 C 
ATOM     16  O   UNL d   1      56.102  -0.765  32.880  0.00  0.00    -0.265 OA
ATOM     17  C   UNL d   1      55.200  -0.058  33.743  0.00  0.00     0.068 C 
ENDBRANCH   8  14
TORSDOF 1
ENDMDL
MODEL 4
REMARK VINA RESULT:      -4.2      1.127      1.380
REMARK  1 active torsions:
REMARK  status: ('A' for Active; 'I' for Inactive)
REMARK       I    between atoms: C_8  and  N_9 
REMARK    1  A    between atoms: N_9  and  C_10 
ROOT
ATOM      1  C   UNL d   1      57.974   0.488  31.853  0.00  0.00     0.102 A 
ATOM      2  O   UNL d   1      57.879   0.648  32.659  0.00  0.00    -0.307 OA
ATOM      3  C   UNL d   1      57.322   0.063  31.587  0.00  0.00     0.025 A 
ATOM      4  C   UNL d   1      56.815  -0.045  32.234  0.00  0.00     0.025 A 
ATOM      5  C   UNL d   1      57.157   0.314  32.889  0.00  0.00     0.100 A 
ATOM      6  C   UNL d   1      58.579   0.682  31.331  0.00  0.00     0.044 A 
ATOM      7  C   UNL d   1      57.271  -0.171  30.803  0.00  0.00     0.004 A 
ATOM      8  C   UNL d   1      58.535   0.452  30.543  0.00  0.00     0.087 A 
ATOM      9  C   UNL d   1      57.876   0.022  30.277  0.00  0.00     0.019 A 
ATOM     10  C   UNL d   1      56.080  -0.427  32.305  0.00  0.00     0.002 A 
ATOM     11  C   UNL d   1      56.772   0.294  33.620  0.00  0.00     0.025 A 
ATOM     12  C   UNL d   1      55.699  -0.445  33.032  0.00  0.00     0.000 A 
ATOM     13  C   UNL d   1      56.044  -0.084  33.691  0.00  0.00     0.002 A 
ENDROOT
BRANCH   8  14
ATOM     14  N   UNL d   1      59.140   0.645  30.017  0.00  0.00    -0.208 NA
ATOM     15  C   UNL d   1      59.574   0.047  29.648  0.00  0.00     0.279 C 
ATOM     16  O   UNL d   1      59.398  -0.745  29.808  0.00  0.00    -0.265 OA
ATOM     17  C   UNL d   1      60.182   0.239  29.119  0.00  0.00     0.068 C 
ENDBRANCH   8  14
TORSDOF 1
ENDMDL
