MODEL 1
REMARK VINA RESULT:      -7.5      0.000      0.000
REMARK  4 active torsions:
REMARK  status: ('A' for Active; 'I' for Inactive)
REMARK    1  A    between atoms: C_2  and  C_1 
REMARK    2  A    between atoms: C_3  and  C_2 
REMARK    3  A    between atoms: C_5  and  C_3 
REMARK    4  A    between atoms: O_12  and  C_7 
ROOT
ATOM      1  C   UNL d   1      53.806  32.474  53.717  0.00  0.00     0.000 A 
ATOM      2  C   UNL d   1      52.985  31.171  53.122  0.00  0.00     0.094 A 
ATOM      3  C   UNL d   1      53.138  32.586  53.241  0.00  0.00     0.002 A 
ATOM      4  C   UNL d   1      54.061  31.708  53.894  0.00  0.00     0.002 A 
ATOM      5  C   UNL d   1      52.730  31.938  52.945  0.00  0.00     0.024 A 
ATOM      6  C   UNL d   1      53.647  31.057  53.594  0.00  0.00     0.024 A 
ENDROOT
BRANCH   1   7
ATOM      7  C   UNL d   1      54.212  33.131  54.011  0.00  0.00     0.006 C 
BRANCH   7   8
ATOM      8  C   UNL d   1      54.298  33.223  54.827  0.00  0.00     0.070 C 
BRANCH   8   9
ATOM      9  C   UNL d   1      54.625  33.913  55.129  0.00  0.00     0.211 C 
ATOM     10  O   UNL d   1      54.153  34.578  55.232  0.00  0.00    -0.644 OA
ATOM     11  O   UNL d   1      55.420  33.938  55.326  0.00  0.00    -0.644 OA
ENDBRANCH   8   9
ENDBRANCH   7   8
ENDBRANCH   1   7
BRANCH   2  12
ATOM     12  O   UNL d   1      52.577  30.524  52.827  0.00  0.00    -0.328 OA
ATOM     13  C   UNL d   1      52.635  29.794  53.202  0.00  0.00     0.181 C 
ENDBRANCH   2  12
TORSDOF 4
ENDMDL
MODEL 2
REMARK VINA RESULT:      -7.3      0.894      3.590
REMARK  4 active torsions:
REMARK  status: ('A' for Active; 'I' for Inactive)
REMARK    1  A    between atoms: C_2  and  C_1 
REMARK    2  A    between atoms: C_3  and  C_2 
REMARK    3  A    between atoms: C_5  and  C_3 
REMARK    4  A    between atoms: O_12  and  C_7 
ROOT
ATOM      1  C   UNL d   1      53.708  32.428  53.901  0.00  0.00     0.000 A 
ATOM      2  C   UNL d   1      53.675  33.936  54.573  0.00  0.00     0.094 A 
ATOM      3  C   UNL d   1      54.069  32.565  54.633  0.00  0.00     0.002 A 
ATOM      4  C   UNL d   1      53.330  33.050  53.506  0.00  0.00     0.002 A 
ATOM      5  C   UNL d   1      54.052  33.315  54.967  0.00  0.00     0.024 A 
ATOM      6  C   UNL d   1      53.316  33.804  53.846  0.00  0.00     0.024 A 
ENDROOT
BRANCH   1   7
ATOM      7  C   UNL d   1      53.728  31.672  53.571  0.00  0.00     0.006 C 
BRANCH   7   8
ATOM      8  C   UNL d   1      53.020  31.270  53.432  0.00  0.00     0.070 C 
BRANCH   8   9
ATOM      9  C   UNL d   1      53.034  30.517  53.106  0.00  0.00     0.211 C 
ATOM     10  O   UNL d   1      53.104  29.861  53.596  0.00  0.00    -0.644 OA
ATOM     11  O   UNL d   1      52.978  30.419  52.295  0.00  0.00    -0.644 OA
ENDBRANCH   8   9
ENDBRANCH   7   8
ENDBRANCH   1   7
BRANCH   2  12
ATOM     12  O   UNL d   1      53.659  34.686  54.906  0.00  0.00    -0.328 OA
ATOM     13  C   UNL d   1      53.121  35.246  54.635  0.00  0.00     0.181 C 
ENDBRANCH   2  12
TORSDOF 4
ENDMDL
MODEL 3
REMARK VINA RESULT:      -6.9      1.949      2.605
REMARK  4 active torsions:
REMARK  status: ('A' for Active; 'I' for Inactive)
REMARK    1  A    between atoms: C_2  and  C_1 
REMARK    2  A    between atoms: C_3  and  C_2 
REMARK    3  A    between atoms: C_5  and  C_3 
REMARK    4  A    between atoms: O_12  and  C_7 
ROOT
ATOM      1  C   UNL d   1      53.033  33.689  53.573  0.00  0.00     0.000 A 
ATOM      2  C   UNL d   1      51.641  34.035  52.756  0.00  0.00     0.094 A 
ATOM      3  C   UNL d   1      52.523  33.080  53.345  0.00  0.00     0.002 A 
ATOM      4  C   UNL d   1      52.843  34.474  53.391  0.00  0.00     0.002 A 
ATOM      5  C   UNL d   1      51.830  33.251  52.939  0.00  0.00     0.024 A 
ATOM      6  C   UNL d   1      52.145  34.643  52.981  0.00  0.00     0.024 A 
ENDROOT
BRANCH   1   7
ATOM      7  C   UNL d   1      53.727  33.509  53.982  0.00  0.00     0.006 C 
BRANCH   7   8
ATOM      8  C   UNL d   1      53.816  33.762  54.763  0.00  0.00     0.070 C 
BRANCH   8   9
ATOM      9  C   UNL d   1      54.471  33.525  55.198  0.00  0.00     0.211 C 
ATOM     10  O   UNL d   1      55.126  34.018  55.252  0.00  0.00    -0.644 OA
ATOM     11  O   UNL d   1      54.471  32.798  55.576  0.00  0.00    -0.644 OA
ENDBRANCH   8   9
ENDBRANCH   7   8
ENDBRANCH   1   7
BRANCH   2  12
ATOM     12  O   UNL d   1      50.949  34.207  52.350  0.00  0.00    -0.328 OA
ATOM     13  C   UNL d   1      50.260  34.384  52.765  0.00  0.00     0.181 C 
ENDBRANCH   2  12
TORSDOF 4
ENDMDL
MODEL 4
REMARK VINA RESULT:      -6.7      2.061      3.492
REMARK  4 active torsions:
REMARK  status: ('A' for Active; 'I' for Inactive)
REMARK    1  A    between atoms: C_2  and  C_1 
REMARK    2  A    between atoms: C_3  and  C_2 
REMARK    3  A    between atoms: C_5  and  C_3 
REMARK    4  A    between atoms: O_12  and  C_7 
ROOT
ATOM      1  C   UNL d   1      52.716  33.337  53.671  0.00  0.00     0.000 A 
ATOM      2  C   UNL d   1      54.115  33.173  54.533  0.00  0.00     0.094 A 
ATOM      3  C   UNL d   1      53.254  32.737  53.481  0.00  0.00     0.002 A 
ATOM      4  C   UNL d   1      52.882  33.854  54.295  0.00  0.00     0.002 A 
ATOM      5  C   UNL d   1      53.950  32.656  53.910  0.00  0.00     0.024 A 
ATOM      6  C   UNL d   1      53.584  33.769  54.724  0.00  0.00     0.024 A 
ENDROOT
BRANCH   1   7
ATOM      7  C   UNL d   1      52.019  33.413  53.236  0.00  0.00     0.006 C 
BRANCH   7   8
ATOM      8  C   UNL d   1      51.825  34.143  52.904  0.00  0.00     0.070 C 
BRANCH   8   9
ATOM      9  C   UNL d   1      51.153  34.216  52.438  0.00  0.00     0.211 C 
ATOM     10  O   UNL d   1      51.224  34.233  51.619  0.00  0.00    -0.644 OA
ATOM     11  O   UNL d   1      50.414  34.271  52.787  0.00  0.00    -0.644 OA
ENDBRANCH   8   9
ENDBRANCH   7   8
ENDBRANCH   1   7
BRANCH   2  12
ATOM     12  O   UNL d   1      54.810  33.092  54.961  0.00  0.00    -0.328 OA
ATOM     13  C   UNL d   1      55.220  33.759  55.213  0.00  0.00     0.181 C 
ENDBRANCH   2  12
TORSDOF 4
ENDMDL
