MODEL 1
REMARK VINA RESULT:      63.5      0.000      0.000
REMARK  5 active torsions:
REMARK  status: ('A' for Active; 'I' for Inactive)
REMARK    1  A    between atoms: N_5  and  C_1 
REMARK    2  A    between atoms: C_8  and  C_3 
REMARK       I    between atoms: C_7  and  N_5 
REMARK    3  A    between atoms: C_11  and  C_7 
REMARK    4  A    between atoms: C_21  and  C_20 
REMARK    5  A    between atoms: C_24  and  C_21 
ROOT
ATOM      1  N   UNL d   1     -55.549-102.516 -41.038  0.00  0.00    -0.165 NA
ATOM      2  C   UNL d   1     -55.215-102.086 -40.431  0.00  0.00     0.282 C 
ATOM      3  O   UNL d   1     -54.712-101.450 -40.592  0.00  0.00    -0.265 OA
ENDROOT
BRANCH   1   4
ATOM      4  C   UNL d   1     -55.389-102.319 -41.821  0.00  0.00     0.297 A 
ATOM      5  O   UNL d   1     -55.738-101.702 -42.239  0.00  0.00    -0.253 OA
ATOM      6  C   UNL d   1     -55.421-101.700 -43.003  0.00  0.00     0.206 A 
ATOM      7  N   UNL d   1     -54.881-102.315 -43.049  0.00  0.00    -0.119 NA
ATOM      8  N   UNL d   1     -54.861-102.697 -42.320  0.00  0.00    -0.101 NA
BRANCH   6   9
ATOM      9  C   UNL d   1     -55.619-101.170 -43.607  0.00  0.00     0.045 A 
ATOM     10  C   UNL d   1     -56.054-100.481 -43.431  0.00  0.00     0.030 A 
ATOM     11  C   UNL d   1     -56.243 -99.971 -44.024  0.00  0.00     0.123 A 
ATOM     12  O   UNL d   1     -56.676 -99.287 -43.840  0.00  0.00    -0.301 OA
ATOM     13  C   UNL d   1     -56.014-100.118 -44.797  0.00  0.00     0.123 A 
ATOM     14  C   UNL d   1     -56.876 -98.758 -44.429  0.00  0.00     0.149 A 
ATOM     15  C   UNL d   1     -56.646 -98.904 -45.208  0.00  0.00     0.149 A 
ATOM     16  O   UNL d   1     -56.216 -99.579 -45.401  0.00  0.00    -0.301 OA
ATOM     17  C   UNL d   1     -55.591-100.782 -44.983  0.00  0.00     0.027 A 
ATOM     18  C   UNL d   1     -55.385-101.324 -44.386  0.00  0.00     0.006 A 
ENDBRANCH   6   9
ENDBRANCH   1   4
BRANCH   2  19
ATOM     19  C   UNL d   1     -55.375-102.282 -39.646  0.00  0.00     0.058 A 
ATOM     20  C   UNL d   1     -56.130-102.139 -39.350  0.00  0.00     0.005 A 
ATOM     21  C   UNL d   1     -56.292-102.336 -38.563  0.00  0.00     0.000 A 
ATOM     22  C   UNL d   1     -55.708-102.668 -38.084  0.00  0.00     0.000 A 
ATOM     23  C   UNL d   1     -54.957-102.805 -38.395  0.00  0.00     0.000 A 
ATOM     24  C   UNL d   1     -54.794-102.610 -39.177  0.00  0.00     0.005 A 
BRANCH  22  25
ATOM     25  C   UNL d   1     -55.875-102.861 -37.303  0.00  0.00     0.000 C 
BRANCH  25  26
ATOM     26  C   UNL d   1     -55.497-102.462 -36.687  0.00  0.00     0.000 A 
ATOM     27  C   UNL d   1     -55.391-102.835 -35.954  0.00  0.00     0.000 A 
ATOM     28  C   UNL d   1     -55.013-102.435 -35.341  0.00  0.00     0.000 A 
ATOM     29  C   UNL d   1     -54.738-101.654 -35.457  0.00  0.00     0.000 A 
ATOM     30  C   UNL d   1     -54.846-101.285 -36.188  0.00  0.00     0.000 A 
ATOM     31  C   UNL d   1     -55.226-101.687 -36.807  0.00  0.00     0.000 A 
ENDBRANCH  25  26
ENDBRANCH  22  25
ENDBRANCH   2  19
TORSDOF 5
ENDMDL
