MODEL 1
REMARK VINA RESULT:      22.3      0.000      0.000
REMARK  3 active torsions:
REMARK  status: ('A' for Active; 'I' for Inactive)
REMARK    1  A    between atoms: C_8  and  C_1 
REMARK    2  A    between atoms: C_3  and  N_14 
REMARK       I    between atoms: N_13  and  C_8 
REMARK    3  A    between atoms: N_14  and  N_13 
ROOT
ATOM      1  C   UNL d   1      44.247 -15.457  44.596  0.00  0.00     0.320 C 
ATOM      2  N   UNL d   1      44.590 -16.175  44.405  0.00  0.00    -0.102 NA
ATOM      3  O   UNL d   1      43.523 -15.248  44.954  0.00  0.00    -0.261 OA
ENDROOT
BRANCH   1   4
ATOM      4  C   UNL d   1      44.703 -14.804  44.399  0.00  0.00     0.162 A 
ATOM      5  C   UNL d   1      45.425 -14.688  44.768  0.00  0.00     0.072 A 
ATOM      6  C   UNL d   1      45.887 -14.033  44.574  0.00  0.00     0.200 A 
ATOM      7  O   UNL d   1      46.628 -13.914  44.953  0.00  0.00    -0.286 OA
ATOM      8  C   UNL d   1      45.623 -13.491  44.005  0.00  0.00     0.062 A 
ATOM      9  C   UNL d   1      44.901 -13.611  43.637  0.00  0.00     0.103 A 
ATOM     10  C   UNL d   1      46.086 -12.837  43.811  0.00  0.00     0.005 A 
ATOM     11  O   UNL d   1      44.445 -14.265  43.836  0.00  0.00    -0.302 OA
ATOM     12  C   UNL d   1      44.634 -13.080  43.075  0.00  0.00     0.025 A 
ATOM     13  C   UNL d   1      45.091 -12.423  42.875  0.00  0.00     0.002 A 
ATOM     14  C   UNL d   1      45.820 -12.306  43.248  0.00  0.00     0.000 A 
ENDBRANCH   1   4
BRANCH   2  15
ATOM     15  N   UNL d   1      45.328 -16.188  44.047  0.00  0.00    -0.118 NA
BRANCH  15  16
ATOM     16  C   UNL d   1      45.628 -16.897  43.730  0.00  0.00     0.215 A 
ATOM     17  N   UNL d   1      45.872 -17.554  44.157  0.00  0.00    -0.219 NA
ATOM     18  C   UNL d   1      46.129 -18.131  43.635  0.00  0.00     0.090 A 
ATOM     19  C   UNL d   1      46.428 -18.888  43.743  0.00  0.00     0.018 A 
ATOM     20  C   UNL d   1      46.041 -17.824  42.867  0.00  0.00     0.050 A 
ATOM     21  C   UNL d   1      46.642 -19.344  43.089  0.00  0.00     0.002 A 
ATOM     22  C   UNL d   1      46.515 -19.192  44.511  0.00  0.00     0.002 C 
ATOM     23  C   UNL d   1      46.555 -19.039  42.330  0.00  0.00     0.001 A 
ATOM     24  C   UNL d   1      46.252 -18.273  42.207  0.00  0.00     0.008 A 
ATOM     25  S   UNL d   1      45.733 -17.065  42.931  0.00  0.00    -0.045 SA
ENDBRANCH  15  16
ENDBRANCH   2  15
TORSDOF 3
ENDMDL
