MODEL 1
REMARK VINA RESULT:      -4.1      0.000      0.000
REMARK  7 active torsions:
REMARK  status: ('A' for Active; 'I' for Inactive)
REMARK    1  A    between atoms: N_9  and  C_2 
REMARK    2  A    between atoms: C_8  and  C_14 
REMARK    3  A    between atoms: C_15  and  N_9 
REMARK    4  A    between atoms: C_14  and  C_16 
REMARK    5  A    between atoms: C_17  and  C_15 
REMARK    6  A    between atoms: C_16  and  C_18 
REMARK    7  A    between atoms: C_18  and  C_17 
ROOT
ATOM      1  N   UNL d   1      58.516  -1.633  29.470  0.00  0.00    -0.198 NA
ATOM      2  C   UNL d   1      58.668  -0.831  29.605  0.00  0.00     0.166 A 
ATOM      3  C   UNL d   1      59.026  -2.076  28.996  0.00  0.00     0.222 A 
ATOM      4  C   UNL d   1      59.330  -0.475  29.266  0.00  0.00     0.054 A 
ATOM      5  N   UNL d   1      59.690  -1.716  28.658  0.00  0.00    -0.217 NA
ATOM      6  C   UNL d   1      59.841  -0.917  28.793  0.00  0.00     0.087 A 
ATOM      7  S   UNL d   1      58.881  -2.876  28.857  0.00  0.00    -0.037 SA
ATOM      8  C   UNL d   1      59.479   0.321  29.402  0.00  0.00     0.005 A 
ATOM      9  C   UNL d   1      60.500  -0.564  28.455  0.00  0.00     0.019 A 
ATOM     10  C   UNL d   1      60.144   0.682  29.063  0.00  0.00     0.000 A 
ATOM     11  C   UNL d   1      60.654   0.239  28.589  0.00  0.00     0.002 A 
ENDROOT
BRANCH   2  12
ATOM     12  N   UNL d   1      58.159  -0.390  30.077  0.00  0.00    -0.225 NA
BRANCH  12  13
ATOM     13  C   UNL d   1      57.738  -0.764  30.678  0.00  0.00     0.101 C 
BRANCH  13  14
ATOM     14  C   UNL d   1      57.289  -0.311  31.202  0.00  0.00     0.021 C 
BRANCH  14  15
ATOM     15  C   UNL d   1      56.814  -0.685  31.767  0.00  0.00     0.002 C 
BRANCH  15  16
ATOM     16  C   UNL d   1      56.507  -0.252  32.393  0.00  0.00     0.006 C 
BRANCH  16  17
ATOM     17  C   UNL d   1      55.959  -0.601  32.903  0.00  0.00     0.070 C 
BRANCH  17  18
ATOM     18  C   UNL d   1      55.599  -0.147  33.491  0.00  0.00     0.211 C 
ATOM     19  O   UNL d   1      56.057   0.321  33.992  0.00  0.00    -0.644 OA
ATOM     20  O   UNL d   1      54.774  -0.164  33.577  0.00  0.00    -0.644 OA
ENDBRANCH  17  18
ENDBRANCH  16  17
ENDBRANCH  15  16
ENDBRANCH  14  15
ENDBRANCH  13  14
ENDBRANCH  12  13
ENDBRANCH   2  12
TORSDOF 7
ENDMDL
MODEL 2
REMARK VINA RESULT:      -2.4      1.795      2.113
REMARK  7 active torsions:
REMARK  status: ('A' for Active; 'I' for Inactive)
REMARK    1  A    between atoms: N_9  and  C_2 
REMARK    2  A    between atoms: C_8  and  C_14 
REMARK    3  A    between atoms: C_15  and  N_9 
REMARK    4  A    between atoms: C_14  and  C_16 
REMARK    5  A    between atoms: C_17  and  C_15 
REMARK    6  A    between atoms: C_16  and  C_18 
REMARK    7  A    between atoms: C_18  and  C_17 
ROOT
ATOM      1  N   UNL d   1      59.009   0.511  31.421  0.00  0.00    -0.198 NA
ATOM      2  C   UNL d   1      58.410   0.405  30.860  0.00  0.00     0.166 A 
ATOM      3  C   UNL d   1      59.794   0.575  31.179  0.00  0.00     0.222 A 
ATOM      4  C   UNL d   1      58.600   0.363  30.058  0.00  0.00     0.054 A 
ATOM      5  N   UNL d   1      59.982   0.533  30.374  0.00  0.00    -0.217 NA
ATOM      6  C   UNL d   1      59.386   0.426  29.815  0.00  0.00     0.087 A 
ATOM      7  S   UNL d   1      60.397   0.682  31.733  0.00  0.00    -0.037 SA
ATOM      8  C   UNL d   1      58.004   0.257  29.504  0.00  0.00     0.005 A 
ATOM      9  C   UNL d   1      59.575   0.385  29.019  0.00  0.00     0.019 A 
ATOM     10  C   UNL d   1      58.192   0.214  28.698  0.00  0.00     0.000 A 
ATOM     11  C   UNL d   1      58.978   0.278  28.455  0.00  0.00     0.002 A 
ENDROOT
BRANCH   2  12
ATOM     12  N   UNL d   1      57.626   0.341  31.102  0.00  0.00    -0.225 NA
BRANCH  12  13
ATOM     13  C   UNL d   1      57.393   0.682  31.815  0.00  0.00     0.101 C 
BRANCH  13  14
ATOM     14  C   UNL d   1      56.625   0.562  32.090  0.00  0.00     0.021 C 
BRANCH  14  15
ATOM     15  C   UNL d   1      56.502   0.216  32.832  0.00  0.00     0.002 C 
BRANCH  15  16
ATOM     16  C   UNL d   1      55.987   0.567  33.366  0.00  0.00     0.006 C 
BRANCH  16  17
ATOM     17  C   UNL d   1      55.445   0.102  33.779  0.00  0.00     0.070 C 
BRANCH  17  18
ATOM     18  C   UNL d   1      55.008   0.432  34.397  0.00  0.00     0.211 C 
ATOM     19  O   UNL d   1      55.366   0.579  35.125  0.00  0.00    -0.644 OA
ATOM     20  O   UNL d   1      54.207   0.616  34.283  0.00  0.00    -0.644 OA
ENDBRANCH  17  18
ENDBRANCH  16  17
ENDBRANCH  15  16
ENDBRANCH  14  15
ENDBRANCH  13  14
ENDBRANCH  12  13
ENDBRANCH   2  12
TORSDOF 7
ENDMDL
