MODEL 1
REMARK VINA RESULT:      58.7      0.000      0.000
REMARK  3 active torsions:
REMARK  status: ('A' for Active; 'I' for Inactive)
REMARK    1  A    between atoms: C_11  and  C_4 
REMARK    2  A    between atoms: N_14  and  C_7 
REMARK    3  A    between atoms: C_10  and  C_12 
ROOT
ATOM      1  C   UNL d   1     -57.156 -99.206 -44.770  0.00  0.00     0.186 A 
ATOM      2  N   UNL d   1     -57.455 -99.099 -45.533  0.00  0.00    -0.193 N 
ATOM      3  N   UNL d   1     -57.672 -99.199 -44.117  0.00  0.00    -0.204 NA
ATOM      4  C   UNL d   1     -56.338 -99.305 -44.828  0.00  0.00     0.140 A 
ATOM      5  N   UNL d   1     -56.822 -99.132 -46.069  0.00  0.00    -0.058 NA
ATOM      6  N   UNL d   1     -56.129 -99.259 -45.631  0.00  0.00    -0.127 NA
ATOM      7  C   UNL d   1     -58.497 -99.084 -44.228  0.00  0.00     0.188 A 
ATOM      8  C   UNL d   1     -58.785 -98.978 -44.999  0.00  0.00     0.056 A 
ATOM      9  C   UNL d   1     -58.272 -98.984 -45.654  0.00  0.00     0.089 A 
ATOM     10  C   UNL d   1     -59.596 -98.864 -45.115  0.00  0.00     0.005 A 
ATOM     11  C   UNL d   1     -58.573 -98.878 -46.409  0.00  0.00     0.019 A 
ATOM     12  C   UNL d   1     -59.892 -98.758 -45.876  0.00  0.00     0.000 A 
ATOM     13  C   UNL d   1     -59.381 -98.765 -46.523  0.00  0.00     0.002 A 
ENDROOT
BRANCH   4  14
ATOM     14  C   UNL d   1     -55.820 -99.428 -44.195  0.00  0.00     0.022 A 
ATOM     15  C   UNL d   1     -55.629-100.196 -43.968  0.00  0.00     0.005 A 
ATOM     16  C   UNL d   1     -55.116-100.325 -43.340  0.00  0.00     0.071 A 
ATOM     17  C   UNL d   1     -54.791 -99.685 -42.935  0.00  0.00     0.004 A 
ATOM     18  C   UNL d   1     -54.986 -98.910 -43.167  0.00  0.00    -0.000 A 
ATOM     19  C   UNL d   1     -55.499 -98.790 -43.794  0.00  0.00     0.002 A 
BRANCH  16  20
ATOM     20  C   UNL d   1     -54.925-101.093 -43.113  0.00  0.00     0.419 C 
ATOM     21  F   UNL d   1     -54.721-101.845 -42.840  0.00  0.00    -0.166 F 
ATOM     22  F   UNL d   1     -55.122-101.389 -43.850  0.00  0.00    -0.166 F 
ATOM     23  F   UNL d   1     -54.722-100.800 -42.359  0.00  0.00    -0.166 F 
ENDBRANCH  16  20
ENDBRANCH   4  14
BRANCH   7  24
ATOM     24  N   UNL d   1     -59.009 -99.077 -43.581  0.00  0.00    -0.108 NA
ATOM     25  N   UNL d   1     -58.727 -98.848 -42.834  0.00  0.00    -0.021 N 
ENDBRANCH   7  24
TORSDOF 3
ENDMDL
