MODEL 1
REMARK VINA RESULT:      -7.8      0.000      0.000
REMARK  6 active torsions:
REMARK  status: ('A' for Active; 'I' for Inactive)
REMARK    1  A    between atoms: C_9  and  C_3 
REMARK    2  A    between atoms: C_8  and  C_5 
REMARK    3  A    between atoms: O_19  and  C_9 
REMARK    4  A    between atoms: C_22  and  O_19 
REMARK    5  A    between atoms: O_21  and  C_23 
REMARK    6  A    between atoms: C_23  and  C_22 
ROOT
ATOM      1  N   UNL d   1     -49.554  14.219  23.074  0.00  0.00    -0.254 N 
ATOM      2  C   UNL d   1     -49.196  14.963  23.021  0.00  0.00     0.182 A 
ATOM      3  C   UNL d   1     -48.299  13.596  22.799  0.00  0.00     0.098 A 
ATOM      4  N   UNL d   1     -48.389  15.018  22.857  0.00  0.00    -0.222 NA
ATOM      5  C   UNL d   1     -49.109  13.534  22.964  0.00  0.00     0.081 A 
ATOM      6  C   UNL d   1     -47.937  14.338  22.745  0.00  0.00     0.090 A 
ATOM      7  C   UNL d   1     -50.360  14.164  23.238  0.00  0.00     0.267 A 
ATOM      8  S   UNL d   1     -49.637  15.646  23.130  0.00  0.00    -0.049 SA
ATOM      9  C   UNL d   1     -50.805  14.849  23.348  0.00  0.00     0.068 A 
ATOM     10  O   UNL d   1     -50.722  13.422  23.292  0.00  0.00    -0.267 OA
ATOM     11  C   UNL d   1     -50.444  15.591  23.294  0.00  0.00     0.043 A 
ATOM     12  C   UNL d   1     -47.132  14.399  22.581  0.00  0.00     0.021 C 
ENDROOT
BRANCH   3  13
ATOM     13  C   UNL d   1     -47.852  12.914  22.688  0.00  0.00     0.303 C 
ATOM     14  O   UNL d   1     -47.862  12.519  21.962  0.00  0.00    -0.259 OA
BRANCH  13  15
ATOM     15  O   UNL d   1     -47.388  12.619  23.304  0.00  0.00    -0.269 OA
BRANCH  15  16
ATOM     16  C   UNL d   1     -46.694  12.197  23.143  0.00  0.00     0.152 C 
BRANCH  16  17
ATOM     17  C   UNL d   1     -46.398  11.654  23.693  0.00  0.00     0.143 C 
BRANCH  17  18
ATOM     18  O   UNL d   1     -45.590  11.471  23.698  0.00  0.00    -0.324 OA
ATOM     19  C   UNL d   1     -45.342  10.691  23.590  0.00  0.00     0.182 C 
ENDBRANCH  17  18
ENDBRANCH  16  17
ENDBRANCH  15  16
ENDBRANCH  13  15
ENDBRANCH   3  13
BRANCH   5  20
ATOM     20  C   UNL d   1     -49.470  12.792  23.017  0.00  0.00     0.046 A 
ATOM     21  S   UNL d   1     -49.613  12.294  23.659  0.00  0.00    -0.085 SA
ATOM     22  C   UNL d   1     -49.996  11.621  23.375  0.00  0.00     0.035 A 
ATOM     23  C   UNL d   1     -50.088  11.705  22.561  0.00  0.00     0.007 A 
ATOM     24  C   UNL d   1     -49.765  12.426  22.340  0.00  0.00     0.009 A 
ENDBRANCH   5  20
TORSDOF 6
ENDMDL
MODEL 2
REMARK VINA RESULT:      -7.6      1.537      2.639
REMARK  6 active torsions:
REMARK  status: ('A' for Active; 'I' for Inactive)
REMARK    1  A    between atoms: C_9  and  C_3 
REMARK    2  A    between atoms: C_8  and  C_5 
REMARK    3  A    between atoms: O_19  and  C_9 
REMARK    4  A    between atoms: C_22  and  O_19 
REMARK    5  A    between atoms: O_21  and  C_23 
REMARK    6  A    between atoms: C_23  and  C_22 
ROOT
ATOM      1  N   UNL d   1     -48.968  12.610  23.157  0.00  0.00    -0.254 N 
ATOM      2  C   UNL d   1     -48.944  11.839  23.454  0.00  0.00     0.182 A 
ATOM      3  C   UNL d   1     -47.543  12.678  23.221  0.00  0.00     0.098 A 
ATOM      4  N   UNL d   1     -48.217  11.491  23.632  0.00  0.00    -0.222 NA
ATOM      5  C   UNL d   1     -48.269  13.033  23.039  0.00  0.00     0.081 A 
ATOM      6  C   UNL d   1     -47.515  11.906  23.517  0.00  0.00     0.090 A 
ATOM      7  C   UNL d   1     -49.694  12.958  22.978  0.00  0.00     0.267 A 
ATOM      8  S   UNL d   1     -49.638  11.416  23.571  0.00  0.00    -0.049 SA
ATOM      9  C   UNL d   1     -50.392  12.535  23.096  0.00  0.00     0.068 A 
ATOM     10  O   UNL d   1     -49.722  13.729  22.682  0.00  0.00    -0.267 OA
ATOM     11  C   UNL d   1     -50.364  11.764  23.393  0.00  0.00     0.043 A 
ATOM     12  C   UNL d   1     -46.792  11.554  23.698  0.00  0.00     0.021 C 
ENDROOT
BRANCH   3  13
ATOM     13  C   UNL d   1     -46.844  13.097  23.105  0.00  0.00     0.303 C 
ATOM     14  O   UNL d   1     -46.598  13.662  23.656  0.00  0.00    -0.259 OA
BRANCH  13  15
ATOM     15  O   UNL d   1     -46.384  12.956  22.434  0.00  0.00    -0.269 OA
BRANCH  15  16
ATOM     16  C   UNL d   1     -45.572  13.120  22.439  0.00  0.00     0.152 C 
BRANCH  16  17
ATOM     17  C   UNL d   1     -45.103  12.927  21.785  0.00  0.00     0.143 C 
BRANCH  17  18
ATOM     18  O   UNL d   1     -44.324  13.208  21.740  0.00  0.00    -0.324 OA
ATOM     19  C   UNL d   1     -43.723  12.717  21.460  0.00  0.00     0.182 C 
ENDBRANCH  17  18
ENDBRANCH  16  17
ENDBRANCH  15  16
ENDBRANCH  13  15
ENDBRANCH   3  13
BRANCH   5  20
ATOM     20  C   UNL d   1     -48.297  13.805  22.743  0.00  0.00     0.046 A 
ATOM     21  S   UNL d   1     -48.263  14.540  23.115  0.00  0.00    -0.085 SA
ATOM     22  C   UNL d   1     -48.318  15.119  22.532  0.00  0.00     0.035 A 
ATOM     23  C   UNL d   1     -48.385  14.742  21.803  0.00  0.00     0.007 A 
ATOM     24  C   UNL d   1     -48.372  13.933  21.931  0.00  0.00     0.009 A 
ENDBRANCH   5  20
TORSDOF 6
ENDMDL
MODEL 3
REMARK VINA RESULT:      -7.2      1.479      3.556
REMARK  6 active torsions:
REMARK  status: ('A' for Active; 'I' for Inactive)
REMARK    1  A    between atoms: C_9  and  C_3 
REMARK    2  A    between atoms: C_8  and  C_5 
REMARK    3  A    between atoms: O_19  and  C_9 
REMARK    4  A    between atoms: C_22  and  O_19 
REMARK    5  A    between atoms: O_21  and  C_23 
REMARK    6  A    between atoms: C_23  and  C_22 
ROOT
ATOM      1  N   UNL d   1     -47.547  12.209  23.292  0.00  0.00    -0.254 N 
ATOM      2  C   UNL d   1     -46.774  12.505  23.294  0.00  0.00     0.182 A 
ATOM      3  C   UNL d   1     -48.034  13.489  22.887  0.00  0.00     0.098 A 
ATOM      4  N   UNL d   1     -46.637  13.293  23.092  0.00  0.00    -0.222 NA
ATOM      5  C   UNL d   1     -48.179  12.699  23.089  0.00  0.00     0.081 A 
ATOM      6  C   UNL d   1     -47.263  13.788  22.888  0.00  0.00     0.090 A 
ATOM      7  C   UNL d   1     -47.685  11.421  23.494  0.00  0.00     0.267 A 
ATOM      8  S   UNL d   1     -46.143  12.019  23.495  0.00  0.00    -0.049 SA
ATOM      9  C   UNL d   1     -47.052  10.932  23.696  0.00  0.00     0.068 A 
ATOM     10  O   UNL d   1     -48.456  11.122  23.493  0.00  0.00    -0.267 OA
ATOM     11  C   UNL d   1     -46.281  11.231  23.697  0.00  0.00     0.043 A 
ATOM     12  C   UNL d   1     -47.119  14.574  22.688  0.00  0.00     0.021 C 
ENDROOT
BRANCH   3  13
ATOM     13  C   UNL d   1     -48.663  13.980  22.685  0.00  0.00     0.303 C 
ATOM     14  O   UNL d   1     -48.974  13.968  21.918  0.00  0.00    -0.259 OA
BRANCH  13  15
ATOM     15  O   UNL d   1     -48.988  14.489  23.247  0.00  0.00    -0.269 OA
BRANCH  15  16
ATOM     16  C   UNL d   1     -49.442  15.141  23.012  0.00  0.00     0.152 C 
BRANCH  16  17
ATOM     17  C   UNL d   1     -49.730  15.674  23.575  0.00  0.00     0.143 C 
BRANCH  17  18
ATOM     18  O   UNL d   1     -50.547  15.743  23.697  0.00  0.00    -0.324 OA
ATOM     19  C   UNL d   1     -51.053  15.852  23.054  0.00  0.00     0.182 C 
ENDBRANCH  17  18
ENDBRANCH  16  17
ENDBRANCH  15  16
ENDBRANCH  13  15
ENDBRANCH   3  13
BRANCH   5  20
ATOM     20  C   UNL d   1     -48.950  12.400  23.088  0.00  0.00     0.046 A 
ATOM     21  S   UNL d   1     -49.511  12.320  23.688  0.00  0.00    -0.085 SA
ATOM     22  C   UNL d   1     -50.186  11.982  23.357  0.00  0.00     0.035 A 
ATOM     23  C   UNL d   1     -50.042  11.855  22.556  0.00  0.00     0.007 A 
ATOM     24  C   UNL d   1     -49.281  12.112  22.389  0.00  0.00     0.009 A 
ENDBRANCH   5  20
TORSDOF 6
ENDMDL
MODEL 4
REMARK VINA RESULT:      -6.1      1.085      2.159
REMARK  6 active torsions:
REMARK  status: ('A' for Active; 'I' for Inactive)
REMARK    1  A    between atoms: C_9  and  C_3 
REMARK    2  A    between atoms: C_8  and  C_5 
REMARK    3  A    between atoms: O_19  and  C_9 
REMARK    4  A    between atoms: C_22  and  O_19 
REMARK    5  A    between atoms: O_21  and  C_23 
REMARK    6  A    between atoms: C_23  and  C_22 
ROOT
ATOM      1  N   UNL d   1     -49.411  13.639  23.155  0.00  0.00    -0.254 N 
ATOM      2  C   UNL d   1     -50.016  13.160  23.452  0.00  0.00     0.182 A 
ATOM      3  C   UNL d   1     -48.583  12.488  22.987  0.00  0.00     0.098 A 
ATOM      4  N   UNL d   1     -49.900  12.346  23.515  0.00  0.00    -0.222 NA
ATOM      5  C   UNL d   1     -48.693  13.307  22.921  0.00  0.00     0.081 A 
ATOM      6  C   UNL d   1     -49.185  12.006  23.284  0.00  0.00     0.090 A 
ATOM      7  C   UNL d   1     -49.527  14.454  23.092  0.00  0.00     0.267 A 
ATOM      8  S   UNL d   1     -50.732  13.489  23.685  0.00  0.00    -0.049 SA
ATOM      9  C   UNL d   1     -50.246  14.786  23.326  0.00  0.00     0.068 A 
ATOM     10  O   UNL d   1     -48.925  14.936  22.796  0.00  0.00    -0.267 OA
ATOM     11  C   UNL d   1     -50.848  14.303  23.623  0.00  0.00     0.043 A 
ATOM     12  C   UNL d   1     -49.075  11.192  23.348  0.00  0.00     0.021 C 
ENDROOT
BRANCH   3  13
ATOM     13  C   UNL d   1     -47.868  12.154  22.755  0.00  0.00     0.303 C 
ATOM     14  O   UNL d   1     -47.706  12.025  21.954  0.00  0.00    -0.259 OA
BRANCH  13  15
ATOM     15  O   UNL d   1     -47.305  11.945  23.322  0.00  0.00    -0.269 OA
BRANCH  15  16
ATOM     16  C   UNL d   1     -46.674  11.446  23.124  0.00  0.00     0.152 C 
BRANCH  16  17
ATOM     17  C   UNL d   1     -46.092  11.269  23.684  0.00  0.00     0.143 C 
BRANCH  17  18
ATOM     18  O   UNL d   1     -45.298  11.217  23.450  0.00  0.00    -0.324 OA
ATOM     19  C   UNL d   1     -44.880  10.513  23.556  0.00  0.00     0.182 C 
ENDBRANCH  17  18
ENDBRANCH  16  17
ENDBRANCH  15  16
ENDBRANCH  13  15
ENDBRANCH   3  13
BRANCH   5  20
ATOM     20  C   UNL d   1     -48.091  13.790  22.625  0.00  0.00     0.046 A 
ATOM     21  S   UNL d   1     -47.850  13.960  21.854  0.00  0.00    -0.085 SA
ATOM     22  C   UNL d   1     -47.214  14.483  21.900  0.00  0.00     0.035 A 
ATOM     23  C   UNL d   1     -47.064  14.633  22.696  0.00  0.00     0.007 A 
ATOM     24  C   UNL d   1     -47.603  14.207  23.143  0.00  0.00     0.009 A 
ENDBRANCH   5  20
TORSDOF 6
ENDMDL
MODEL 5
REMARK VINA RESULT:      -4.9      9.775     10.474
REMARK  6 active torsions:
REMARK  status: ('A' for Active; 'I' for Inactive)
REMARK    1  A    between atoms: C_9  and  C_3 
REMARK    2  A    between atoms: C_8  and  C_5 
REMARK    3  A    between atoms: O_19  and  C_9 
REMARK    4  A    between atoms: C_22  and  O_19 
REMARK    5  A    between atoms: O_21  and  C_23 
REMARK    6  A    between atoms: C_23  and  C_22 
ROOT
ATOM      1  N   UNL d   1     -40.113  15.064  17.901  0.00  0.00    -0.254 N 
ATOM      2  C   UNL d   1     -40.645  15.623  18.199  0.00  0.00     0.182 A 
ATOM      3  C   UNL d   1     -39.445  15.030  19.162  0.00  0.00     0.098 A 
ATOM      4  N   UNL d   1     -40.573  15.882  18.979  0.00  0.00    -0.222 NA
ATOM      5  C   UNL d   1     -39.512  14.765  18.380  0.00  0.00     0.081 A 
ATOM      6  C   UNL d   1     -39.974  15.588  19.464  0.00  0.00     0.090 A 
ATOM      7  C   UNL d   1     -40.186  14.805  17.121  0.00  0.00     0.267 A 
ATOM      8  S   UNL d   1     -41.245  15.922  17.724  0.00  0.00    -0.049 SA
ATOM      9  C   UNL d   1     -40.787  15.104  16.643  0.00  0.00     0.068 A 
ATOM     10  O   UNL d   1     -39.656  14.247  16.820  0.00  0.00    -0.267 OA
ATOM     11  C   UNL d   1     -41.317  15.663  16.945  0.00  0.00     0.043 A 
ATOM     12  C   UNL d   1     -39.907  15.851  20.242  0.00  0.00     0.021 C 
ENDROOT
BRANCH   3  13
ATOM     13  C   UNL d   1     -38.846  14.733  19.642  0.00  0.00     0.303 C 
ATOM     14  O   UNL d   1     -38.065  14.989  19.545  0.00  0.00    -0.259 OA
BRANCH  13  15
ATOM     15  O   UNL d   1     -39.020  14.176  20.226  0.00  0.00    -0.269 OA
BRANCH  15  16
ATOM     16  C   UNL d   1     -38.635  14.200  20.959  0.00  0.00     0.152 C 
BRANCH  16  17
ATOM     17  C   UNL d   1     -38.453  13.498  21.358  0.00  0.00     0.143 C 
BRANCH  17  18
ATOM     18  O   UNL d   1     -38.415  13.494  22.186  0.00  0.00    -0.324 OA
ATOM     19  C   UNL d   1     -37.958  12.928  22.575  0.00  0.00     0.182 C 
ENDBRANCH  17  18
ENDBRANCH  16  17
ENDBRANCH  15  16
ENDBRANCH  13  15
ENDBRANCH   3  13
BRANCH   5  20
ATOM     20  C   UNL d   1     -38.982  14.206  18.078  0.00  0.00     0.046 A 
ATOM     21  S   UNL d   1     -38.199  14.270  17.825  0.00  0.00    -0.085 SA
ATOM     22  C   UNL d   1     -37.954  13.522  17.579  0.00  0.00     0.035 A 
ATOM     23  C   UNL d   1     -38.583  13.000  17.681  0.00  0.00     0.007 A 
ATOM     24  C   UNL d   1     -39.217  13.421  17.988  0.00  0.00     0.009 A 
ENDBRANCH   5  20
TORSDOF 6
ENDMDL
