MODEL 1
REMARK VINA RESULT:      -6.9      0.000      0.000
REMARK  1 active torsions:
REMARK  status: ('A' for Active; 'I' for Inactive)
REMARK    1  A    between atoms: C_6  and  C_1 
ROOT
ATOM      1  C   UNL d   1      57.341   0.023  31.108  0.00  0.00     0.128 A 
ATOM      2  C   UNL d   1      57.325  -0.800  31.065  0.00  0.00     0.306 A 
ATOM      3  C   UNL d   1      56.891   0.419  31.688  0.00  0.00     0.013 A 
ATOM      4  O   UNL d   1      56.861  -1.234  31.601  0.00  0.00    -0.273 OA
ATOM      5  C   UNL d   1      56.433  -0.018  32.216  0.00  0.00     0.023 A 
ATOM      6  C   UNL d   1      56.418  -0.842  32.173  0.00  0.00     0.103 A 
ATOM      7  O   UNL d   1      57.769  -1.192  30.493  0.00  0.00    -0.259 OA
ATOM      8  C   UNL d   1      55.989   0.373  32.789  0.00  0.00     0.002 A 
ATOM      9  C   UNL d   1      55.959  -1.275  32.703  0.00  0.00     0.025 A 
ATOM     10  C   UNL d   1      55.530  -0.059  33.318  0.00  0.00     0.000 A 
ATOM     11  C   UNL d   1      55.515  -0.883  33.275  0.00  0.00     0.002 A 
ATOM     12  C   UNL d   1      55.086   0.332  33.891  0.00  0.00     0.000 C 
ENDROOT
BRANCH   1  13
ATOM     13  C   UNL d   1      57.802   0.455  30.575  0.00  0.00     0.216 C 
ATOM     14  O   UNL d   1      57.486   0.682  29.847  0.00  0.00    -0.644 OA
ATOM     15  O   UNL d   1      58.575   0.659  30.770  0.00  0.00    -0.644 OA
ENDBRANCH   1  13
TORSDOF 1
ENDMDL
MODEL 2
REMARK VINA RESULT:      -5.0      1.586      3.093
REMARK  1 active torsions:
REMARK  status: ('A' for Active; 'I' for Inactive)
REMARK    1  A    between atoms: C_6  and  C_1 
ROOT
ATOM      1  C   UNL d   1      55.641   0.060  33.271  0.00  0.00     0.128 A 
ATOM      2  C   UNL d   1      55.639  -0.763  33.206  0.00  0.00     0.306 A 
ATOM      3  C   UNL d   1      56.101   0.518  32.749  0.00  0.00     0.013 A 
ATOM      4  O   UNL d   1      56.097  -1.132  32.618  0.00  0.00    -0.273 OA
ATOM      5  C   UNL d   1      56.553   0.145  32.169  0.00  0.00     0.023 A 
ATOM      6  C   UNL d   1      56.551  -0.678  32.103  0.00  0.00     0.103 A 
ATOM      7  O   UNL d   1      55.185  -1.217  33.721  0.00  0.00    -0.259 OA
ATOM      8  C   UNL d   1      57.008   0.598  31.653  0.00  0.00     0.002 A 
ATOM      9  C   UNL d   1      57.004  -1.047  31.522  0.00  0.00     0.025 A 
ATOM     10  C   UNL d   1      57.460   0.229  31.073  0.00  0.00     0.000 A 
ATOM     11  C   UNL d   1      57.458  -0.593  31.007  0.00  0.00     0.002 A 
ATOM     12  C   UNL d   1      57.915   0.682  30.557  0.00  0.00     0.000 C 
ENDROOT
BRANCH   1  13
ATOM     13  C   UNL d   1      55.186   0.428  33.855  0.00  0.00     0.216 C 
ATOM     14  O   UNL d   1      54.407   0.646  33.692  0.00  0.00    -0.644 OA
ATOM     15  O   UNL d   1      55.509   0.576  34.596  0.00  0.00    -0.644 OA
ENDBRANCH   1  13
TORSDOF 1
ENDMDL
MODEL 3
REMARK VINA RESULT:      -4.9      0.923      1.473
REMARK  1 active torsions:
REMARK  status: ('A' for Active; 'I' for Inactive)
REMARK    1  A    between atoms: C_6  and  C_1 
ROOT
ATOM      1  C   UNL d   1      57.335   0.149  31.513  0.00  0.00     0.128 A 
ATOM      2  C   UNL d   1      57.929   0.463  31.992  0.00  0.00     0.306 A 
ATOM      3  C   UNL d   1      56.576   0.011  31.827  0.00  0.00     0.013 A 
ATOM      4  O   UNL d   1      57.767   0.641  32.787  0.00  0.00    -0.273 OA
ATOM      5  C   UNL d   1      56.423   0.190  32.617  0.00  0.00     0.023 A 
ATOM      6  C   UNL d   1      57.016   0.504  33.096  0.00  0.00     0.103 A 
ATOM      7  O   UNL d   1      58.679   0.600  31.683  0.00  0.00    -0.259 OA
ATOM      8  C   UNL d   1      55.672   0.053  32.928  0.00  0.00     0.002 A 
ATOM      9  C   UNL d   1      56.860   0.682  33.885  0.00  0.00     0.025 A 
ATOM     10  C   UNL d   1      55.515   0.231  33.715  0.00  0.00     0.000 A 
ATOM     11  C   UNL d   1      56.109   0.545  34.194  0.00  0.00     0.002 A 
ATOM     12  C   UNL d   1      54.765   0.094  34.026  0.00  0.00     0.000 C 
ENDROOT
BRANCH   1  13
ATOM     13  C   UNL d   1      57.495  -0.029  30.721  0.00  0.00     0.216 C 
ATOM     14  O   UNL d   1      57.806  -0.766  30.520  0.00  0.00    -0.644 OA
ATOM     15  O   UNL d   1      57.344   0.529  30.135  0.00  0.00    -0.644 OA
ENDBRANCH   1  13
TORSDOF 1
ENDMDL
MODEL 4
REMARK VINA RESULT:      -4.8      1.435      3.282
REMARK  1 active torsions:
REMARK  status: ('A' for Active; 'I' for Inactive)
REMARK    1  A    between atoms: C_6  and  C_1 
ROOT
ATOM      1  C   UNL d   1      56.461  -0.465  32.612  0.00  0.00     0.128 A 
ATOM      2  C   UNL d   1      56.890   0.109  33.020  0.00  0.00     0.306 A 
ATOM      3  C   UNL d   1      56.665  -0.659  31.829  0.00  0.00     0.013 A 
ATOM      4  O   UNL d   1      57.526   0.493  32.648  0.00  0.00    -0.273 OA
ATOM      5  C   UNL d   1      57.298  -0.275  31.465  0.00  0.00     0.023 A 
ATOM      6  C   UNL d   1      57.727   0.299  31.873  0.00  0.00     0.103 A 
ATOM      7  O   UNL d   1      56.689   0.303  33.795  0.00  0.00    -0.259 OA
ATOM      8  C   UNL d   1      57.500  -0.467  30.690  0.00  0.00     0.002 A 
ATOM      9  C   UNL d   1      58.358   0.681  31.507  0.00  0.00     0.025 A 
ATOM     10  C   UNL d   1      58.130  -0.086  30.324  0.00  0.00     0.000 A 
ATOM     11  C   UNL d   1      58.560   0.488  30.732  0.00  0.00     0.002 A 
ATOM     12  C   UNL d   1      58.333  -0.278  29.549  0.00  0.00     0.000 C 
ENDROOT
BRANCH   1  13
ATOM     13  C   UNL d   1      55.827  -0.847  32.982  0.00  0.00     0.216 C 
ATOM     14  O   UNL d   1      55.136  -0.429  33.149  0.00  0.00    -0.644 OA
ATOM     15  O   UNL d   1      55.887  -1.642  33.185  0.00  0.00    -0.644 OA
ENDBRANCH   1  13
TORSDOF 1
ENDMDL
MODEL 5
REMARK VINA RESULT:      -4.5      1.091      2.036
REMARK  1 active torsions:
REMARK  status: ('A' for Active; 'I' for Inactive)
REMARK    1  A    between atoms: C_6  and  C_1 
ROOT
ATOM      1  C   UNL d   1      58.205  -0.558  29.916  0.00  0.00     0.128 A 
ATOM      2  C   UNL d   1      58.227   0.267  29.935  0.00  0.00     0.306 A 
ATOM      3  C   UNL d   1      57.764  -0.977  30.485  0.00  0.00     0.013 A 
ATOM      4  O   UNL d   1      57.807   0.677  30.523  0.00  0.00    -0.273 OA
ATOM      5  C   UNL d   1      57.349  -0.562  31.065  0.00  0.00     0.023 A 
ATOM      6  C   UNL d   1      57.371   0.263  31.084  0.00  0.00     0.103 A 
ATOM      7  O   UNL d   1      58.662   0.682  29.373  0.00  0.00    -0.259 OA
ATOM      8  C   UNL d   1      56.913  -0.976  31.628  0.00  0.00     0.002 A 
ATOM      9  C   UNL d   1      56.956   0.673  31.666  0.00  0.00     0.025 A 
ATOM     10  C   UNL d   1      56.498  -0.566  32.208  0.00  0.00     0.000 A 
ATOM     11  C   UNL d   1      56.520   0.258  32.227  0.00  0.00     0.002 A 
ATOM     12  C   UNL d   1      56.062  -0.980  32.771  0.00  0.00     0.000 C 
ENDROOT
BRANCH   1  13
ATOM     13  C   UNL d   1      58.623  -0.967  29.331  0.00  0.00     0.216 C 
ATOM     14  O   UNL d   1      58.218  -1.299  28.693  0.00  0.00    -0.644 OA
ATOM     15  O   UNL d   1      59.440  -1.044  29.386  0.00  0.00    -0.644 OA
ENDBRANCH   1  13
TORSDOF 1
ENDMDL
