MODEL 1
REMARK VINA RESULT:      74.7      0.000      0.000
REMARK  5 active torsions:
REMARK  status: ('A' for Active; 'I' for Inactive)
REMARK    1  A    between atoms: C_4  and  C_1 
REMARK    2  A    between atoms: C_3  and  N_8 
REMARK       I    between atoms: N_8  and  C_4 
REMARK    3  A    between atoms: C_13  and  C_6 
REMARK    4  A    between atoms: C_14  and  C_10 
REMARK    5  A    between atoms: C_20  and  C_14 
ROOT
ATOM      1  C   UNL d   1      60.435  48.552  50.559  0.00  0.00     0.083 A 
ATOM      2  C   UNL d   1      59.678  48.518  50.216  0.00  0.00     0.032 A 
ATOM      3  C   UNL d   1      59.210  49.081  50.583  0.00  0.00     0.100 A 
ATOM      4  C   UNL d   1      60.415  49.146  51.141  0.00  0.00     0.105 A 
ATOM      5  O   UNL d   1      59.655  49.469  51.150  0.00  0.00    -0.307 OA
ATOM      6  C   UNL d   1      61.053  49.364  51.618  0.00  0.00     0.027 C 
ENDROOT
BRANCH   1   7
ATOM      7  C   UNL d   1      61.088  48.084  50.362  0.00  0.00     0.283 C 
ATOM      8  N   UNL d   1      61.011  47.484  49.813  0.00  0.00    -0.181 NA
ATOM      9  O   UNL d   1      61.812  48.232  50.726  0.00  0.00    -0.265 OA
BRANCH   8  10
ATOM     10  C   UNL d   1      61.663  47.020  49.618  0.00  0.00     0.216 A 
ATOM     11  N   UNL d   1      61.647  46.221  49.454  0.00  0.00    -0.200 NA
ATOM     12  C   UNL d   1      62.410  45.980  49.289  0.00  0.00     0.175 A 
ATOM     13  N   UNL d   1      62.901  46.639  49.354  0.00  0.00    -0.187 NA
ATOM     14  S   UNL d   1      62.435  47.279  49.557  0.00  0.00     0.054 SA
BRANCH  12  15
ATOM     15  C   UNL d   1      62.649  45.224  49.096  0.00  0.00     0.082 C 
BRANCH  15  16
ATOM     16  C   UNL d   1      62.171  44.582  49.288  0.00  0.00     0.199 C 
ATOM     17  O   UNL d   1      62.396  44.059  49.882  0.00  0.00    -0.286 OA
ATOM     18  C   UNL d   1      61.465  44.462  48.886  0.00  0.00     0.045 C 
ENDBRANCH  15  16
ENDBRANCH  12  15
ENDBRANCH   8  10
ENDBRANCH   1   7
BRANCH   3  19
ATOM     19  C   UNL d   1      58.424  49.233  50.412  0.00  0.00     0.024 A 
ATOM     20  C   UNL d   1      57.857  49.198  51.015  0.00  0.00     0.014 A 
ATOM     21  C   UNL d   1      57.063  49.352  50.836  0.00  0.00     0.068 A 
ATOM     22 CL   UNL d   1      56.502  49.317  51.437  0.00  0.00    -0.082 Cl
ATOM     23  C   UNL d   1      56.833  49.539  50.065  0.00  0.00     0.068 A 
ATOM     24  C   UNL d   1      57.394  49.575  49.464  0.00  0.00     0.012 A 
ATOM     25 CL   UNL d   1      56.034  49.692  49.898  0.00  0.00    -0.082 Cl
ATOM     26  C   UNL d   1      58.191  49.422  49.632  0.00  0.00     0.003 A 
ENDBRANCH   3  19
TORSDOF 5
ENDMDL
