MODEL 1
REMARK VINA RESULT:      22.9      0.000      0.000
REMARK  2 active torsions:
REMARK  status: ('A' for Active; 'I' for Inactive)
REMARK    1  A    between atoms: C_6  and  C_1 
REMARK    2  A    between atoms: N_8  and  C_6 
ROOT
ATOM      1  C   UNL d   1      13.633  13.188  -2.755  0.00  0.00     0.090 C 
ENDROOT
BRANCH   1   2
ATOM      2  C   UNL d   1      13.433  12.843  -3.479  0.00  0.00     0.133 A 
ATOM      3  C   UNL d   1      13.002  12.139  -3.486  0.00  0.00     0.289 A 
ATOM      4  N   UNL d   1      12.799  11.788  -4.205  0.00  0.00    -0.151 NA
ATOM      5  O   UNL d   1      12.770  11.780  -2.778  0.00  0.00    -0.265 OA
ATOM      6  C   UNL d   1      13.030  12.146  -4.914  0.00  0.00     0.374 A 
ATOM      7  N   UNL d   1      13.462  12.849  -4.907  0.00  0.00    -0.151 NA
ATOM      8  O   UNL d   1      12.827  11.794  -5.633  0.00  0.00    -0.242 OA
ATOM      9  C   UNL d   1      13.664  13.200  -4.176  0.00  0.00     0.289 A 
ATOM     10  O   UNL d   1      14.091  13.897  -4.165  0.00  0.00    -0.265 OA
ENDBRANCH   1   2
BRANCH   1  11
ATOM     11  N   UNL d   1      14.125  12.788  -2.229  0.00  0.00    -0.304 N 
ATOM     12  C   UNL d   1      14.387  13.069  -1.494  0.00  0.00     0.064 A 
ATOM     13  C   UNL d   1      14.865  12.488  -1.161  0.00  0.00     0.018 A 
ATOM     14  C   UNL d   1      14.249  13.774  -1.095  0.00  0.00     0.018 A 
ATOM     15  C   UNL d   1      15.210  12.615  -0.418  0.00  0.00     0.002 A 
ATOM     16  C   UNL d   1      14.904  11.852  -1.676  0.00  0.00     0.021 A 
ATOM     17  C   UNL d   1      15.070  13.322  -0.020  0.00  0.00     0.000 A 
ATOM     18  C   UNL d   1      14.589  13.901  -0.360  0.00  0.00     0.002 A 
ATOM     19  C   UNL d   1      14.449  12.029  -2.341  0.00  0.00     0.080 A 
ENDBRANCH   1  11
TORSDOF 2
ENDMDL
