MODEL 1
REMARK VINA RESULT:      -7.3      0.000      0.000
REMARK  6 active torsions:
REMARK  status: ('A' for Active; 'I' for Inactive)
REMARK    1  A    between atoms: N_2  and  S_1 
REMARK    2  A    between atoms: C_5  and  S_1 
REMARK    3  A    between atoms: S_6  and  C_3 
REMARK    4  A    between atoms: C_18  and  S_6 
REMARK       I    between atoms: C_9  and  N_11 
REMARK    5  A    between atoms: N_11  and  C_19 
REMARK    6  A    between atoms: C_17  and  C_18 
ROOT
ATOM      1  N   UNL d   1      53.796  33.143  53.885  0.00  0.00    -0.208 N 
ATOM      2  C   UNL d   1      54.024  32.378  53.649  0.00  0.00     0.189 A 
ATOM      3  N   UNL d   1      54.620  32.452  53.079  0.00  0.00    -0.219 NA
ATOM      4  C   UNL d   1      54.254  33.691  53.458  0.00  0.00     0.114 A 
ATOM      5  C   UNL d   1      54.759  33.262  52.964  0.00  0.00     0.121 A 
ENDROOT
BRANCH   1   6
ATOM      6  S   UNL d   1      53.213  33.323  54.448  0.00  0.00     0.273 S 
ATOM      7  O   UNL d   1      52.811  33.418  55.167  0.00  0.00    -0.200 OA
ATOM      8  O   UNL d   1      53.738  33.066  55.022  0.00  0.00    -0.200 OA
BRANCH   6   9
ATOM      9  C   UNL d   1      52.668  33.586  53.884  0.00  0.00     0.104 A 
ATOM     10  C   UNL d   1      52.076  33.087  53.636  0.00  0.00     0.014 A 
ATOM     11  C   UNL d   1      51.523  33.341  53.069  0.00  0.00     0.020 A 
ATOM     12  C   UNL d   1      51.588  34.103  52.766  0.00  0.00     0.085 A 
ATOM     13  C   UNL d   1      52.190  34.603  53.022  0.00  0.00     0.020 A 
ATOM     14  C   UNL d   1      52.738  34.349  53.585  0.00  0.00     0.014 A 
BRANCH  12  15
ATOM     15  N   UNL d   1      51.044  34.366  52.202  0.00  0.00    -0.208 NA
ATOM     16  C   UNL d   1      50.257  34.475  52.416  0.00  0.00     0.279 C 
ATOM     17  O   UNL d   1      49.999  34.327  53.180  0.00  0.00    -0.265 OA
ATOM     18  C   UNL d   1      49.703  34.742  51.844  0.00  0.00     0.068 C 
ENDBRANCH  12  15
ENDBRANCH   6   9
ENDBRANCH   1   6
BRANCH   2  19
ATOM     19  S   UNL d   1      53.707  31.665  53.938  0.00  0.00    -0.049 SA
BRANCH  19  20
ATOM     20  C   UNL d   1      53.971  30.945  53.629  0.00  0.00     0.040 C 
BRANCH  20  21
ATOM     21  C   UNL d   1      53.563  30.251  53.803  0.00  0.00     0.026 A 
ATOM     22  C   UNL d   1      52.978  29.963  53.273  0.00  0.00     0.099 A 
ATOM     23  N   UNL d   1      52.562  29.272  53.431  0.00  0.00    -0.242 NA
ATOM     24  C   UNL d   1      52.732  28.862  54.127  0.00  0.00     0.099 A 
ATOM     25  C   UNL d   1      53.305  29.138  54.651  0.00  0.00     0.021 A 
ATOM     26  C   UNL d   1      53.719  29.832  54.487  0.00  0.00     0.004 A 
ENDBRANCH  20  21
ENDBRANCH  19  20
ENDBRANCH   2  19
TORSDOF 6
ENDMDL
MODEL 2
REMARK VINA RESULT:      -6.7      2.349      5.053
REMARK  6 active torsions:
REMARK  status: ('A' for Active; 'I' for Inactive)
REMARK    1  A    between atoms: N_2  and  S_1 
REMARK    2  A    between atoms: C_5  and  S_1 
REMARK    3  A    between atoms: S_6  and  C_3 
REMARK    4  A    between atoms: C_18  and  S_6 
REMARK       I    between atoms: C_9  and  N_11 
REMARK    5  A    between atoms: N_11  and  C_19 
REMARK    6  A    between atoms: C_17  and  C_18 
ROOT
ATOM      1  N   UNL d   1      51.481  33.718  52.790  0.00  0.00    -0.208 N 
ATOM      2  C   UNL d   1      50.674  33.795  52.978  0.00  0.00     0.189 A 
ATOM      3  N   UNL d   1      50.421  33.086  53.323  0.00  0.00    -0.219 NA
ATOM      4  C   UNL d   1      51.726  32.957  53.020  0.00  0.00     0.114 A 
ATOM      5  C   UNL d   1      51.072  32.573  53.347  0.00  0.00     0.121 A 
ENDROOT
BRANCH   1   6
ATOM      6  S   UNL d   1      51.953  34.301  52.435  0.00  0.00     0.273 S 
ATOM      7  O   UNL d   1      52.242  34.869  51.905  0.00  0.00    -0.200 OA
ATOM      8  O   UNL d   1      51.408  34.321  51.823  0.00  0.00    -0.200 OA
BRANCH   6   9
ATOM      9  C   UNL d   1      52.515  34.296  53.042  0.00  0.00     0.104 A 
ATOM     10  C   UNL d   1      53.130  33.764  53.014  0.00  0.00     0.014 A 
ATOM     11  C   UNL d   1      53.700  33.749  53.618  0.00  0.00     0.020 A 
ATOM     12  C   UNL d   1      53.630  34.281  54.242  0.00  0.00     0.085 A 
ATOM     13  C   UNL d   1      53.005  34.817  54.264  0.00  0.00     0.020 A 
ATOM     14  C   UNL d   1      52.440  34.830  53.663  0.00  0.00     0.014 A 
BRANCH  12  15
ATOM     15  N   UNL d   1      54.192  34.276  54.849  0.00  0.00    -0.208 NA
ATOM     16  C   UNL d   1      54.338  33.579  55.262  0.00  0.00     0.279 C 
ATOM     17  O   UNL d   1      53.936  32.887  55.083  0.00  0.00    -0.265 OA
ATOM     18  C   UNL d   1      54.908  33.572  55.878  0.00  0.00     0.068 C 
ENDBRANCH  12  15
ENDBRANCH   6   9
ENDBRANCH   1   6
BRANCH   2  19
ATOM     19  S   UNL d   1      50.204  34.469  52.843  0.00  0.00    -0.049 SA
BRANCH  19  20
ATOM     20  C   UNL d   1      49.386  34.426  52.949  0.00  0.00     0.040 C 
BRANCH  20  21
ATOM     21  C   UNL d   1      48.928  35.107  52.881  0.00  0.00     0.026 A 
ATOM     22  C   UNL d   1      48.882  35.648  53.523  0.00  0.00     0.099 A 
ATOM     23  N   UNL d   1      48.429  36.332  53.472  0.00  0.00    -0.242 NA
ATOM     24  C   UNL d   1      48.017  36.479  52.773  0.00  0.00     0.099 A 
ATOM     25  C   UNL d   1      48.057  35.954  52.140  0.00  0.00     0.021 A 
ATOM     26  C   UNL d   1      48.513  35.268  52.196  0.00  0.00     0.004 A 
ENDBRANCH  20  21
ENDBRANCH  19  20
ENDBRANCH   2  19
TORSDOF 6
ENDMDL
MODEL 3
REMARK VINA RESULT:      -6.7      1.414      4.353
REMARK  6 active torsions:
REMARK  status: ('A' for Active; 'I' for Inactive)
REMARK    1  A    between atoms: N_2  and  S_1 
REMARK    2  A    between atoms: C_5  and  S_1 
REMARK    3  A    between atoms: S_6  and  C_3 
REMARK    4  A    between atoms: C_18  and  S_6 
REMARK       I    between atoms: C_9  and  N_11 
REMARK    5  A    between atoms: N_11  and  C_19 
REMARK    6  A    between atoms: C_17  and  C_18 
ROOT
ATOM      1  N   UNL d   1      53.552  33.389  53.986  0.00  0.00    -0.208 N 
ATOM      2  C   UNL d   1      52.858  33.848  53.949  0.00  0.00     0.189 A 
ATOM      3  N   UNL d   1      52.719  34.165  54.701  0.00  0.00    -0.219 NA
ATOM      4  C   UNL d   1      53.842  33.425  54.765  0.00  0.00     0.114 A 
ATOM      5  C   UNL d   1      53.327  33.902  55.201  0.00  0.00     0.121 A 
ENDROOT
BRANCH   1   6
ATOM      6  S   UNL d   1      53.891  32.972  53.353  0.00  0.00     0.273 S 
ATOM      7  O   UNL d   1      54.282  32.792  52.645  0.00  0.00    -0.200 OA
ATOM      8  O   UNL d   1      54.100  33.697  53.034  0.00  0.00    -0.200 OA
BRANCH   6   9
ATOM      9  C   UNL d   1      53.688  32.231  53.660  0.00  0.00     0.104 A 
ATOM     10  C   UNL d   1      53.129  31.779  53.278  0.00  0.00     0.014 A 
ATOM     11  C   UNL d   1      52.918  31.033  53.576  0.00  0.00     0.020 A 
ATOM     12  C   UNL d   1      53.283  30.762  54.262  0.00  0.00     0.085 A 
ATOM     13  C   UNL d   1      53.848  31.225  54.643  0.00  0.00     0.020 A 
ATOM     14  C   UNL d   1      54.056  31.965  54.345  0.00  0.00     0.014 A 
BRANCH  12  15
ATOM     15  N   UNL d   1      53.080  30.022  54.568  0.00  0.00    -0.208 NA
ATOM     16  C   UNL d   1      53.482  29.351  54.310  0.00  0.00     0.279 C 
ATOM     17  O   UNL d   1      54.082  29.403  53.753  0.00  0.00    -0.265 OA
ATOM     18  C   UNL d   1      53.277  28.598  54.619  0.00  0.00     0.068 C 
ENDBRANCH  12  15
ENDBRANCH   6   9
ENDBRANCH   1   6
BRANCH   2  19
ATOM     19  S   UNL d   1      52.387  33.966  53.273  0.00  0.00    -0.049 SA
BRANCH  19  20
ATOM     20  C   UNL d   1      51.776  34.521  53.292  0.00  0.00     0.040 C 
BRANCH  20  21
ATOM     21  C   UNL d   1      51.139  34.447  52.774  0.00  0.00     0.026 A 
ATOM     22  C   UNL d   1      50.353  34.445  53.071  0.00  0.00     0.099 A 
ATOM     23  N   UNL d   1      49.707  34.373  52.568  0.00  0.00    -0.242 NA
ATOM     24  C   UNL d   1      49.847  34.300  51.758  0.00  0.00     0.099 A 
ATOM     25  C   UNL d   1      50.614  34.301  51.459  0.00  0.00     0.021 A 
ATOM     26  C   UNL d   1      51.259  34.375  51.969  0.00  0.00     0.004 A 
ENDBRANCH  20  21
ENDBRANCH  19  20
ENDBRANCH   2  19
TORSDOF 6
ENDMDL
MODEL 4
REMARK VINA RESULT:      -6.4      1.810      2.365
REMARK  6 active torsions:
REMARK  status: ('A' for Active; 'I' for Inactive)
REMARK    1  A    between atoms: N_2  and  S_1 
REMARK    2  A    between atoms: C_5  and  S_1 
REMARK    3  A    between atoms: S_6  and  C_3 
REMARK    4  A    between atoms: C_18  and  S_6 
REMARK       I    between atoms: C_9  and  N_11 
REMARK    5  A    between atoms: N_11  and  C_19 
REMARK    6  A    between atoms: C_17  and  C_18 
ROOT
ATOM      1  N   UNL d   1      53.320  32.345  53.117  0.00  0.00    -0.208 N 
ATOM      2  C   UNL d   1      52.969  31.594  53.190  0.00  0.00     0.189 A 
ATOM      3  N   UNL d   1      52.238  31.612  52.802  0.00  0.00    -0.219 NA
ATOM      4  C   UNL d   1      52.802  32.829  52.681  0.00  0.00     0.114 A 
ATOM      5  C   UNL d   1      52.139  32.375  52.490  0.00  0.00     0.121 A 
ENDROOT
BRANCH   1   6
ATOM      6  S   UNL d   1      54.058  32.567  53.426  0.00  0.00     0.273 S 
ATOM      7  O   UNL d   1      54.867  32.582  53.607  0.00  0.00    -0.200 OA
ATOM      8  O   UNL d   1      54.375  31.914  53.045  0.00  0.00    -0.200 OA
BRANCH   6   9
ATOM      9  C   UNL d   1      53.757  33.231  53.818  0.00  0.00     0.104 A 
ATOM     10  C   UNL d   1      53.526  33.880  53.385  0.00  0.00     0.014 A 
ATOM     11  C   UNL d   1      53.222  34.553  53.768  0.00  0.00     0.020 A 
ATOM     12  C   UNL d   1      53.160  34.548  54.588  0.00  0.00     0.085 A 
ATOM     13  C   UNL d   1      53.395  33.886  55.020  0.00  0.00     0.020 A 
ATOM     14  C   UNL d   1      53.697  33.220  54.638  0.00  0.00     0.014 A 
BRANCH  12  15
ATOM     15  N   UNL d   1      52.859  35.211  54.979  0.00  0.00    -0.208 NA
ATOM     16  C   UNL d   1      53.154  35.958  54.800  0.00  0.00     0.279 C 
ATOM     17  O   UNL d   1      53.743  36.059  54.238  0.00  0.00    -0.265 OA
ATOM     18  C   UNL d   1      52.850  36.632  55.196  0.00  0.00     0.068 C 
ENDBRANCH  12  15
ENDBRANCH   6   9
ENDBRANCH   1   6
BRANCH   2  19
ATOM     19  S   UNL d   1      53.298  30.939  53.585  0.00  0.00    -0.049 SA
BRANCH  19  20
ATOM     20  C   UNL d   1      52.907  30.211  53.566  0.00  0.00     0.040 C 
BRANCH  20  21
ATOM     21  C   UNL d   1      53.131  29.613  54.086  0.00  0.00     0.026 A 
ATOM     22  C   UNL d   1      52.826  29.599  54.869  0.00  0.00     0.099 A 
ATOM     23  N   UNL d   1      53.039  29.009  55.400  0.00  0.00    -0.242 NA
ATOM     24  C   UNL d   1      53.563  28.425  55.147  0.00  0.00     0.099 A 
ATOM     25  C   UNL d   1      53.867  28.431  54.382  0.00  0.00     0.021 A 
ATOM     26  C   UNL d   1      53.650  29.026  53.852  0.00  0.00     0.004 A 
ENDBRANCH  20  21
ENDBRANCH  19  20
ENDBRANCH   2  19
TORSDOF 6
ENDMDL
MODEL 5
REMARK VINA RESULT:      -6.0      2.043      3.111
REMARK  6 active torsions:
REMARK  status: ('A' for Active; 'I' for Inactive)
REMARK    1  A    between atoms: N_2  and  S_1 
REMARK    2  A    between atoms: C_5  and  S_1 
REMARK    3  A    between atoms: S_6  and  C_3 
REMARK    4  A    between atoms: C_18  and  S_6 
REMARK       I    between atoms: C_9  and  N_11 
REMARK    5  A    between atoms: N_11  and  C_19 
REMARK    6  A    between atoms: C_17  and  C_18 
ROOT
ATOM      1  N   UNL d   1      51.741  33.372  52.771  0.00  0.00    -0.208 N 
ATOM      2  C   UNL d   1      52.240  32.970  53.301  0.00  0.00     0.189 A 
ATOM      3  N   UNL d   1      51.932  32.211  53.420  0.00  0.00    -0.219 NA
ATOM      4  C   UNL d   1      51.121  32.857  52.562  0.00  0.00     0.114 A 
ATOM      5  C   UNL d   1      51.242  32.145  52.964  0.00  0.00     0.121 A 
ENDROOT
BRANCH   1   6
ATOM      6  S   UNL d   1      51.846  34.150  52.500  0.00  0.00     0.273 S 
ATOM      7  O   UNL d   1      52.188  34.841  52.197  0.00  0.00    -0.200 OA
ATOM      8  O   UNL d   1      52.631  33.958  52.364  0.00  0.00    -0.200 OA
BRANCH   6   9
ATOM      9  C   UNL d   1      51.057  34.362  52.631  0.00  0.00     0.104 A 
ATOM     10  C   UNL d   1      50.825  34.605  53.373  0.00  0.00     0.014 A 
ATOM     11  C   UNL d   1      50.036  34.821  53.516  0.00  0.00     0.020 A 
ATOM     12  C   UNL d   1      49.496  34.784  52.896  0.00  0.00     0.085 A 
ATOM     13  C   UNL d   1      49.737  34.537  52.148  0.00  0.00     0.020 A 
ATOM     14  C   UNL d   1      50.522  34.323  52.008  0.00  0.00     0.014 A 
BRANCH  12  15
ATOM     15  N   UNL d   1      48.708  34.996  53.027  0.00  0.00    -0.208 NA
ATOM     16  C   UNL d   1      48.529  35.755  53.290  0.00  0.00     0.279 C 
ATOM     17  O   UNL d   1      49.120  36.309  53.424  0.00  0.00    -0.265 OA
ATOM     18  C   UNL d   1      47.730  35.973  53.423  0.00  0.00     0.068 C 
ENDBRANCH  12  15
ENDBRANCH   6   9
ENDBRANCH   1   6
BRANCH   2  19
ATOM     19  S   UNL d   1      52.930  33.279  53.650  0.00  0.00    -0.049 SA
BRANCH  19  20
ATOM     20  C   UNL d   1      53.399  32.796  54.128  0.00  0.00     0.040 C 
BRANCH  20  21
ATOM     21  C   UNL d   1      54.061  33.110  54.504  0.00  0.00     0.026 A 
ATOM     22  C   UNL d   1      54.795  33.155  54.096  0.00  0.00     0.099 A 
ATOM     23  N   UNL d   1      55.465  33.466  54.457  0.00  0.00    -0.242 NA
ATOM     24  C   UNL d   1      55.403  33.736  55.234  0.00  0.00     0.099 A 
ATOM     25  C   UNL d   1      54.687  33.695  55.640  0.00  0.00     0.021 A 
ATOM     26  C   UNL d   1      54.018  33.382  55.273  0.00  0.00     0.004 A 
ENDBRANCH  20  21
ENDBRANCH  19  20
ENDBRANCH   2  19
TORSDOF 6
ENDMDL
