MODEL 1
REMARK VINA RESULT:     -10.3      0.000      0.000
REMARK  5 active torsions:
REMARK  status: ('A' for Active; 'I' for Inactive)
REMARK    1  A    between atoms: N_6  and  C_1 
REMARK    2  A    between atoms: C_8  and  C_2 
REMARK    3  A    between atoms: C_10  and  C_3 
REMARK       I    between atoms: C_7  and  N_6 
REMARK    4  A    between atoms: C_18  and  C_7 
REMARK    5  A    between atoms: C_17  and  C_10 
ROOT
ATOM      1  C   UNL d   1      52.646  33.849  53.537  0.00  0.00     0.119 A 
ATOM      2  C   UNL d   1      53.180  34.187  54.061  0.00  0.00     0.084 A 
ATOM      3  C   UNL d   1      53.586  32.936  53.801  0.00  0.00     0.031 A 
ATOM      4  S   UNL d   1      52.889  33.075  53.371  0.00  0.00    -0.068 SA
ATOM      5  C   UNL d   1      53.763  33.621  54.224  0.00  0.00     0.013 A 
ATOM      6  C   UNL d   1      54.415  33.718  54.726  0.00  0.00     0.001 C 
ENDROOT
BRANCH   3   7
ATOM      7  C   UNL d   1      54.081  32.267  53.858  0.00  0.00     0.007 C 
BRANCH   7   8
ATOM      8  C   UNL d   1      53.771  31.511  53.700  0.00  0.00     0.003 A 
ATOM      9  C   UNL d   1      53.621  30.990  54.329  0.00  0.00     0.026 A 
ATOM     10  C   UNL d   1      53.315  30.241  54.183  0.00  0.00     0.119 A 
ATOM     11  O   UNL d   1      53.116  29.624  54.683  0.00  0.00    -0.300 OA
ATOM     12  C   UNL d   1      53.155  30.004  53.409  0.00  0.00     0.119 A 
ATOM     13  C   UNL d   1      52.834  29.005  54.225  0.00  0.00     0.304 A 
ATOM     14  O   UNL d   1      52.859  29.242  53.436  0.00  0.00    -0.300 OA
ATOM     15  C   UNL d   1      53.302  30.517  52.782  0.00  0.00     0.026 A 
ATOM     16  C   UNL d   1      53.611  31.274  52.926  0.00  0.00     0.002 A 
ENDBRANCH   7   8
ENDBRANCH   3   7
BRANCH   1  17
ATOM     17  N   UNL d   1      51.964  34.226  53.222  0.00  0.00    -0.201 NA
ATOM     18  C   UNL d   1      51.251  33.800  53.143  0.00  0.00     0.280 C 
ATOM     19  O   UNL d   1      51.209  33.009  53.374  0.00  0.00    -0.265 OA
BRANCH  18  20
ATOM     20  C   UNL d   1      50.582  34.177  52.831  0.00  0.00     0.058 A 
ATOM     21  C   UNL d   1      50.075  34.606  53.321  0.00  0.00     0.005 A 
ATOM     22  C   UNL d   1      49.411  34.981  53.014  0.00  0.00     0.000 A 
ATOM     23  C   UNL d   1      49.243  34.931  52.205  0.00  0.00     0.000 A 
ATOM     24  C   UNL d   1      49.755  34.500  51.716  0.00  0.00     0.000 A 
ATOM     25  C   UNL d   1      50.416  34.127  52.025  0.00  0.00     0.005 A 
ENDBRANCH  18  20
ENDBRANCH   1  17
BRANCH   2  26
ATOM     26  C   UNL d   1      53.154  34.951  54.376  0.00  0.00     0.299 C 
ATOM     27  O   UNL d   1      52.912  35.058  55.224  0.00  0.00    -0.264 OA
ATOM     28  N   UNL d   1      53.334  35.562  53.950  0.00  0.00    -0.102 N 
ENDBRANCH   2  26
TORSDOF 5
ENDMDL
MODEL 2
REMARK VINA RESULT:     -10.1      1.402      4.445
REMARK  5 active torsions:
REMARK  status: ('A' for Active; 'I' for Inactive)
REMARK    1  A    between atoms: N_6  and  C_1 
REMARK    2  A    between atoms: C_8  and  C_2 
REMARK    3  A    between atoms: C_10  and  C_3 
REMARK       I    between atoms: C_7  and  N_6 
REMARK    4  A    between atoms: C_18  and  C_7 
REMARK    5  A    between atoms: C_17  and  C_10 
ROOT
ATOM      1  C   UNL d   1      53.187  32.790  53.860  0.00  0.00     0.119 A 
ATOM      2  C   UNL d   1      53.639  33.369  54.226  0.00  0.00     0.084 A 
ATOM      3  C   UNL d   1      52.756  33.978  53.422  0.00  0.00     0.031 A 
ATOM      4  S   UNL d   1      52.637  33.158  53.361  0.00  0.00    -0.068 SA
ATOM      5  C   UNL d   1      53.373  34.105  53.954  0.00  0.00     0.013 A 
ATOM      6  C   UNL d   1      53.669  34.847  54.174  0.00  0.00     0.001 C 
ENDROOT
BRANCH   3   7
ATOM      7  C   UNL d   1      52.376  34.624  53.057  0.00  0.00     0.007 C 
BRANCH   7   8
ATOM      8  C   UNL d   1      51.578  34.557  52.828  0.00  0.00     0.003 A 
ATOM      9  C   UNL d   1      51.390  34.448  52.027  0.00  0.00     0.026 A 
ATOM     10  C   UNL d   1      50.604  34.381  51.792  0.00  0.00     0.119 A 
ATOM     11  O   UNL d   1      50.260  34.273  51.056  0.00  0.00    -0.300 OA
ATOM     12  C   UNL d   1      50.000  34.422  52.353  0.00  0.00     0.119 A 
ATOM     13  C   UNL d   1      49.447  34.246  51.157  0.00  0.00     0.304 A 
ATOM     14  O   UNL d   1      49.288  34.338  51.960  0.00  0.00    -0.300 OA
ATOM     15  C   UNL d   1      50.183  34.530  53.148  0.00  0.00     0.026 A 
ATOM     16  C   UNL d   1      50.975  34.598  53.389  0.00  0.00     0.002 A 
ENDBRANCH   7   8
ENDBRANCH   3   7
BRANCH   1  17
ATOM     17  N   UNL d   1      53.267  31.961  53.973  0.00  0.00    -0.201 NA
ATOM     18  C   UNL d   1      53.082  31.436  53.352  0.00  0.00     0.280 C 
ATOM     19  O   UNL d   1      52.820  31.724  52.625  0.00  0.00    -0.265 OA
BRANCH  18  20
ATOM     20  C   UNL d   1      53.163  30.619  53.470  0.00  0.00     0.058 A 
ATOM     21  C   UNL d   1      53.909  30.281  53.563  0.00  0.00     0.005 A 
ATOM     22  C   UNL d   1      53.993  29.472  53.679  0.00  0.00     0.000 A 
ATOM     23  C   UNL d   1      53.323  28.985  53.705  0.00  0.00     0.000 A 
ATOM     24  C   UNL d   1      52.575  29.329  53.611  0.00  0.00     0.000 A 
ATOM     25  C   UNL d   1      52.495  30.137  53.495  0.00  0.00     0.005 A 
ENDBRANCH  18  20
ENDBRANCH   1  17
BRANCH   2  26
ATOM     26  C   UNL d   1      54.253  33.254  54.768  0.00  0.00     0.299 C 
ATOM     27  O   UNL d   1      55.091  33.257  54.475  0.00  0.00    -0.264 OA
ATOM     28  N   UNL d   1      54.109  33.145  55.513  0.00  0.00    -0.102 N 
ENDBRANCH   2  26
TORSDOF 5
ENDMDL
