MODEL 1
REMARK VINA RESULT:      -1.6      0.000      0.000
REMARK  4 active torsions:
REMARK  status: ('A' for Active; 'I' for Inactive)
REMARK    1  A    between atoms: C_6  and  S_1 
REMARK    2  A    between atoms: N_9  and  S_1 
REMARK    3  A    between atoms: C_17  and  N_9 
REMARK       I    between atoms: C_13  and  N_15 
REMARK    4  A    between atoms: N_15  and  C_18 
ROOT
ATOM      1  C   UNL d   1      58.570  -0.739  30.087  0.00  0.00     0.054 A 
ATOM      2  C   UNL d   1      58.978  -0.053  29.941  0.00  0.00     0.196 A 
ATOM      3  C   UNL d   1      58.778  -1.440  29.775  0.00  0.00     0.043 A 
ATOM      4  C   UNL d   1      59.419  -1.500  29.289  0.00  0.00     0.196 A 
ATOM      5  C   UNL d   1      57.884  -0.738  30.593  0.00  0.00     0.108 A 
ATOM      6  C   UNL d   1      59.639  -0.079  29.447  0.00  0.00     0.042 A 
ATOM      7  C   UNL d   1      59.851  -0.799  29.128  0.00  0.00     0.042 A 
ATOM      8  O   UNL d   1      58.700   0.664  30.308  0.00  0.00    -0.286 OA
ATOM      9  O   UNL d   1      59.635  -2.250  28.959  0.00  0.00    -0.287 OA
ATOM     10  C   UNL d   1      58.347  -2.146  29.933  0.00  0.00     0.003 A 
ATOM     11  C   UNL d   1      57.484  -1.421  30.734  0.00  0.00     0.013 A 
ATOM     12  C   UNL d   1      60.078   0.598  29.277  0.00  0.00     0.003 A 
ATOM     13  C   UNL d   1      60.547  -0.850  28.603  0.00  0.00     0.003 A 
ATOM     14  C   UNL d   1      57.686  -2.119  30.427  0.00  0.00     0.001 A 
ATOM     15  C   UNL d   1      60.717   0.560  28.796  0.00  0.00     0.000 A 
ATOM     16  C   UNL d   1      60.954  -0.163  28.458  0.00  0.00     0.000 A 
ENDROOT
BRANCH   5  17
ATOM     17  S   UNL d   1      57.616  -0.006  30.957  0.00  0.00     0.285 S 
ATOM     18  O   UNL d   1      58.144  -0.117  31.563  0.00  0.00    -0.198 OA
ATOM     19  O   UNL d   1      57.066   0.095  30.311  0.00  0.00    -0.198 OA
BRANCH  17  20
ATOM     20  N   UNL d   1      57.363   0.682  31.297  0.00  0.00    -0.158 NA
BRANCH  20  21
ATOM     21  C   UNL d   1      57.011   0.668  32.064  0.00  0.00     0.094 A 
ATOM     22  C   UNL d   1      57.475   0.644  32.737  0.00  0.00     0.021 A 
ATOM     23  C   UNL d   1      57.122   0.631  33.494  0.00  0.00     0.021 A 
ATOM     24  C   UNL d   1      56.275   0.642  33.571  0.00  0.00     0.085 A 
ATOM     25  C   UNL d   1      55.811   0.667  32.871  0.00  0.00     0.021 A 
ATOM     26  C   UNL d   1      56.160   0.679  32.142  0.00  0.00     0.021 A 
BRANCH  24  27
ATOM     27  N   UNL d   1      55.947   0.629  34.324  0.00  0.00    -0.208 NA
ATOM     28  C   UNL d   1      55.187   0.330  34.477  0.00  0.00     0.279 C 
ATOM     29  O   UNL d   1      54.745   0.028  33.806  0.00  0.00    -0.265 OA
ATOM     30  C   UNL d   1      54.828   0.302  35.224  0.00  0.00     0.068 C 
ENDBRANCH  24  27
ENDBRANCH  20  21
ENDBRANCH  17  20
ENDBRANCH   5  17
TORSDOF 4
ENDMDL
