MODEL 1
REMARK VINA RESULT:      -0.5      0.000      0.000
REMARK  9 active torsions:
REMARK  status: ('A' for Active; 'I' for Inactive)
REMARK    1  A    between atoms: C_9  and  S_1 
REMARK    2  A    between atoms: N_12  and  S_1 
REMARK    3  A    between atoms: S_2  and  C_8 
REMARK    4  A    between atoms: N_13  and  S_2 
REMARK    5  A    between atoms: N_20  and  C_5 
REMARK    6  A    between atoms: C_23  and  N_12 
REMARK    7  A    between atoms: C_24  and  N_13 
REMARK    8  A    between atoms: C_31  and  C_23 
REMARK    9  A    between atoms: C_30  and  C_24 
ROOT
ATOM      1  C   UNL d   1      32.804  20.416 -21.787  0.00  0.00     0.021 A 
ATOM      2  C   UNL d   1      32.727  21.312 -20.799  0.00  0.00     0.021 A 
ATOM      3  C   UNL d   1      32.693  20.502 -20.974  0.00  0.00     0.111 A 
ATOM      4  C   UNL d   1      32.859  21.720 -21.504  0.00  0.00     0.002 A 
ATOM      5  C   UNL d   1      32.905  21.158 -22.109  0.00  0.00     0.002 A 
ATOM      6  C   UNL d   1      32.713  22.534 -20.084  0.00  0.00     0.104 A 
ATOM      7  C   UNL d   1      32.941  19.804 -23.047  0.00  0.00     0.104 A 
ATOM      8  C   UNL d   1      32.653  21.716 -20.083  0.00  0.00     0.015 A 
ATOM      9  C   UNL d   1      32.817  19.747 -22.219  0.00  0.00     0.015 A 
ATOM     10  C   UNL d   1      33.027  21.220 -22.925  0.00  0.00     0.001 A 
ATOM     11  C   UNL d   1      32.915  22.523 -21.486  0.00  0.00     0.001 A 
ATOM     12  C   UNL d   1      33.042  20.546 -23.368  0.00  0.00     0.013 A 
ATOM     13  C   UNL d   1      32.847  22.925 -20.809  0.00  0.00     0.013 A 
ENDROOT
BRANCH   6  14
ATOM     14  S   UNL d   1      32.644  22.983 -19.376  0.00  0.00     0.272 S 
ATOM     15  O   UNL d   1      32.109  23.511 -19.757  0.00  0.00    -0.200 OA
ATOM     16  O   UNL d   1      33.174  22.468 -18.977  0.00  0.00    -0.200 OA
BRANCH  14  17
ATOM     17  N   UNL d   1      32.559  23.446 -18.682  0.00  0.00    -0.225 N 
ATOM     18  C   UNL d   1      33.239  23.702 -18.253  0.00  0.00     0.111 C 
BRANCH  17  19
ATOM     19  C   UNL d   1      31.807  23.671 -18.390  0.00  0.00     0.137 C 
BRANCH  19  20
ATOM     20  C   UNL d   1      31.643  23.683 -17.585  0.00  0.00     0.254 C 
ATOM     21  O   UNL d   1      31.772  23.023 -17.112  0.00  0.00    -0.281 OA
ENDBRANCH  19  20
ENDBRANCH  17  19
ENDBRANCH  14  17
ENDBRANCH   6  14
BRANCH   3  22
ATOM     22  N   UNL d   1      32.568  19.898 -20.422  0.00  0.00    -0.096 NA
ATOM     23  O   UNL d   1      33.204  19.601 -19.985  0.00  0.00    -0.061 OA
ENDBRANCH   3  22
BRANCH   7  24
ATOM     24  S   UNL d   1      32.964  19.127 -23.548  0.00  0.00     0.272 S 
ATOM     25  O   UNL d   1      33.208  19.625 -24.179  0.00  0.00    -0.200 OA
ATOM     26  O   UNL d   1      32.719  18.633 -22.915  0.00  0.00    -0.200 OA
BRANCH  24  27
ATOM     27  N   UNL d   1      32.997  18.471 -24.078  0.00  0.00    -0.225 N 
ATOM     28  C   UNL d   1      33.027  18.583 -24.887  0.00  0.00     0.111 C 
BRANCH  27  29
ATOM     29  C   UNL d   1      32.999  17.699 -23.750  0.00  0.00     0.137 C 
BRANCH  29  30
ATOM     30  C   UNL d   1      32.659  17.089 -24.174  0.00  0.00     0.254 C 
ATOM     31  O   UNL d   1      32.632  16.317 -23.859  0.00  0.00    -0.281 OA
ENDBRANCH  29  30
ENDBRANCH  27  29
ENDBRANCH  24  27
ENDBRANCH   7  24
TORSDOF 9
ENDMDL
MODEL 2
REMARK VINA RESULT:      -0.2      1.361      2.206
REMARK  9 active torsions:
REMARK  status: ('A' for Active; 'I' for Inactive)
REMARK    1  A    between atoms: C_9  and  S_1 
REMARK    2  A    between atoms: N_12  and  S_1 
REMARK    3  A    between atoms: S_2  and  C_8 
REMARK    4  A    between atoms: N_13  and  S_2 
REMARK    5  A    between atoms: N_20  and  C_5 
REMARK    6  A    between atoms: C_23  and  N_12 
REMARK    7  A    between atoms: C_24  and  N_13 
REMARK    8  A    between atoms: C_31  and  C_23 
REMARK    9  A    between atoms: C_30  and  C_24 
ROOT
ATOM      1  C   UNL d   1      32.876  19.017 -22.874  0.00  0.00     0.021 A 
ATOM      2  C   UNL d   1      32.955  20.204 -22.265  0.00  0.00     0.021 A 
ATOM      3  C   UNL d   1      32.963  19.384 -22.140  0.00  0.00     0.111 A 
ATOM      4  C   UNL d   1      32.862  20.337 -23.074  0.00  0.00     0.002 A 
ATOM      5  C   UNL d   1      32.814  19.598 -23.442  0.00  0.00     0.002 A 
ATOM      6  C   UNL d   1      32.992  21.599 -22.030  0.00  0.00     0.104 A 
ATOM      7  C   UNL d   1      32.757  18.000 -23.839  0.00  0.00     0.104 A 
ATOM      8  C   UNL d   1      33.021  20.834 -21.736  0.00  0.00     0.015 A 
ATOM      9  C   UNL d   1      32.851  18.238 -23.041  0.00  0.00     0.015 A 
ATOM     10  C   UNL d   1      32.721  19.369 -24.231  0.00  0.00     0.001 A 
ATOM     11  C   UNL d   1      32.836  21.095 -23.344  0.00  0.00     0.001 A 
ATOM     12  C   UNL d   1      32.695  18.581 -24.407  0.00  0.00     0.013 A 
ATOM     13  C   UNL d   1      32.898  21.710 -22.852  0.00  0.00     0.013 A 
ENDROOT
BRANCH   6  14
ATOM     14  S   UNL d   1      33.055  22.269 -21.525  0.00  0.00     0.272 S 
ATOM     15  O   UNL d   1      33.240  21.766 -20.873  0.00  0.00    -0.200 OA
ATOM     16  O   UNL d   1      32.873  22.787 -22.160  0.00  0.00    -0.200 OA
BRANCH  14  17
ATOM     17  N   UNL d   1      33.124  22.920 -21.002  0.00  0.00    -0.225 N 
ATOM     18  C   UNL d   1      33.237  23.700 -21.304  0.00  0.00     0.111 C 
BRANCH  17  19
ATOM     19  C   UNL d   1      33.084  22.827 -20.171  0.00  0.00     0.137 C 
BRANCH  19  20
ATOM     20  C   UNL d   1      32.715  23.383 -19.692  0.00  0.00     0.254 C 
ATOM     21  O   UNL d   1      32.339  23.164 -18.994  0.00  0.00    -0.281 OA
ENDBRANCH  19  20
ENDBRANCH  17  19
ENDBRANCH  14  17
ENDBRANCH   6  14
BRANCH   3  22
ATOM     22  N   UNL d   1      33.046  19.013 -21.404  0.00  0.00    -0.096 NA
ATOM     23  O   UNL d   1      32.455  19.094 -20.832  0.00  0.00    -0.061 OA
ENDBRANCH   3  22
BRANCH   7  24
ATOM     24  S   UNL d   1      32.724  17.190 -24.069  0.00  0.00     0.272 S 
ATOM     25  O   UNL d   1      32.397  17.009 -23.317  0.00  0.00    -0.200 OA
ATOM     26  O   UNL d   1      33.052  17.375 -24.819  0.00  0.00    -0.200 OA
BRANCH  24  27
ATOM     27  N   UNL d   1      32.677  16.370 -24.265  0.00  0.00    -0.225 N 
ATOM     28  C   UNL d   1      33.239  16.019 -24.745  0.00  0.00     0.111 C 
BRANCH  27  29
ATOM     29  C   UNL d   1      32.037  15.926 -23.955  0.00  0.00     0.137 C 
BRANCH  29  30
ATOM     30  C   UNL d   1      31.559  15.510 -24.468  0.00  0.00     0.254 C 
ATOM     31  O   UNL d   1      30.729  15.537 -24.393  0.00  0.00    -0.281 OA
ENDBRANCH  29  30
ENDBRANCH  27  29
ENDBRANCH  24  27
ENDBRANCH   7  24
TORSDOF 9
ENDMDL
