MODEL 1
REMARK VINA RESULT:      -6.0      0.000      0.000
REMARK  3 active torsions:
REMARK  status: ('A' for Active; 'I' for Inactive)
REMARK       I    between atoms: N_2  and  C_1 
REMARK    1  A    between atoms: C_3  and  C_1 
REMARK    2  A    between atoms: C_8  and  N_2 
REMARK    3  A    between atoms: C_7  and  C_6 
ROOT
ATOM      1  C   UNL d   1     -41.534-122.913 -51.869  0.00  0.00     0.279 C 
ATOM      2  N   UNL d   1     -41.837-123.421 -52.441  0.00  0.00    -0.208 NA
ATOM      3  O   UNL d   1     -41.122-122.235 -52.110  0.00  0.00    -0.265 OA
ENDROOT
BRANCH   1   4
ATOM      4  C   UNL d   1     -41.632-123.065 -51.061  0.00  0.00     0.058 A 
ATOM      5  C   UNL d   1     -42.234-122.680 -50.633  0.00  0.00     0.005 A 
ATOM      6  C   UNL d   1     -42.309-122.847 -49.840  0.00  0.00     0.000 A 
ATOM      7  C   UNL d   1     -42.909-122.467 -49.403  0.00  0.00     0.000 A 
ATOM      8  C   UNL d   1     -41.802-123.387 -49.459  0.00  0.00     0.000 A 
ATOM      9  C   UNL d   1     -42.987-122.636 -48.592  0.00  0.00     0.000 A 
ATOM     10  C   UNL d   1     -42.478-123.173 -48.226  0.00  0.00     0.000 A 
ATOM     11  C   UNL d   1     -41.888-123.547 -48.658  0.00  0.00     0.000 A 
ATOM     12  C   UNL d   1     -41.216-123.759 -49.884  0.00  0.00     0.000 A 
ATOM     13  C   UNL d   1     -41.123-123.602 -50.696  0.00  0.00     0.005 A 
ENDBRANCH   1   4
BRANCH   2  14
ATOM     14  C   UNL d   1     -41.737-123.265 -53.249  0.00  0.00     0.085 A 
ATOM     15  C   UNL d   1     -42.128-122.653 -53.603  0.00  0.00     0.022 A 
ATOM     16  C   UNL d   1     -42.026-122.502 -54.404  0.00  0.00     0.041 A 
ATOM     17  C   UNL d   1     -41.530-122.959 -54.876  0.00  0.00     0.003 A 
ATOM     18  C   UNL d   1     -41.124-123.587 -54.526  0.00  0.00     0.002 A 
ATOM     19  C   UNL d   1     -41.210-123.761 -53.716  0.00  0.00     0.019 A 
BRANCH  16  20
ATOM     20  C   UNL d   1     -42.445-121.857 -54.756  0.00  0.00     0.196 C 
ATOM     21  O   UNL d   1     -42.988-121.432 -54.317  0.00  0.00    -0.287 OA
ATOM     22  C   UNL d   1     -42.296-121.668 -55.541  0.00  0.00     0.045 C 
ENDBRANCH  16  20
ENDBRANCH   2  14
TORSDOF 3
ENDMDL
MODEL 2
REMARK VINA RESULT:      -4.3      1.625      5.083
REMARK  3 active torsions:
REMARK  status: ('A' for Active; 'I' for Inactive)
REMARK       I    between atoms: N_2  and  C_1 
REMARK    1  A    between atoms: C_3  and  C_1 
REMARK    2  A    between atoms: C_8  and  N_2 
REMARK    3  A    between atoms: C_7  and  C_6 
ROOT
ATOM      1  C   UNL d   1     -41.750-123.092 -50.287  0.00  0.00     0.279 C 
ATOM      2  N   UNL d   1     -42.466-122.919 -49.920  0.00  0.00    -0.208 NA
ATOM      3  O   UNL d   1     -41.171-123.506 -49.862  0.00  0.00    -0.265 OA
ENDROOT
BRANCH   1   4
ATOM      4  C   UNL d   1     -41.597-122.863 -51.067  0.00  0.00     0.058 A 
ATOM      5  C   UNL d   1     -41.707-123.404 -51.691  0.00  0.00     0.005 A 
ATOM      6  C   UNL d   1     -41.549-123.153 -52.450  0.00  0.00     0.000 A 
ATOM      7  C   UNL d   1     -41.656-123.687 -53.081  0.00  0.00     0.000 A 
ATOM      8  C   UNL d   1     -41.285-122.379 -52.606  0.00  0.00     0.000 A 
ATOM      9  C   UNL d   1     -41.496-123.432 -53.857  0.00  0.00     0.000 A 
ATOM     10  C   UNL d   1     -41.235-122.662 -53.999  0.00  0.00     0.000 A 
ATOM     11  C   UNL d   1     -41.130-122.138 -53.375  0.00  0.00     0.000 A 
ATOM     12  C   UNL d   1     -41.180-121.856 -51.991  0.00  0.00     0.000 A 
ATOM     13  C   UNL d   1     -41.335-122.093 -51.209  0.00  0.00     0.005 A 
ENDBRANCH   1   4
BRANCH   2  14
ATOM     14  C   UNL d   1     -42.615-123.150 -49.139  0.00  0.00     0.085 A 
ATOM     15  C   UNL d   1     -42.098-122.963 -48.547  0.00  0.00     0.022 A 
ATOM     16  C   UNL d   1     -42.251-123.195 -47.774  0.00  0.00     0.041 A 
ATOM     17  C   UNL d   1     -42.925-123.621 -47.569  0.00  0.00     0.003 A 
ATOM     18  C   UNL d   1     -43.460-123.817 -48.164  0.00  0.00     0.002 A 
ATOM     19  C   UNL d   1     -43.330-123.595 -48.956  0.00  0.00     0.019 A 
BRANCH  16  20
ATOM     20  C   UNL d   1     -41.697-122.989 -47.168  0.00  0.00     0.196 C 
ATOM     21  O   UNL d   1     -41.647-122.218 -46.901  0.00  0.00    -0.287 OA
ATOM     22  C   UNL d   1     -41.214-123.576 -46.856  0.00  0.00     0.045 C 
ENDBRANCH  16  20
ENDBRANCH   2  14
TORSDOF 3
ENDMDL
