MODEL 1
REMARK VINA RESULT:      -6.9      0.000      0.000
REMARK  5 active torsions:
REMARK  status: ('A' for Active; 'I' for Inactive)
REMARK    1  A    between atoms: C_8  and  C_6 
REMARK    2  A    between atoms: C_9  and  C_8 
REMARK       I    between atoms: N_10  and  C_9 
REMARK    3  A    between atoms: C_14  and  N_10 
REMARK    4  A    between atoms: O_22  and  C_15 
REMARK    5  A    between atoms: C_27  and  O_22 
ROOT
ATOM      1  N   UNL d   1     -39.283  15.546  17.444  0.00  0.00    -0.207 NA
ATOM      2  N   UNL d   1     -39.204  14.112  18.309  0.00  0.00    -0.240 NA
ATOM      3  C   UNL d   1     -39.566  15.333  18.175  0.00  0.00     0.297 A 
ATOM      4  C   UNL d   1     -38.859  15.103  16.892  0.00  0.00     0.086 A 
ATOM      5  C   UNL d   1     -38.793  13.875  17.639  0.00  0.00     0.083 A 
ATOM      6  C   UNL d   1     -39.538  14.846  18.466  0.00  0.00     0.144 A 
ATOM      7  C   UNL d   1     -38.612  14.309  16.957  0.00  0.00     0.035 A 
ATOM      8  O   UNL d   1     -39.972  15.921  18.582  0.00  0.00    -0.264 OA
ATOM      9  C   UNL d   1     -38.188  13.965  16.337  0.00  0.00     0.003 A 
ATOM     10  C   UNL d   1     -38.679  15.539  16.213  0.00  0.00     0.019 A 
ATOM     11  C   UNL d   1     -38.549  13.090  17.703  0.00  0.00     0.019 A 
ATOM     12  C   UNL d   1     -38.119  12.734  17.078  0.00  0.00     0.002 A 
ATOM     13  C   UNL d   1     -38.255  15.187  15.597  0.00  0.00     0.002 A 
ATOM     14  C   UNL d   1     -37.941  13.171  16.401  0.00  0.00     0.000 A 
ATOM     15  C   UNL d   1     -38.010  14.402  15.660  0.00  0.00     0.000 A 
ENDROOT
BRANCH   6  16
ATOM     16  C   UNL d   1     -39.910  14.884  19.199  0.00  0.00     0.086 C 
BRANCH  16  17
ATOM     17  C   UNL d   1     -40.585  14.417  19.339  0.00  0.00     0.281 C 
ATOM     18  N   UNL d   1     -40.840  14.283  20.114  0.00  0.00    -0.208 NA
ATOM     19  O   UNL d   1     -41.002  14.087  18.708  0.00  0.00    -0.265 OA
BRANCH  18  20
ATOM     20  C   UNL d   1     -40.426  14.611  20.751  0.00  0.00     0.085 A 
ATOM     21  C   UNL d   1     -39.859  14.165  21.148  0.00  0.00     0.021 A 
ATOM     22  C   UNL d   1     -39.449  14.495  21.782  0.00  0.00     0.026 A 
ATOM     23  C   UNL d   1     -39.606  15.269  22.018  0.00  0.00     0.100 A 
ATOM     24  C   UNL d   1     -40.179  15.716  21.615  0.00  0.00     0.026 A 
ATOM     25  C   UNL d   1     -40.585  15.382  20.983  0.00  0.00     0.021 A 
BRANCH  23  26
ATOM     26  O   UNL d   1     -39.204  15.593  22.640  0.00  0.00    -0.305 OA
BRANCH  26  27
ATOM     27  C   UNL d   1     -38.795  15.922  23.270  0.00  0.00     0.123 C 
ATOM     28  C   UNL d   1     -38.011  15.748  23.376  0.00  0.00     0.029 C 
ENDBRANCH  26  27
ENDBRANCH  23  26
ENDBRANCH  18  20
ENDBRANCH  16  17
ENDBRANCH   6  16
TORSDOF 5
ENDMDL
MODEL 2
REMARK VINA RESULT:      -6.8      7.875      9.959
REMARK  5 active torsions:
REMARK  status: ('A' for Active; 'I' for Inactive)
REMARK    1  A    between atoms: C_8  and  C_6 
REMARK    2  A    between atoms: C_9  and  C_8 
REMARK       I    between atoms: N_10  and  C_9 
REMARK    3  A    between atoms: C_14  and  N_10 
REMARK    4  A    between atoms: O_22  and  C_15 
REMARK    5  A    between atoms: C_27  and  O_22 
ROOT
ATOM      1  N   UNL d   1     -49.210  12.848  21.460  0.00  0.00    -0.207 NA
ATOM      2  N   UNL d   1     -48.409  13.733  22.638  0.00  0.00    -0.240 NA
ATOM      3  C   UNL d   1     -48.491  12.747  21.826  0.00  0.00     0.297 A 
ATOM      4  C   UNL d   1     -49.778  13.437  21.566  0.00  0.00     0.086 A 
ATOM      5  C   UNL d   1     -49.086  14.192  22.576  0.00  0.00     0.083 A 
ATOM      6  C   UNL d   1     -48.223  13.048  22.224  0.00  0.00     0.144 A 
ATOM      7  C   UNL d   1     -49.747  14.087  22.087  0.00  0.00     0.035 A 
ATOM      8  O   UNL d   1     -48.061  12.089  21.582  0.00  0.00    -0.264 OA
ATOM      9  C   UNL d   1     -50.379  14.619  22.109  0.00  0.00     0.003 A 
ATOM     10  C   UNL d   1     -50.435  13.329  21.077  0.00  0.00     0.019 A 
ATOM     11  C   UNL d   1     -49.056  14.836  23.092  0.00  0.00     0.019 A 
ATOM     12  C   UNL d   1     -49.693  15.380  23.120  0.00  0.00     0.002 A 
ATOM     13  C   UNL d   1     -51.063  13.866  21.104  0.00  0.00     0.002 A 
ATOM     14  C   UNL d   1     -50.348  15.269  22.631  0.00  0.00     0.000 A 
ATOM     15  C   UNL d   1     -51.033  14.509  21.620  0.00  0.00     0.000 A 
ENDROOT
BRANCH   6  16
ATOM     16  C   UNL d   1     -47.491  12.732  22.431  0.00  0.00     0.086 C 
BRANCH  16  17
ATOM     17  C   UNL d   1     -47.370  12.456  23.208  0.00  0.00     0.281 C 
ATOM     18  N   UNL d   1     -46.602  12.353  23.494  0.00  0.00    -0.208 NA
ATOM     19  O   UNL d   1     -48.015  12.285  23.694  0.00  0.00    -0.265 OA
BRANCH  18  20
ATOM     20  C   UNL d   1     -45.952  12.523  23.011  0.00  0.00     0.085 A 
ATOM     21  C   UNL d   1     -45.758  13.305  22.840  0.00  0.00     0.021 A 
ATOM     22  C   UNL d   1     -45.110  13.470  22.359  0.00  0.00     0.026 A 
ATOM     23  C   UNL d   1     -44.657  12.855  22.051  0.00  0.00     0.100 A 
ATOM     24  C   UNL d   1     -44.854  12.067  22.226  0.00  0.00     0.026 A 
ATOM     25  C   UNL d   1     -45.503  11.908  22.706  0.00  0.00     0.021 A 
BRANCH  23  26
ATOM     26  O   UNL d   1     -44.021  13.018  21.579  0.00  0.00    -0.305 OA
BRANCH  26  27
ATOM     27  C   UNL d   1     -43.375  13.183  21.101  0.00  0.00     0.123 C 
ATOM     28  C   UNL d   1     -42.629  12.997  21.354  0.00  0.00     0.029 C 
ENDBRANCH  26  27
ENDBRANCH  23  26
ENDBRANCH  18  20
ENDBRANCH  16  17
ENDBRANCH   6  16
TORSDOF 5
ENDMDL
MODEL 3
REMARK VINA RESULT:      -5.9      7.162      9.170
REMARK  5 active torsions:
REMARK  status: ('A' for Active; 'I' for Inactive)
REMARK    1  A    between atoms: C_8  and  C_6 
REMARK    2  A    between atoms: C_9  and  C_8 
REMARK       I    between atoms: N_10  and  C_9 
REMARK    3  A    between atoms: C_14  and  N_10 
REMARK    4  A    between atoms: O_22  and  C_15 
REMARK    5  A    between atoms: C_27  and  O_22 
ROOT
ATOM      1  N   UNL d   1     -45.896  11.656  23.556  0.00  0.00    -0.207 NA
ATOM      2  N   UNL d   1     -45.569  12.934  22.521  0.00  0.00    -0.240 NA
ATOM      3  C   UNL d   1     -46.326  12.312  23.345  0.00  0.00     0.297 A 
ATOM      4  C   UNL d   1     -45.144  11.418  23.314  0.00  0.00     0.086 A 
ATOM      5  C   UNL d   1     -44.869  12.516  22.427  0.00  0.00     0.083 A 
ATOM      6  C   UNL d   1     -46.213  12.743  22.994  0.00  0.00     0.144 A 
ATOM      7  C   UNL d   1     -44.633  11.804  22.780  0.00  0.00     0.035 A 
ATOM      8  O   UNL d   1     -47.066  12.377  23.698  0.00  0.00    -0.264 OA
ATOM      9  C   UNL d   1     -43.897  11.471  22.610  0.00  0.00     0.003 A 
ATOM     10  C   UNL d   1     -44.912  10.707  23.668  0.00  0.00     0.019 A 
ATOM     11  C   UNL d   1     -44.364  12.899  21.899  0.00  0.00     0.019 A 
ATOM     12  C   UNL d   1     -43.615  12.567  21.721  0.00  0.00     0.002 A 
ATOM     13  C   UNL d   1     -44.174  10.380  23.493  0.00  0.00     0.002 A 
ATOM     14  C   UNL d   1     -43.386  11.858  22.076  0.00  0.00     0.000 A 
ATOM     15  C   UNL d   1     -43.668  10.763  22.965  0.00  0.00     0.000 A 
ENDROOT
BRANCH   6  16
ATOM     16  C   UNL d   1     -46.823  13.295  22.950  0.00  0.00     0.086 C 
BRANCH  16  17
ATOM     17  C   UNL d   1     -46.650  14.104  23.048  0.00  0.00     0.281 C 
ATOM     18  N   UNL d   1     -47.222  14.672  22.864  0.00  0.00    -0.208 NA
ATOM     19  O   UNL d   1     -45.911  14.341  23.328  0.00  0.00    -0.265 OA
BRANCH  18  20
ATOM     20  C   UNL d   1     -47.965  14.440  22.583  0.00  0.00     0.085 A 
ATOM     21  C   UNL d   1     -48.064  14.245  21.789  0.00  0.00     0.021 A 
ATOM     22  C   UNL d   1     -48.805  14.014  21.513  0.00  0.00     0.026 A 
ATOM     23  C   UNL d   1     -49.445  13.979  22.030  0.00  0.00     0.100 A 
ATOM     24  C   UNL d   1     -49.343  14.176  22.831  0.00  0.00     0.026 A 
ATOM     25  C   UNL d   1     -48.600  14.406  23.102  0.00  0.00     0.021 A 
BRANCH  23  26
ATOM     26  O   UNL d   1     -50.173  13.753  21.760  0.00  0.00    -0.305 OA
BRANCH  26  27
ATOM     27  C   UNL d   1     -50.910  13.522  21.484  0.00  0.00     0.123 C 
ATOM     28  C   UNL d   1     -51.064  12.737  21.357  0.00  0.00     0.029 C 
ENDBRANCH  26  27
ENDBRANCH  23  26
ENDBRANCH  18  20
ENDBRANCH  16  17
ENDBRANCH   6  16
TORSDOF 5
ENDMDL
MODEL 4
REMARK VINA RESULT:      -5.3      1.347      2.108
REMARK  5 active torsions:
REMARK  status: ('A' for Active; 'I' for Inactive)
REMARK    1  A    between atoms: C_8  and  C_6 
REMARK    2  A    between atoms: C_9  and  C_8 
REMARK       I    between atoms: N_10  and  C_9 
REMARK    3  A    between atoms: C_14  and  N_10 
REMARK    4  A    between atoms: O_22  and  C_15 
REMARK    5  A    between atoms: C_27  and  O_22 
ROOT
ATOM      1  N   UNL d   1     -39.341  15.228  17.184  0.00  0.00    -0.207 NA
ATOM      2  N   UNL d   1     -39.153  14.101  18.411  0.00  0.00    -0.240 NA
ATOM      3  C   UNL d   1     -39.578  15.221  17.961  0.00  0.00     0.297 A 
ATOM      4  C   UNL d   1     -38.922  14.661  16.755  0.00  0.00     0.086 A 
ATOM      5  C   UNL d   1     -38.764  13.697  17.812  0.00  0.00     0.083 A 
ATOM      6  C   UNL d   1     -39.513  14.838  18.374  0.00  0.00     0.144 A 
ATOM      7  C   UNL d   1     -38.636  13.926  17.026  0.00  0.00     0.035 A 
ATOM      8  O   UNL d   1     -39.991  15.888  18.210  0.00  0.00    -0.264 OA
ATOM      9  C   UNL d   1     -38.226  13.433  16.504  0.00  0.00     0.003 A 
ATOM     10  C   UNL d   1     -38.796  14.891  15.971  0.00  0.00     0.019 A 
ATOM     11  C   UNL d   1     -38.481  12.970  18.079  0.00  0.00     0.019 A 
ATOM     12  C   UNL d   1     -38.064  12.465  17.555  0.00  0.00     0.002 A 
ATOM     13  C   UNL d   1     -38.385  14.394  15.455  0.00  0.00     0.002 A 
ATOM     14  C   UNL d   1     -37.940  12.698  16.774  0.00  0.00     0.000 A 
ATOM     15  C   UNL d   1     -38.102  13.666  15.722  0.00  0.00     0.000 A 
ENDROOT
BRANCH   6  16
ATOM     16  C   UNL d   1     -39.851  15.071  19.089  0.00  0.00     0.086 C 
BRANCH  16  17
ATOM     17  C   UNL d   1     -39.362  15.364  19.695  0.00  0.00     0.281 C 
ATOM     18  N   UNL d   1     -39.590  15.278  20.485  0.00  0.00    -0.208 NA
ATOM     19  O   UNL d   1     -38.651  15.741  19.512  0.00  0.00    -0.265 OA
BRANCH  18  20
ATOM     20  C   UNL d   1     -40.302  14.902  20.675  0.00  0.00     0.085 A 
ATOM     21  C   UNL d   1     -41.010  15.321  20.647  0.00  0.00     0.021 A 
ATOM     22  C   UNL d   1     -41.717  14.943  20.837  0.00  0.00     0.026 A 
ATOM     23  C   UNL d   1     -41.715  14.148  21.054  0.00  0.00     0.100 A 
ATOM     24  C   UNL d   1     -40.999  13.728  21.082  0.00  0.00     0.026 A 
ATOM     25  C   UNL d   1     -40.295  14.110  20.891  0.00  0.00     0.021 A 
BRANCH  23  26
ATOM     26  O   UNL d   1     -42.409  13.777  21.240  0.00  0.00    -0.305 OA
BRANCH  26  27
ATOM     27  C   UNL d   1     -43.113  13.402  21.429  0.00  0.00     0.123 C 
ATOM     28  C   UNL d   1     -43.150  12.593  21.430  0.00  0.00     0.029 C 
ENDBRANCH  26  27
ENDBRANCH  23  26
ENDBRANCH  18  20
ENDBRANCH  16  17
ENDBRANCH   6  16
TORSDOF 5
ENDMDL
