MODEL 1
REMARK VINA RESULT:      -7.1      0.000      0.000
REMARK  3 active torsions:
REMARK  status: ('A' for Active; 'I' for Inactive)
REMARK    1  A    between atoms: N_7  and  C_1 
REMARK       I    between atoms: C_11  and  N_6 
REMARK       I    between atoms: C_10  and  N_7 
REMARK    2  A    between atoms: C_17  and  C_10 
REMARK    3  A    between atoms: C_14  and  C_17 
ROOT
ATOM      1  C   UNL d   1     -48.264  12.552  23.404  0.00  0.00     0.124 A 
ATOM      2  C   UNL d   1     -48.856  12.416  22.847  0.00  0.00     0.093 A 
ATOM      3  C   UNL d   1     -49.022  13.658  23.308  0.00  0.00     0.049 A 
ATOM      4  C   UNL d   1     -49.324  13.098  22.788  0.00  0.00     0.021 A 
ATOM      5  S   UNL d   1     -48.361  13.326  23.697  0.00  0.00    -0.066 SA
ATOM      6  N   UNL d   1     -50.041  14.582  22.909  0.00  0.00    -0.272 N 
ATOM      7  C   UNL d   1     -49.377  14.399  23.372  0.00  0.00     0.089 A 
ATOM      8  C   UNL d   1     -48.964  11.718  22.422  0.00  0.00     0.103 C 
ATOM      9  C   UNL d   1     -50.400  15.328  22.971  0.00  0.00     0.265 C 
ATOM     10  N   UNL d   1     -49.068  11.017  21.997  0.00  0.00    -0.191 NA
ATOM     11  C   UNL d   1     -49.984  13.274  22.326  0.00  0.00     0.020 A 
ATOM     12  C   UNL d   1     -50.344  14.019  22.387  0.00  0.00     0.083 A 
ATOM     13  O   UNL d   1     -50.097  15.891  23.494  0.00  0.00    -0.267 OA
ATOM     14  C   UNL d   1     -51.064  15.511  22.509  0.00  0.00     0.066 C 
ENDROOT
BRANCH   1  15
ATOM     15  N   UNL d   1     -47.679  12.031  23.638  0.00  0.00    -0.201 NA
ATOM     16  C   UNL d   1     -46.895  12.201  23.460  0.00  0.00     0.280 C 
ATOM     17  O   UNL d   1     -46.295  11.672  23.698  0.00  0.00    -0.265 OA
BRANCH  16  18
ATOM     18  C   UNL d   1     -46.688  12.883  23.052  0.00  0.00     0.062 C 
BRANCH  18  19
ATOM     19  C   UNL d   1     -45.965  12.938  22.660  0.00  0.00     0.005 A 
ATOM     20  C   UNL d   1     -45.666  13.684  22.437  0.00  0.00     0.000 A 
ATOM     21  C   UNL d   1     -44.939  13.727  22.044  0.00  0.00     0.000 A 
ATOM     22  C   UNL d   1     -46.100  14.363  22.610  0.00  0.00     0.000 C 
ATOM     23  C   UNL d   1     -44.508  13.050  21.872  0.00  0.00     0.000 A 
ATOM     24  C   UNL d   1     -44.804  12.312  22.094  0.00  0.00     0.000 A 
ATOM     25  C   UNL d   1     -43.788  13.098  21.483  0.00  0.00     0.000 C 
ATOM     26  C   UNL d   1     -45.531  12.250  22.487  0.00  0.00     0.000 A 
ENDBRANCH  18  19
ENDBRANCH  16  18
ENDBRANCH   1  15
TORSDOF 3
ENDMDL
MODEL 2
REMARK VINA RESULT:      -6.1      1.543      4.843
REMARK  3 active torsions:
REMARK  status: ('A' for Active; 'I' for Inactive)
REMARK    1  A    between atoms: N_7  and  C_1 
REMARK       I    between atoms: C_11  and  N_6 
REMARK       I    between atoms: C_10  and  N_7 
REMARK    2  A    between atoms: C_17  and  C_10 
REMARK    3  A    between atoms: C_14  and  C_17 
ROOT
ATOM      1  C   UNL d   1     -47.000  13.499  23.342  0.00  0.00     0.124 A 
ATOM      2  C   UNL d   1     -46.296  13.653  22.942  0.00  0.00     0.093 A 
ATOM      3  C   UNL d   1     -46.246  12.386  23.361  0.00  0.00     0.049 A 
ATOM      4  C   UNL d   1     -45.830  12.967  22.953  0.00  0.00     0.021 A 
ATOM      5  S   UNL d   1     -46.976  12.709  23.607  0.00  0.00    -0.066 SA
ATOM      6  N   UNL d   1     -45.169  11.466  23.153  0.00  0.00    -0.272 N 
ATOM      7  C   UNL d   1     -45.919  11.636  23.462  0.00  0.00     0.089 A 
ATOM      8  C   UNL d   1     -46.091  14.369  22.590  0.00  0.00     0.103 C 
ATOM      9  C   UNL d   1     -44.836  10.711  23.253  0.00  0.00     0.265 C 
ATOM     10  N   UNL d   1     -45.889  15.090  22.238  0.00  0.00    -0.191 NA
ATOM     11  C   UNL d   1     -45.085  12.803  22.643  0.00  0.00     0.020 A 
ATOM     12  C   UNL d   1     -44.752  12.049  22.743  0.00  0.00     0.083 A 
ATOM     13  O   UNL d   1     -45.253  10.127  23.663  0.00  0.00    -0.267 OA
ATOM     14  C   UNL d   1     -44.086  10.541  22.944  0.00  0.00     0.066 C 
ENDROOT
BRANCH   1  15
ATOM     15  N   UNL d   1     -47.620  14.017  23.466  0.00  0.00    -0.201 NA
ATOM     16  C   UNL d   1     -48.369  13.820  23.194  0.00  0.00     0.280 C 
ATOM     17  O   UNL d   1     -49.005  14.347  23.318  0.00  0.00    -0.265 OA
BRANCH  16  18
ATOM     18  C   UNL d   1     -48.507  13.112  22.799  0.00  0.00     0.062 C 
BRANCH  18  19
ATOM     19  C   UNL d   1     -49.145  13.034  22.284  0.00  0.00     0.005 A 
ATOM     20  C   UNL d   1     -49.701  12.423  22.397  0.00  0.00     0.000 A 
ATOM     21  C   UNL d   1     -50.339  12.354  21.873  0.00  0.00     0.000 A 
ATOM     22  C   UNL d   1     -49.606  11.900  23.027  0.00  0.00     0.000 C 
ATOM     23  C   UNL d   1     -50.432  12.875  21.246  0.00  0.00     0.000 A 
ATOM     24  C   UNL d   1     -49.881  13.481  21.134  0.00  0.00     0.000 A 
ATOM     25  C   UNL d   1     -51.064  12.803  20.729  0.00  0.00     0.000 C 
ATOM     26  C   UNL d   1     -49.237  13.564  21.650  0.00  0.00     0.000 A 
ENDBRANCH  18  19
ENDBRANCH  16  18
ENDBRANCH   1  15
TORSDOF 3
ENDMDL
MODEL 3
REMARK VINA RESULT:      -5.7      1.542      2.353
REMARK  3 active torsions:
REMARK  status: ('A' for Active; 'I' for Inactive)
REMARK    1  A    between atoms: N_7  and  C_1 
REMARK       I    between atoms: C_11  and  N_6 
REMARK       I    between atoms: C_10  and  N_7 
REMARK    2  A    between atoms: C_17  and  C_10 
REMARK    3  A    between atoms: C_14  and  C_17 
ROOT
ATOM      1  C   UNL d   1     -47.807  14.295  22.974  0.00  0.00     0.124 A 
ATOM      2  C   UNL d   1     -48.513  14.499  22.600  0.00  0.00     0.093 A 
ATOM      3  C   UNL d   1     -48.682  13.288  23.136  0.00  0.00     0.049 A 
ATOM      4  C   UNL d   1     -49.053  13.878  22.700  0.00  0.00     0.021 A 
ATOM      5  S   UNL d   1     -47.905  13.539  23.312  0.00  0.00    -0.066 SA
ATOM      6  N   UNL d   1     -49.870  12.491  23.072  0.00  0.00    -0.272 N 
ATOM      7  C   UNL d   1     -49.087  12.594  23.324  0.00  0.00     0.089 A 
ATOM      8  C   UNL d   1     -48.655  15.203  22.196  0.00  0.00     0.103 C 
ATOM      9  C   UNL d   1     -50.281  11.793  23.259  0.00  0.00     0.265 C 
ATOM     10  N   UNL d   1     -48.794  15.909  21.791  0.00  0.00    -0.191 NA
ATOM     11  C   UNL d   1     -49.831  13.781  22.447  0.00  0.00     0.020 A 
ATOM     12  C   UNL d   1     -50.242  13.084  22.634  0.00  0.00     0.083 A 
ATOM     13  O   UNL d   1     -49.909  11.200  23.698  0.00  0.00    -0.267 OA
ATOM     14  C   UNL d   1     -51.064  11.690  23.008  0.00  0.00     0.066 C 
ENDROOT
BRANCH   1  15
ATOM     15  N   UNL d   1     -47.124  14.743  23.016  0.00  0.00    -0.201 NA
ATOM     16  C   UNL d   1     -46.397  14.377  22.911  0.00  0.00     0.280 C 
ATOM     17  O   UNL d   1     -45.697  14.831  22.953  0.00  0.00    -0.265 OA
BRANCH  16  18
ATOM     18  C   UNL d   1     -46.342  13.570  22.764  0.00  0.00     0.062 C 
BRANCH  18  19
ATOM     19  C   UNL d   1     -45.646  13.241  22.470  0.00  0.00     0.005 A 
ATOM     20  C   UNL d   1     -45.366  12.516  22.773  0.00  0.00     0.000 A 
ATOM     21  C   UNL d   1     -44.666  12.194  22.471  0.00  0.00     0.000 A 
ATOM     22  C   UNL d   1     -45.792  12.133  23.366  0.00  0.00     0.000 C 
ATOM     23  C   UNL d   1     -44.243  12.577  21.880  0.00  0.00     0.000 A 
ATOM     24  C   UNL d   1     -44.520  13.295  21.581  0.00  0.00     0.000 A 
ATOM     25  C   UNL d   1     -43.550  12.255  21.584  0.00  0.00     0.000 C 
ATOM     26  C   UNL d   1     -45.219  13.631  21.872  0.00  0.00     0.000 A 
ENDBRANCH  18  19
ENDBRANCH  16  18
ENDBRANCH   1  15
TORSDOF 3
ENDMDL
MODEL 4
REMARK VINA RESULT:      -5.5      6.873      9.691
REMARK  3 active torsions:
REMARK  status: ('A' for Active; 'I' for Inactive)
REMARK    1  A    between atoms: N_7  and  C_1 
REMARK       I    between atoms: C_11  and  N_6 
REMARK       I    between atoms: C_10  and  N_7 
REMARK    2  A    between atoms: C_17  and  C_10 
REMARK    3  A    between atoms: C_14  and  C_17 
ROOT
ATOM      1  C   UNL d   1     -39.391  15.391  19.343  0.00  0.00     0.124 A 
ATOM      2  C   UNL d   1     -39.338  15.295  20.160  0.00  0.00     0.093 A 
ATOM      3  C   UNL d   1     -40.429  14.642  19.753  0.00  0.00     0.049 A 
ATOM      4  C   UNL d   1     -39.978  14.834  20.414  0.00  0.00     0.021 A 
ATOM      5  S   UNL d   1     -40.071  14.986  19.081  0.00  0.00    -0.066 SA
ATOM      6  N   UNL d   1     -41.338  13.911  20.583  0.00  0.00    -0.272 N 
ATOM      7  C   UNL d   1     -41.108  14.182  19.834  0.00  0.00     0.089 A 
ATOM      8  C   UNL d   1     -38.746  15.608  20.642  0.00  0.00     0.103 C 
ATOM      9  C   UNL d   1     -42.022  13.447  20.668  0.00  0.00     0.265 C 
ATOM     10  N   UNL d   1     -38.152  15.922  21.122  0.00  0.00    -0.191 NA
ATOM     11  C   UNL d   1     -40.201  14.567  21.161  0.00  0.00     0.020 A 
ATOM     12  C   UNL d   1     -40.884  14.103  21.246  0.00  0.00     0.083 A 
ATOM     13  O   UNL d   1     -42.476  13.255  20.006  0.00  0.00    -0.267 OA
ATOM     14  C   UNL d   1     -42.252  13.176  21.418  0.00  0.00     0.066 C 
ENDROOT
BRANCH   1  15
ATOM     15  N   UNL d   1     -38.877  15.807  18.861  0.00  0.00    -0.201 NA
ATOM     16  C   UNL d   1     -38.536  15.428  18.217  0.00  0.00     0.280 C 
ATOM     17  O   UNL d   1     -38.011  15.849  17.722  0.00  0.00    -0.265 OA
BRANCH  16  18
ATOM     18  C   UNL d   1     -38.701  14.641  18.048  0.00  0.00     0.062 C 
BRANCH  18  19
ATOM     19  C   UNL d   1     -38.513  14.319  17.313  0.00  0.00     0.005 A 
ATOM     20  C   UNL d   1     -38.142  13.574  17.265  0.00  0.00     0.000 A 
ATOM     21  C   UNL d   1     -37.958  13.260  16.522  0.00  0.00     0.000 A 
ATOM     22  C   UNL d   1     -37.966  13.164  17.959  0.00  0.00     0.000 C 
ATOM     23  C   UNL d   1     -38.134  13.669  15.833  0.00  0.00     0.000 A 
ATOM     24  C   UNL d   1     -38.501  14.408  15.880  0.00  0.00     0.000 A 
ATOM     25  C   UNL d   1     -37.949  13.355  15.098  0.00  0.00     0.000 C 
ATOM     26  C   UNL d   1     -38.693  14.737  16.616  0.00  0.00     0.000 A 
ENDBRANCH  18  19
ENDBRANCH  16  18
ENDBRANCH   1  15
TORSDOF 3
ENDMDL
MODEL 5
REMARK VINA RESULT:      -5.1      1.503      4.538
REMARK  3 active torsions:
REMARK  status: ('A' for Active; 'I' for Inactive)
REMARK    1  A    between atoms: N_7  and  C_1 
REMARK       I    between atoms: C_11  and  N_6 
REMARK       I    between atoms: C_10  and  N_7 
REMARK    2  A    between atoms: C_17  and  C_10 
REMARK    3  A    between atoms: C_14  and  C_17 
ROOT
ATOM      1  C   UNL d   1     -47.034  12.452  23.333  0.00  0.00     0.124 A 
ATOM      2  C   UNL d   1     -46.525  11.815  23.217  0.00  0.00     0.093 A 
ATOM      3  C   UNL d   1     -45.935  12.893  22.697  0.00  0.00     0.049 A 
ATOM      4  C   UNL d   1     -45.847  12.086  22.825  0.00  0.00     0.021 A 
ATOM      5  S   UNL d   1     -46.672  13.131  23.011  0.00  0.00    -0.066 SA
ATOM      6  N   UNL d   1     -44.655  12.935  22.056  0.00  0.00    -0.272 N 
ATOM      7  C   UNL d   1     -45.343  13.320  22.314  0.00  0.00     0.089 A 
ATOM      8  C   UNL d   1     -46.668  11.038  23.453  0.00  0.00     0.103 C 
ATOM      9  C   UNL d   1     -44.056  13.362  21.670  0.00  0.00     0.265 C 
ATOM     10  N   UNL d   1     -46.814  10.260  23.690  0.00  0.00    -0.191 NA
ATOM     11  C   UNL d   1     -45.166  11.698  22.571  0.00  0.00     0.020 A 
ATOM     12  C   UNL d   1     -44.567  12.124  22.185  0.00  0.00     0.083 A 
ATOM     13  O   UNL d   1     -44.144  14.173  21.541  0.00  0.00    -0.267 OA
ATOM     14  C   UNL d   1     -43.369  12.976  21.412  0.00  0.00     0.066 C 
ENDROOT
BRANCH   1  15
ATOM     15  N   UNL d   1     -47.766  12.439  23.698  0.00  0.00    -0.201 NA
ATOM     16  C   UNL d   1     -48.418  12.740  23.301  0.00  0.00     0.280 C 
ATOM     17  O   UNL d   1     -49.167  12.728  23.669  0.00  0.00    -0.265 OA
BRANCH  16  18
ATOM     18  C   UNL d   1     -48.349  13.055  22.544  0.00  0.00     0.062 C 
BRANCH  18  19
ATOM     19  C   UNL d   1     -48.996  13.406  22.174  0.00  0.00     0.005 A 
ATOM     20  C   UNL d   1     -49.309  13.075  21.475  0.00  0.00     0.000 A 
ATOM     21  C   UNL d   1     -49.958  13.436  21.111  0.00  0.00     0.000 A 
ATOM     22  C   UNL d   1     -48.966  12.394  21.161  0.00  0.00     0.000 C 
ATOM     23  C   UNL d   1     -50.298  14.114  21.425  0.00  0.00     0.000 A 
ATOM     24  C   UNL d   1     -49.989  14.442  22.117  0.00  0.00     0.000 A 
ATOM     25  C   UNL d   1     -50.942  14.468  21.061  0.00  0.00     0.000 C 
ATOM     26  C   UNL d   1     -49.339  14.093  22.494  0.00  0.00     0.000 A 
ENDBRANCH  18  19
ENDBRANCH  16  18
ENDBRANCH   1  15
TORSDOF 3
ENDMDL
MODEL 6
REMARK VINA RESULT:      -4.9      7.877     10.629
REMARK  3 active torsions:
REMARK  status: ('A' for Active; 'I' for Inactive)
REMARK    1  A    between atoms: N_7  and  C_1 
REMARK       I    between atoms: C_11  and  N_6 
REMARK       I    between atoms: C_10  and  N_7 
REMARK    2  A    between atoms: C_17  and  C_10 
REMARK    3  A    between atoms: C_14  and  C_17 
ROOT
ATOM      1  C   UNL d   1     -37.982  14.093  19.073  0.00  0.00     0.124 A 
ATOM      2  C   UNL d   1     -37.970  13.326  18.771  0.00  0.00     0.093 A 
ATOM      3  C   UNL d   1     -37.972  14.162  17.731  0.00  0.00     0.049 A 
ATOM      4  C   UNL d   1     -37.964  13.368  17.943  0.00  0.00     0.021 A 
ATOM      5  S   UNL d   1     -37.984  14.622  18.429  0.00  0.00    -0.066 SA
ATOM      6  N   UNL d   1     -37.956  13.795  16.347  0.00  0.00    -0.272 N 
ATOM      7  C   UNL d   1     -37.968  14.379  16.935  0.00  0.00     0.089 A 
ATOM      8  C   UNL d   1     -37.966  12.634  19.220  0.00  0.00     0.103 C 
ATOM      9  C   UNL d   1     -37.952  14.010  15.544  0.00  0.00     0.265 C 
ATOM     10  N   UNL d   1     -37.961  11.943  19.672  0.00  0.00    -0.191 NA
ATOM     11  C   UNL d   1     -37.952  12.783  17.363  0.00  0.00     0.020 A 
ATOM     12  C   UNL d   1     -37.948  12.997  16.561  0.00  0.00     0.083 A 
ATOM     13  O   UNL d   1     -37.960  14.807  15.330  0.00  0.00    -0.267 OA
ATOM     14  C   UNL d   1     -37.940  13.425  14.956  0.00  0.00     0.066 C 
ENDROOT
BRANCH   1  15
ATOM     15  N   UNL d   1     -37.992  14.313  19.861  0.00  0.00    -0.201 NA
ATOM     16  C   UNL d   1     -38.651  14.697  20.163  0.00  0.00     0.280 C 
ATOM     17  O   UNL d   1     -38.665  14.923  20.967  0.00  0.00    -0.265 OA
BRANCH  16  18
ATOM     18  C   UNL d   1     -39.302  14.864  19.689  0.00  0.00     0.062 C 
BRANCH  18  19
ATOM     19  C   UNL d   1     -40.019  15.094  20.024  0.00  0.00     0.005 A 
ATOM     20  C   UNL d   1     -40.517  15.628  19.620  0.00  0.00     0.000 A 
ATOM     21  C   UNL d   1     -41.235  15.853  19.965  0.00  0.00     0.000 A 
ATOM     22  C   UNL d   1     -40.284  15.921  18.885  0.00  0.00     0.000 C 
ATOM     23  C   UNL d   1     -41.464  15.560  20.697  0.00  0.00     0.000 A 
ATOM     24  C   UNL d   1     -40.971  15.031  21.097  0.00  0.00     0.000 A 
ATOM     25  C   UNL d   1     -42.176  15.785  21.035  0.00  0.00     0.000 C 
ATOM     26  C   UNL d   1     -40.249  14.796  20.765  0.00  0.00     0.000 A 
ENDBRANCH  18  19
ENDBRANCH  16  18
ENDBRANCH   1  15
TORSDOF 3
ENDMDL
