MODEL 1
REMARK VINA RESULT:      38.9      0.000      0.000
REMARK  2 active torsions:
REMARK  status: ('A' for Active; 'I' for Inactive)
REMARK    1  A    between atoms: C_3  and  C_1 
REMARK       I    between atoms: N_7  and  C_3 
REMARK    2  A    between atoms: C_11  and  N_7 
ROOT
ATOM      1  C   UNL d   1     -54.852-101.233 -43.249  0.00  0.00     0.121 A 
ATOM      2  C   UNL d   1     -54.973-101.648 -43.950  0.00  0.00     0.305 A 
ATOM      3  C   UNL d   1     -54.766-100.413 -43.265  0.00  0.00     0.012 A 
ATOM      4  O   UNL d   1     -55.005-101.240 -44.661  0.00  0.00    -0.273 OA
ATOM      5  C   UNL d   1     -54.800-100.009 -43.983  0.00  0.00     0.023 A 
ATOM      6  C   UNL d   1     -54.920-100.424 -44.684  0.00  0.00     0.103 A 
ATOM      7  O   UNL d   1     -55.058-102.471 -43.923  0.00  0.00    -0.259 OA
ATOM      8  C   UNL d   1     -54.713 -99.196 -43.995  0.00  0.00     0.002 A 
ATOM      9  C   UNL d   1     -54.953-100.023 -45.391  0.00  0.00     0.025 A 
ATOM     10  C   UNL d   1     -54.747 -98.786 -44.717  0.00  0.00     0.000 A 
ATOM     11  C   UNL d   1     -54.867 -99.201 -45.418  0.00  0.00     0.002 A 
ENDROOT
BRANCH   1  12
ATOM     12  C   UNL d   1     -54.819-101.643 -42.527  0.00  0.00     0.284 C 
ATOM     13  N   UNL d   1     -54.876-101.233 -41.821  0.00  0.00    -0.208 NA
ATOM     14  O   UNL d   1     -54.727-102.469 -42.520  0.00  0.00    -0.265 OA
BRANCH  13  15
ATOM     15  C   UNL d   1     -54.843-101.643 -41.107  0.00  0.00     0.085 A 
ATOM     16  C   UNL d   1     -54.905-102.472 -41.099  0.00  0.00     0.019 A 
ATOM     17  C   UNL d   1     -54.870-102.878 -40.377  0.00  0.00     0.002 A 
ATOM     18  C   UNL d   1     -54.774-102.469 -39.665  0.00  0.00     0.000 A 
ATOM     19  C   UNL d   1     -54.712-101.641 -39.673  0.00  0.00     0.002 A 
ATOM     20  C   UNL d   1     -54.745-101.230 -40.378  0.00  0.00     0.019 A 
ENDBRANCH  13  15
ENDBRANCH   1  12
TORSDOF 2
ENDMDL
