MODEL 1
REMARK VINA RESULT:      29.9      0.000      0.000
REMARK  5 active torsions:
REMARK  status: ('A' for Active; 'I' for Inactive)
REMARK    1  A    between atoms: C_2  and  S_1 
REMARK    2  A    between atoms: N_3  and  C_14 
REMARK    3  A    between atoms: C_9  and  N_3 
REMARK    4  A    between atoms: N_8  and  C_7 
REMARK    5  A    between atoms: C_15  and  C_9 
ROOT
ATOM      1  N   UNL d   1     -55.197-102.725 -40.310  0.00  0.00    -0.244 NA
ENDROOT
BRANCH   1   2
ATOM      2  C   UNL d   1     -55.333-102.749 -39.492  0.00  0.00     0.082 A 
ATOM      3  C   UNL d   1     -56.113-102.795 -39.224  0.00  0.00     0.020 A 
ATOM      4  C   UNL d   1     -56.245-102.819 -38.410  0.00  0.00     0.015 A 
ATOM      5  C   UNL d   1     -55.625-102.797 -37.885  0.00  0.00     0.107 A 
ATOM      6  C   UNL d   1     -54.847-102.750 -38.154  0.00  0.00     0.015 A 
ATOM      7  C   UNL d   1     -54.712-102.727 -38.968  0.00  0.00     0.020 A 
BRANCH   5   8
ATOM      8  S   UNL d   1     -55.766-102.821 -37.063  0.00  0.00     0.302 S 
ATOM      9  O   UNL d   1     -56.581-102.880 -37.209  0.00  0.00    -0.197 OA
ATOM     10  O   UNL d   1     -55.918-102.845 -36.250  0.00  0.00    -0.197 OA
ATOM     11  N   UNL d   1     -54.959-102.762 -36.921  0.00  0.00    -0.043 N 
ENDBRANCH   5   8
ENDBRANCH   1   2
BRANCH   1  12
ATOM     12  C   UNL d   1     -54.910-102.051 -40.663  0.00  0.00     0.099 C 
BRANCH  12  13
ATOM     13  C   UNL d   1     -54.896-101.972 -41.487  0.00  0.00     0.019 A 
ATOM     14  C   UNL d   1     -54.755-101.227 -41.849  0.00  0.00     0.003 A 
ATOM     15  C   UNL d   1     -54.748-101.181 -42.669  0.00  0.00     0.018 A 
ATOM     16  C   UNL d   1     -54.873-101.832 -43.137  0.00  0.00     0.064 A 
ATOM     17  C   UNL d   1     -55.014-102.577 -42.775  0.00  0.00     0.018 A 
ATOM     18  C   UNL d   1     -55.027-102.656 -41.950  0.00  0.00     0.003 A 
BRANCH  16  19
ATOM     19  N   UNL d   1     -54.856-101.738 -43.956  0.00  0.00    -0.301 N 
ATOM     20  C   UNL d   1     -54.984-100.985 -44.289  0.00  0.00     0.100 C 
ATOM     21  C   UNL d   1     -54.713-102.393 -44.419  0.00  0.00     0.100 C 
ENDBRANCH  16  19
ENDBRANCH  12  13
ENDBRANCH   1  12
TORSDOF 5
ENDMDL
