MODEL 1
REMARK VINA RESULT:       6.0      0.000      0.000
REMARK  1 active torsions:
REMARK  status: ('A' for Active; 'I' for Inactive)
REMARK    1  A    between atoms: C_7  and  C_1 
ROOT
ATOM      1  C   UNL d   1      23.591  13.183  -1.056  0.00  0.00     0.122 A 
ATOM      2  C   UNL d   1      24.163  12.619  -0.818  0.00  0.00     0.285 A 
ATOM      3  C   UNL d   1      23.426  13.264  -1.858  0.00  0.00     0.012 A 
ATOM      4  N   UNL d   1      24.555  12.152  -1.372  0.00  0.00    -0.208 NA
ATOM      5  C   UNL d   1      24.378  12.244  -2.179  0.00  0.00     0.085 A 
ATOM      6  C   UNL d   1      23.814  12.799  -2.426  0.00  0.00     0.018 A 
ATOM      7  O   UNL d   1      24.334  12.532  -0.014  0.00  0.00    -0.265 OA
ATOM      8  C   UNL d   1      24.768  11.779  -2.737  0.00  0.00     0.019 A 
ATOM      9  C   UNL d   1      23.639  12.892  -3.220  0.00  0.00     0.002 A 
ATOM     10  C   UNL d   1      24.031  12.424  -3.778  0.00  0.00     0.000 A 
ATOM     11  C   UNL d   1      24.590  11.874  -3.537  0.00  0.00     0.002 A 
ENDROOT
BRANCH   1  12
ATOM     12  C   UNL d   1      23.206  13.643  -0.504  0.00  0.00     0.216 C 
ATOM     13  O   UNL d   1      22.423  13.449  -0.279  0.00  0.00    -0.644 OA
ATOM     14  O   UNL d   1      23.579  14.295  -0.167  0.00  0.00    -0.644 OA
ENDBRANCH   1  12
TORSDOF 1
ENDMDL
