MODEL 1
REMARK VINA RESULT:       9.9      0.000      0.000
REMARK  1 active torsions:
REMARK  status: ('A' for Active; 'I' for Inactive)
REMARK    1  A    between atoms: C_4  and  C_1 
ROOT
ATOM      1  C   UNL d   1     -52.024  25.057  33.310  0.00  0.00     0.168 A 
ATOM      2  N   UNL d   1     -51.201  25.067  33.307  0.00  0.00    -0.225 NA
ATOM      3  N   UNL d   1     -52.289  25.844  33.313  0.00  0.00    -0.225 NA
ATOM      4  C   UNL d   1     -50.954  25.860  33.308  0.00  0.00     0.101 A 
ATOM      5  C   UNL d   1     -51.627  26.337  33.312  0.00  0.00     0.101 A 
ATOM      6  C   UNL d   1     -50.200  26.205  33.306  0.00  0.00     0.021 A 
ATOM      7  C   UNL d   1     -51.540  27.167  33.313  0.00  0.00     0.021 A 
ATOM      8  C   UNL d   1     -50.118  27.024  33.308  0.00  0.00     0.002 A 
ATOM      9  C   UNL d   1     -50.788  27.505  33.311  0.00  0.00     0.002 A 
ENDROOT
BRANCH   1  10
ATOM     10  C   UNL d   1     -52.504  24.388  33.311  0.00  0.00     0.065 A 
ATOM     11  S   UNL d   1     -52.390  23.674  33.314  0.00  0.00    -0.083 SA
ATOM     12  C   UNL d   1     -52.953  23.226  33.313  0.00  0.00     0.035 A 
ATOM     13  C   UNL d   1     -53.624  23.478  33.309  0.00  0.00     0.008 A 
ATOM     14  C   UNL d   1     -53.738  24.190  33.306  0.00  0.00     0.010 A 
ENDBRANCH   1  10
TORSDOF 1
ENDMDL
