MODEL 1
REMARK VINA RESULT:      -8.1      0.000      0.000
REMARK  5 active torsions:
REMARK  status: ('A' for Active; 'I' for Inactive)
REMARK    1  A    between atoms: N_2  and  S_1 
REMARK    2  A    between atoms: C_4  and  S_1 
REMARK    3  A    between atoms: C_3  and  N_2 
REMARK    4  A    between atoms: O_19  and  C_13 
REMARK    5  A    between atoms: C_20  and  O_19 
ROOT
ATOM      1  S   UNL d   1      51.601  33.741  53.031  0.00  0.00     0.327 S 
ATOM      2  O   UNL d   1      51.155  33.147  53.392  0.00  0.00    -0.186 OA
ATOM      3  O   UNL d   1      52.044  34.338  52.668  0.00  0.00    -0.186 OA
ENDROOT
BRANCH   1   4
ATOM      4  N   UNL d   1      52.296  33.413  53.336  0.00  0.00    -0.314 NA
BRANCH   4   5
ATOM      5  C   UNL d   1      52.990  33.093  53.651  0.00  0.00     0.185 A 
ATOM      6  C   UNL d   1      53.342  33.444  54.307  0.00  0.00     0.048 A 
ATOM      7  C   UNL d   1      54.029  33.128  54.619  0.00  0.00     0.060 A 
ATOM      8 CL   UNL d   1      54.384  33.478  55.276  0.00  0.00    -0.082 Cl
ATOM      9  C   UNL d   1      54.368  32.459  54.276  0.00  0.00     0.015 A 
ATOM     10  C   UNL d   1      54.013  32.109  53.619  0.00  0.00     0.046 A 
ATOM     11  C   UNL d   1      53.319  32.428  53.304  0.00  0.00     0.226 A 
ATOM     12  O   UNL d   1      52.964  32.078  52.647  0.00  0.00    -0.284 OA
ENDBRANCH   4   5
ENDBRANCH   1   4
BRANCH   1  13
ATOM     13  C   UNL d   1      50.909  34.074  52.723  0.00  0.00     0.117 A 
ATOM     14  C   UNL d   1      50.369  34.431  53.229  0.00  0.00     0.016 A 
ATOM     15  C   UNL d   1      49.676  34.765  52.926  0.00  0.00     0.025 A 
ATOM     16  C   UNL d   1      49.526  34.738  52.109  0.00  0.00     0.100 A 
ATOM     17  C   UNL d   1      50.077  34.375  51.606  0.00  0.00     0.025 A 
ATOM     18  C   UNL d   1      50.766  34.045  51.913  0.00  0.00     0.016 A 
BRANCH  16  19
ATOM     19  O   UNL d   1      48.834  35.070  51.801  0.00  0.00    -0.305 OA
BRANCH  19  20
ATOM     20  C   UNL d   1      48.454  34.711  51.164  0.00  0.00     0.123 C 
ATOM     21  C   UNL d   1      47.750  35.025  50.866  0.00  0.00     0.029 C 
ENDBRANCH  19  20
ENDBRANCH  16  19
ENDBRANCH   1  13
TORSDOF 5
ENDMDL
MODEL 2
REMARK VINA RESULT:      -6.9      2.034      4.894
REMARK  5 active torsions:
REMARK  status: ('A' for Active; 'I' for Inactive)
REMARK    1  A    between atoms: N_2  and  S_1 
REMARK    2  A    between atoms: C_4  and  S_1 
REMARK    3  A    between atoms: C_3  and  N_2 
REMARK    4  A    between atoms: O_19  and  C_13 
REMARK    5  A    between atoms: C_20  and  O_19 
ROOT
ATOM      1  S   UNL d   1      50.658  34.286  52.667  0.00  0.00     0.327 S 
ATOM      2  O   UNL d   1      51.026  34.548  51.975  0.00  0.00    -0.186 OA
ATOM      3  O   UNL d   1      50.293  34.022  53.360  0.00  0.00    -0.186 OA
ENDROOT
BRANCH   1   4
ATOM      4  N   UNL d   1      49.930  34.566  52.391  0.00  0.00    -0.314 NA
BRANCH   4   5
ATOM      5  C   UNL d   1      49.201  34.850  52.128  0.00  0.00     0.185 A 
ATOM      6  C   UNL d   1      48.751  35.339  52.615  0.00  0.00     0.048 A 
ATOM      7  C   UNL d   1      48.029  35.621  52.354  0.00  0.00     0.060 A 
ATOM      8 CL   UNL d   1      47.577  36.110  52.840  0.00  0.00    -0.082 Cl
ATOM      9  C   UNL d   1      47.752  35.416  51.604  0.00  0.00     0.015 A 
ATOM     10  C   UNL d   1      48.204  34.927  51.118  0.00  0.00     0.046 A 
ATOM     11  C   UNL d   1      48.935  34.641  51.382  0.00  0.00     0.226 A 
ATOM     12  O   UNL d   1      49.387  34.152  50.896  0.00  0.00    -0.284 OA
ENDBRANCH   4   5
ENDBRANCH   1   4
BRANCH   1  13
ATOM     13  C   UNL d   1      51.384  34.005  52.946  0.00  0.00     0.117 A 
ATOM     14  C   UNL d   1      51.992  34.535  53.107  0.00  0.00     0.016 A 
ATOM     15  C   UNL d   1      52.719  34.259  53.386  0.00  0.00     0.025 A 
ATOM     16  C   UNL d   1      52.835  33.444  53.505  0.00  0.00     0.100 A 
ATOM     17  C   UNL d   1      52.216  32.917  53.340  0.00  0.00     0.025 A 
ATOM     18  C   UNL d   1      51.494  33.197  53.062  0.00  0.00     0.016 A 
BRANCH  16  19
ATOM     19  O   UNL d   1      53.561  33.163  53.784  0.00  0.00    -0.305 OA
BRANCH  19  20
ATOM     20  C   UNL d   1      53.737  33.210  54.587  0.00  0.00     0.123 C 
ATOM     21  C   UNL d   1      54.490  33.006  54.864  0.00  0.00     0.029 C 
ENDBRANCH  19  20
ENDBRANCH  16  19
ENDBRANCH   1  13
TORSDOF 5
ENDMDL
MODEL 3
REMARK VINA RESULT:      -6.9      3.049      3.792
REMARK  5 active torsions:
REMARK  status: ('A' for Active; 'I' for Inactive)
REMARK    1  A    between atoms: N_2  and  S_1 
REMARK    2  A    between atoms: C_4  and  S_1 
REMARK    3  A    between atoms: C_3  and  N_2 
REMARK    4  A    between atoms: O_19  and  C_13 
REMARK    5  A    between atoms: C_20  and  O_19 
ROOT
ATOM      1  S   UNL d   1      53.309  32.293  53.903  0.00  0.00     0.327 S 
ATOM      2  O   UNL d   1      52.485  32.342  53.927  0.00  0.00    -0.186 OA
ATOM      3  O   UNL d   1      54.135  32.248  53.879  0.00  0.00    -0.186 OA
ENDROOT
BRANCH   1   4
ATOM      4  N   UNL d   1      53.263  31.475  53.785  0.00  0.00    -0.314 NA
BRANCH   4   5
ATOM      5  C   UNL d   1      53.212  30.658  53.680  0.00  0.00     0.185 A 
ATOM      6  C   UNL d   1      53.350  30.153  54.316  0.00  0.00     0.048 A 
ATOM      7  C   UNL d   1      53.300  29.343  54.211  0.00  0.00     0.060 A 
ATOM      8 CL   UNL d   1      53.438  28.836  54.847  0.00  0.00    -0.082 Cl
ATOM      9  C   UNL d   1      53.111  29.033  53.471  0.00  0.00     0.015 A 
ATOM     10  C   UNL d   1      52.973  29.541  52.835  0.00  0.00     0.046 A 
ATOM     11  C   UNL d   1      53.024  30.360  52.941  0.00  0.00     0.226 A 
ATOM     12  O   UNL d   1      52.886  30.867  52.305  0.00  0.00    -0.284 OA
ENDBRANCH   4   5
ENDBRANCH   1   4
BRANCH   1  13
ATOM     13  C   UNL d   1      53.361  33.110  54.021  0.00  0.00     0.117 A 
ATOM     14  C   UNL d   1      53.791  33.404  54.657  0.00  0.00     0.016 A 
ATOM     15  C   UNL d   1      53.846  34.219  54.778  0.00  0.00     0.025 A 
ATOM     16  C   UNL d   1      53.465  34.743  54.257  0.00  0.00     0.100 A 
ATOM     17  C   UNL d   1      53.034  34.437  53.618  0.00  0.00     0.025 A 
ATOM     18  C   UNL d   1      52.982  33.624  53.501  0.00  0.00     0.016 A 
BRANCH  16  19
ATOM     19  O   UNL d   1      53.517  35.560  54.374  0.00  0.00    -0.305 OA
BRANCH  19  20
ATOM     20  C   UNL d   1      52.884  35.967  54.709  0.00  0.00     0.123 C 
ATOM     21  C   UNL d   1      53.000  36.708  55.056  0.00  0.00     0.029 C 
ENDBRANCH  19  20
ENDBRANCH  16  19
ENDBRANCH   1  13
TORSDOF 5
ENDMDL
MODEL 4
REMARK VINA RESULT:      -6.2      1.587      2.348
REMARK  5 active torsions:
REMARK  status: ('A' for Active; 'I' for Inactive)
REMARK    1  A    between atoms: N_2  and  S_1 
REMARK    2  A    between atoms: C_4  and  S_1 
REMARK    3  A    between atoms: C_3  and  N_2 
REMARK    4  A    between atoms: O_19  and  C_13 
REMARK    5  A    between atoms: C_20  and  O_19 
ROOT
ATOM      1  S   UNL d   1      49.690  34.709  52.455  0.00  0.00     0.327 S 
ATOM      2  O   UNL d   1      49.514  35.006  53.205  0.00  0.00    -0.186 OA
ATOM      3  O   UNL d   1      49.862  34.412  51.702  0.00  0.00    -0.186 OA
ENDROOT
BRANCH   1   4
ATOM      4  N   UNL d   1      50.420  34.434  52.730  0.00  0.00    -0.314 NA
BRANCH   4   5
ATOM      5  C   UNL d   1      51.149  34.168  53.014  0.00  0.00     0.185 A 
ATOM      6  C   UNL d   1      51.793  34.679  53.030  0.00  0.00     0.048 A 
ATOM      7  C   UNL d   1      52.515  34.416  53.312  0.00  0.00     0.060 A 
ATOM      8 CL   UNL d   1      53.163  34.927  53.329  0.00  0.00    -0.082 Cl
ATOM      9  C   UNL d   1      52.596  33.640  53.578  0.00  0.00     0.015 A 
ATOM     10  C   UNL d   1      51.949  33.129  53.560  0.00  0.00     0.046 A 
ATOM     11  C   UNL d   1      51.219  33.395  53.275  0.00  0.00     0.226 A 
ATOM     12  O   UNL d   1      50.572  32.884  53.258  0.00  0.00    -0.284 OA
ENDBRANCH   4   5
ENDBRANCH   1   4
BRANCH   1  13
ATOM     13  C   UNL d   1      48.961  34.982  52.176  0.00  0.00     0.117 A 
ATOM     14  C   UNL d   1      48.489  35.452  52.658  0.00  0.00     0.016 A 
ATOM     15  C   UNL d   1      47.761  35.727  52.384  0.00  0.00     0.025 A 
ATOM     16  C   UNL d   1      47.504  35.529  51.618  0.00  0.00     0.100 A 
ATOM     17  C   UNL d   1      47.986  35.054  51.139  0.00  0.00     0.025 A 
ATOM     18  C   UNL d   1      48.711  34.782  51.417  0.00  0.00     0.016 A 
BRANCH  16  19
ATOM     19  O   UNL d   1      46.775  35.802  51.339  0.00  0.00    -0.305 OA
BRANCH  19  20
ATOM     20  C   UNL d   1      46.080  35.576  51.719  0.00  0.00     0.123 C 
ATOM     21  C   UNL d   1      45.344  35.780  51.401  0.00  0.00     0.029 C 
ENDBRANCH  19  20
ENDBRANCH  16  19
ENDBRANCH   1  13
TORSDOF 5
ENDMDL
MODEL 5
REMARK VINA RESULT:      -5.1     10.616     11.132
REMARK  5 active torsions:
REMARK  status: ('A' for Active; 'I' for Inactive)
REMARK    1  A    between atoms: N_2  and  S_1 
REMARK    2  A    between atoms: C_4  and  S_1 
REMARK    3  A    between atoms: C_3  and  N_2 
REMARK    4  A    between atoms: O_19  and  C_13 
REMARK    5  A    between atoms: C_20  and  O_19 
ROOT
ATOM      1  S   UNL d   1      45.025  26.402  56.812  0.00  0.00     0.327 S 
ATOM      2  O   UNL d   1      45.734  26.505  56.400  0.00  0.00    -0.186 OA
ATOM      3  O   UNL d   1      44.316  26.303  57.226  0.00  0.00    -0.186 OA
ENDROOT
BRANCH   1   4
ATOM      4  N   UNL d   1      44.891  25.689  56.414  0.00  0.00    -0.314 NA
BRANCH   4   5
ATOM      5  C   UNL d   1      44.751  24.984  56.008  0.00  0.00     0.185 A 
ATOM      6  C   UNL d   1      44.605  25.000  55.197  0.00  0.00     0.048 A 
ATOM      7  C   UNL d   1      44.467  24.301  54.795  0.00  0.00     0.060 A 
ATOM      8 CL   UNL d   1      44.320  24.315  53.983  0.00  0.00    -0.082 Cl
ATOM      9  C   UNL d   1      44.473  23.583  55.200  0.00  0.00     0.015 A 
ATOM     10  C   UNL d   1      44.620  23.570  56.012  0.00  0.00     0.046 A 
ATOM     11  C   UNL d   1      44.760  24.276  56.419  0.00  0.00     0.226 A 
ATOM     12  O   UNL d   1      44.907  24.263  57.230  0.00  0.00    -0.284 OA
ENDBRANCH   4   5
ENDBRANCH   1   4
BRANCH   1  13
ATOM     13  C   UNL d   1      45.154  27.114  57.212  0.00  0.00     0.117 A 
ATOM     14  C   UNL d   1      45.375  27.103  58.004  0.00  0.00     0.016 A 
ATOM     15  C   UNL d   1      45.506  27.811  58.408  0.00  0.00     0.025 A 
ATOM     16  C   UNL d   1      45.413  28.537  58.013  0.00  0.00     0.100 A 
ATOM     17  C   UNL d   1      45.190  28.539  57.214  0.00  0.00     0.025 A 
ATOM     18  C   UNL d   1      45.061  27.830  56.816  0.00  0.00     0.016 A 
BRANCH  16  19
ATOM     19  O   UNL d   1      45.543  29.249  58.413  0.00  0.00    -0.305 OA
BRANCH  19  20
ATOM     20  C   UNL d   1      44.904  29.668  58.721  0.00  0.00     0.123 C 
ATOM     21  C   UNL d   1      45.026  30.381  59.122  0.00  0.00     0.029 C 
ENDBRANCH  19  20
ENDBRANCH  16  19
ENDBRANCH   1  13
TORSDOF 5
ENDMDL
