MODEL 1
REMARK VINA RESULT:       6.7      0.000      0.000
REMARK  1 active torsions:
REMARK  status: ('A' for Active; 'I' for Inactive)
REMARK    1  A    between atoms: C_4  and  C_1 
ROOT
ATOM      1  C   UNL d   1      13.867  12.146  -2.276  0.00  0.00     0.024 A 
ATOM      2  C   UNL d   1      13.137  11.779  -2.394  0.00  0.00     0.002 A 
ATOM      3  C   UNL d   1      14.234  12.549  -2.891  0.00  0.00     0.002 A 
ATOM      4  C   UNL d   1      12.776  11.815  -3.126  0.00  0.00     0.000 A 
ATOM      5  C   UNL d   1      13.872  12.587  -3.632  0.00  0.00     0.000 A 
ATOM      6  C   UNL d   1      13.143  12.218  -3.745  0.00  0.00     0.000 A 
ATOM      7  C   UNL d   1      12.773  12.253  -4.488  0.00  0.00     0.000 C 
ENDROOT
BRANCH   1   8
ATOM      8  C   UNL d   1      14.229  12.108  -1.535  0.00  0.00     0.111 A 
ATOM      9  N   UNL d   1      15.017  12.336  -1.449  0.00  0.00    -0.237 NA
ATOM     10  C   UNL d   1      14.953  12.032  -0.053  0.00  0.00     0.106 A 
ATOM     11  C   UNL d   1      14.165  11.804  -0.139  0.00  0.00     0.058 A 
ATOM     12  S   UNL d   1      13.802  11.842  -0.880  0.00  0.00    -0.066 SA
ENDBRANCH   1   8
TORSDOF 1
ENDMDL
