MODEL 1
REMARK VINA RESULT:      -5.8      0.000      0.000
REMARK  4 active torsions:
REMARK  status: ('A' for Active; 'I' for Inactive)
REMARK    1  A    between atoms: C_5  and  C_1 
REMARK       I    between atoms: N_7  and  C_5 
REMARK    2  A    between atoms: C_9  and  N_7 
REMARK    3  A    between atoms: C_8  and  C_9 
REMARK    4  A    between atoms: O_13  and  C_11 
ROOT
ATOM      1  C   UNL d   1      57.164  -0.368  31.192  0.00  0.00     0.299 C 
ATOM      2  N   UNL d   1      57.687  -0.820  30.732  0.00  0.00    -0.205 NA
ATOM      3  O   UNL d   1      57.079   0.438  31.048  0.00  0.00    -0.263 OA
ENDROOT
BRANCH   1   4
ATOM      4  C   UNL d   1      56.726  -0.731  31.796  0.00  0.00     0.162 A 
ATOM      5  N   UNL d   1      56.634  -1.542  31.902  0.00  0.00    -0.143 NA
ATOM      6  N   UNL d   1      56.153  -1.668  32.573  0.00  0.00    -0.148 NA
ATOM      7  C   UNL d   1      55.953  -0.912  32.875  0.00  0.00     0.105 A 
ATOM      8  C   UNL d   1      56.308  -0.337  32.394  0.00  0.00     0.044 A 
ATOM      9  C   UNL d   1      55.499  -0.691  33.519  0.00  0.00     0.021 A 
ATOM     10  C   UNL d   1      56.198   0.462  32.570  0.00  0.00     0.003 A 
ATOM     11  C   UNL d   1      55.746   0.682  33.211  0.00  0.00     0.000 A 
ATOM     12  C   UNL d   1      55.396   0.110  33.685  0.00  0.00     0.002 A 
ENDBRANCH   1   4
BRANCH   2  13
ATOM     13  C   UNL d   1      58.122  -0.457  30.130  0.00  0.00     0.104 C 
BRANCH  13  14
ATOM     14  C   UNL d   1      58.598  -0.899  29.624  0.00  0.00     0.042 A 
ATOM     15  C   UNL d   1      59.161  -0.523  29.145  0.00  0.00     0.096 A 
ATOM     16  C   UNL d   1      59.627  -0.970  28.647  0.00  0.00     0.024 A 
ATOM     17  C   UNL d   1      59.542  -1.790  28.617  0.00  0.00     0.002 A 
ATOM     18  C   UNL d   1      58.991  -2.171  29.085  0.00  0.00     0.000 A 
ATOM     19  C   UNL d   1      58.510  -1.726  29.596  0.00  0.00     0.004 A 
BRANCH  15  20
ATOM     20  O   UNL d   1      59.254   0.300  29.167  0.00  0.00    -0.328 OA
ATOM     21  C   UNL d   1      59.793   0.682  28.681  0.00  0.00     0.181 C 
ENDBRANCH  15  20
ENDBRANCH  13  14
ENDBRANCH   2  13
TORSDOF 4
ENDMDL
MODEL 2
REMARK VINA RESULT:      -5.2      1.294      4.712
REMARK  4 active torsions:
REMARK  status: ('A' for Active; 'I' for Inactive)
REMARK    1  A    between atoms: C_5  and  C_1 
REMARK       I    between atoms: N_7  and  C_5 
REMARK    2  A    between atoms: C_9  and  N_7 
REMARK    3  A    between atoms: C_8  and  C_9 
REMARK    4  A    between atoms: O_13  and  C_11 
ROOT
ATOM      1  C   UNL d   1      57.756  -0.682  30.331  0.00  0.00     0.299 C 
ATOM      2  N   UNL d   1      57.404  -0.297  30.977  0.00  0.00    -0.205 NA
ATOM      3  O   UNL d   1      57.756  -1.504  30.291  0.00  0.00    -0.263 OA
ENDROOT
BRANCH   1   4
ATOM      4  C   UNL d   1      58.109  -0.236  29.726  0.00  0.00     0.162 A 
ATOM      5  N   UNL d   1      57.719   0.292  29.231  0.00  0.00    -0.143 NA
ATOM      6  N   UNL d   1      58.278   0.620  28.703  0.00  0.00    -0.148 NA
ATOM      7  C   UNL d   1      59.020   0.279  28.890  0.00  0.00     0.105 A 
ATOM      8  C   UNL d   1      58.912  -0.249  29.521  0.00  0.00     0.044 A 
ATOM      9  C   UNL d   1      59.763   0.387  28.563  0.00  0.00     0.021 A 
ATOM     10  C   UNL d   1      59.561  -0.665  29.816  0.00  0.00     0.003 A 
ATOM     11  C   UNL d   1      60.300  -0.557  29.491  0.00  0.00     0.000 A 
ATOM     12  C   UNL d   1      60.403  -0.034  28.867  0.00  0.00     0.002 A 
ENDBRANCH   1   4
BRANCH   2  13
ATOM     13  C   UNL d   1      57.054  -0.743  31.579  0.00  0.00     0.104 C 
BRANCH  13  14
ATOM     14  C   UNL d   1      56.824  -0.393  32.288  0.00  0.00     0.042 A 
ATOM     15  C   UNL d   1      56.256  -0.759  32.770  0.00  0.00     0.096 A 
ATOM     16  C   UNL d   1      56.036  -0.404  33.469  0.00  0.00     0.024 A 
ATOM     17  C   UNL d   1      56.373   0.313  33.701  0.00  0.00     0.002 A 
ATOM     18  C   UNL d   1      56.934   0.682  33.235  0.00  0.00     0.000 A 
ATOM     19  C   UNL d   1      57.166   0.330  32.519  0.00  0.00     0.004 A 
BRANCH  15  20
ATOM     20  O   UNL d   1      55.912  -1.478  32.546  0.00  0.00    -0.328 OA
ATOM     21  C   UNL d   1      55.499  -1.939  33.085  0.00  0.00     0.181 C 
ENDBRANCH  15  20
ENDBRANCH  13  14
ENDBRANCH   2  13
TORSDOF 4
ENDMDL
MODEL 3
REMARK VINA RESULT:      -5.0      1.098      4.525
REMARK  4 active torsions:
REMARK  status: ('A' for Active; 'I' for Inactive)
REMARK    1  A    between atoms: C_5  and  C_1 
REMARK       I    between atoms: N_7  and  C_5 
REMARK    2  A    between atoms: C_9  and  N_7 
REMARK    3  A    between atoms: C_8  and  C_9 
REMARK    4  A    between atoms: O_13  and  C_11 
ROOT
ATOM      1  C   UNL d   1      58.079  -0.136  30.393  0.00  0.00     0.299 C 
ATOM      2  N   UNL d   1      57.661  -0.504  31.009  0.00  0.00    -0.205 NA
ATOM      3  O   UNL d   1      58.170   0.682  30.388  0.00  0.00    -0.263 OA
ENDROOT
BRANCH   1   4
ATOM      4  C   UNL d   1      58.405  -0.595  29.783  0.00  0.00     0.162 A 
ATOM      5  N   UNL d   1      57.992  -1.123  29.306  0.00  0.00    -0.143 NA
ATOM      6  N   UNL d   1      58.529  -1.466  28.766  0.00  0.00    -0.148 NA
ATOM      7  C   UNL d   1      59.281  -1.133  28.924  0.00  0.00     0.105 A 
ATOM      8  C   UNL d   1      59.201  -0.596  29.551  0.00  0.00     0.044 A 
ATOM      9  C   UNL d   1      60.011  -1.257  28.574  0.00  0.00     0.021 A 
ATOM     10  C   UNL d   1      59.866  -0.187  29.820  0.00  0.00     0.003 A 
ATOM     11  C   UNL d   1      60.592  -0.310  29.473  0.00  0.00     0.000 A 
ATOM     12  C   UNL d   1      60.668  -0.842  28.852  0.00  0.00     0.002 A 
ENDBRANCH   1   4
BRANCH   2  13
ATOM     13  C   UNL d   1      57.337  -0.046  31.615  0.00  0.00     0.104 C 
BRANCH  13  14
ATOM     14  C   UNL d   1      56.837  -0.379  32.178  0.00  0.00     0.042 A 
ATOM     15  C   UNL d   1      56.829  -0.088  32.955  0.00  0.00     0.096 A 
ATOM     16  C   UNL d   1      56.330  -0.424  33.504  0.00  0.00     0.024 A 
ATOM     17  C   UNL d   1      55.834  -1.049  33.293  0.00  0.00     0.002 A 
ATOM     18  C   UNL d   1      55.833  -1.344  32.530  0.00  0.00     0.000 A 
ATOM     19  C   UNL d   1      56.338  -1.009  31.962  0.00  0.00     0.004 A 
BRANCH  15  20
ATOM     20  O   UNL d   1      57.322   0.539  33.177  0.00  0.00    -0.328 OA
ATOM     21  C   UNL d   1      57.504   0.682  33.964  0.00  0.00     0.181 C 
ENDBRANCH  15  20
ENDBRANCH  13  14
ENDBRANCH   2  13
TORSDOF 4
ENDMDL
