MODEL 1
REMARK VINA RESULT:      -5.9      0.000      0.000
REMARK  7 active torsions:
REMARK  status: ('A' for Active; 'I' for Inactive)
REMARK    1  A    between atoms: C_19  and  N_1 
REMARK    2  A    between atoms: C_6  and  C_3 
REMARK    3  A    between atoms: C_9  and  C_6 
REMARK    4  A    between atoms: C_7  and  N_8 
REMARK       I    between atoms: N_8  and  C_11 
REMARK    5  A    between atoms: C_11  and  C_23 
REMARK    6  A    between atoms: C_22  and  C_19 
REMARK    7  A    between atoms: C_23  and  C_22 
ROOT
ATOM      1  C   UNL d   1     -47.718  12.289  23.134  0.00  0.00     0.024 C 
ENDROOT
BRANCH   1   2
ATOM      2  C   UNL d   1     -47.142  12.793  23.401  0.00  0.00     0.084 C 
BRANCH   2   3
ATOM      3  N   UNL d   1     -46.397  12.844  23.050  0.00  0.00    -0.259 N 
ATOM      4  C   UNL d   1     -46.105  13.520  22.662  0.00  0.00     0.153 A 
ATOM      5  S   UNL d   1     -45.348  13.331  22.398  0.00  0.00    -0.053 SA
ATOM      6  S   UNL d   1     -46.507  14.244  22.564  0.00  0.00    -0.052 SA
ATOM      7  C   UNL d   1     -45.145  12.568  22.599  0.00  0.00     0.090 A 
ATOM      8  C   UNL d   1     -45.795  12.270  23.002  0.00  0.00     0.272 A 
ATOM      9  O   UNL d   1     -45.833  11.485  23.319  0.00  0.00    -0.266 OA
BRANCH   7  10
ATOM     10  C   UNL d   1     -44.424  12.174  22.429  0.00  0.00     0.036 C 
BRANCH  10  11
ATOM     11  C   UNL d   1     -43.894  12.475  21.883  0.00  0.00     0.101 A 
ATOM     12  O   UNL d   1     -43.968  12.856  21.139  0.00  0.00    -0.305 OA
ATOM     13  C   UNL d   1     -43.196  13.024  20.868  0.00  0.00     0.123 A 
ATOM     14  C   UNL d   1     -42.668  12.769  21.403  0.00  0.00     0.029 A 
ATOM     15  C   UNL d   1     -43.083  12.432  22.027  0.00  0.00     0.027 A 
ENDBRANCH  10  11
ENDBRANCH   7  10
ENDBRANCH   2   3
ENDBRANCH   1   2
BRANCH   1  16
ATOM     16  C   UNL d   1     -48.539  12.472  23.189  0.00  0.00     0.064 C 
BRANCH  16  17
ATOM     17  C   UNL d   1     -49.116  11.925  23.035  0.00  0.00     0.279 C 
ATOM     18  N   UNL d   1     -49.901  12.156  22.921  0.00  0.00    -0.208 NA
ATOM     19  O   UNL d   1     -48.919  11.118  22.989  0.00  0.00    -0.265 OA
BRANCH  18  20
ATOM     20  C   UNL d   1     -50.105  12.972  22.967  0.00  0.00     0.085 A 
ATOM     21  C   UNL d   1     -50.421  13.338  22.306  0.00  0.00     0.018 A 
ATOM     22  C   UNL d   1     -50.626  14.143  22.338  0.00  0.00     0.002 A 
ATOM     23  C   UNL d   1     -50.534  12.907  21.612  0.00  0.00     0.002 A 
ATOM     24  C   UNL d   1     -50.941  14.513  21.682  0.00  0.00     0.000 A 
ATOM     25  C   UNL d   1     -50.509  14.574  23.045  0.00  0.00     0.000 A 
ATOM     26  C   UNL d   1     -51.061  14.093  20.976  0.00  0.00     0.000 A 
ATOM     27  C   UNL d   1     -50.854  13.280  20.942  0.00  0.00     0.000 A 
ATOM     28  C   UNL d   1     -50.196  14.209  23.698  0.00  0.00     0.002 A 
ATOM     29  C   UNL d   1     -49.992  13.404  23.661  0.00  0.00     0.019 A 
ENDBRANCH  18  20
ENDBRANCH  16  17
ENDBRANCH   1  16
TORSDOF 7
ENDMDL
MODEL 2
REMARK VINA RESULT:      -5.6      1.696      2.197
REMARK  7 active torsions:
REMARK  status: ('A' for Active; 'I' for Inactive)
REMARK    1  A    between atoms: C_19  and  N_1 
REMARK    2  A    between atoms: C_6  and  C_3 
REMARK    3  A    between atoms: C_9  and  C_6 
REMARK    4  A    between atoms: C_7  and  N_8 
REMARK       I    between atoms: N_8  and  C_11 
REMARK    5  A    between atoms: C_11  and  C_23 
REMARK    6  A    between atoms: C_22  and  C_19 
REMARK    7  A    between atoms: C_23  and  C_22 
ROOT
ATOM      1  C   UNL d   1     -47.470  12.685  22.202  0.00  0.00     0.024 C 
ENDROOT
BRANCH   1   2
ATOM      2  C   UNL d   1     -47.110  12.624  22.925  0.00  0.00     0.084 C 
BRANCH   2   3
ATOM      3  N   UNL d   1     -46.422  12.184  23.046  0.00  0.00    -0.259 N 
ATOM      4  C   UNL d   1     -45.657  12.436  22.837  0.00  0.00     0.153 A 
ATOM      5  S   UNL d   1     -45.142  11.832  23.055  0.00  0.00    -0.053 SA
ATOM      6  S   UNL d   1     -45.460  13.162  22.477  0.00  0.00    -0.052 SA
ATOM      7  C   UNL d   1     -45.543  11.207  23.392  0.00  0.00     0.090 A 
ATOM      8  C   UNL d   1     -46.332  11.428  23.386  0.00  0.00     0.272 A 
ATOM      9  O   UNL d   1     -46.960  10.943  23.686  0.00  0.00    -0.266 OA
BRANCH   7  10
ATOM     10  C   UNL d   1     -45.213  10.493  23.683  0.00  0.00     0.036 C 
BRANCH  10  11
ATOM     11  C   UNL d   1     -44.408  10.346  23.637  0.00  0.00     0.101 A 
ATOM     12  O   UNL d   1     -43.728  10.826  23.539  0.00  0.00    -0.305 OA
ATOM     13  C   UNL d   1     -43.064  10.318  23.539  0.00  0.00     0.123 A 
ATOM     14  C   UNL d   1     -43.307   9.569  23.631  0.00  0.00     0.029 A 
ATOM     15  C   UNL d   1     -44.126   9.574  23.692  0.00  0.00     0.027 A 
ENDBRANCH  10  11
ENDBRANCH   7  10
ENDBRANCH   2   3
ENDBRANCH   1   2
BRANCH   1  16
ATOM     16  C   UNL d   1     -48.030  13.289  22.025  0.00  0.00     0.064 C 
BRANCH  16  17
ATOM     17  C   UNL d   1     -48.630  13.181  21.492  0.00  0.00     0.279 C 
ATOM     18  N   UNL d   1     -49.229  13.742  21.407  0.00  0.00    -0.208 NA
ATOM     19  O   UNL d   1     -48.645  12.495  21.021  0.00  0.00    -0.265 OA
BRANCH  18  20
ATOM     20  C   UNL d   1     -49.217  14.438  21.882  0.00  0.00     0.085 A 
ATOM     21  C   UNL d   1     -49.830  14.566  22.411  0.00  0.00     0.018 A 
ATOM     22  C   UNL d   1     -49.830  15.249  22.885  0.00  0.00     0.002 A 
ATOM     23  C   UNL d   1     -50.444  14.018  22.470  0.00  0.00     0.002 A 
ATOM     24  C   UNL d   1     -50.438  15.382  23.413  0.00  0.00     0.000 A 
ATOM     25  C   UNL d   1     -49.205  15.801  22.820  0.00  0.00     0.000 A 
ATOM     26  C   UNL d   1     -51.063  14.840  23.485  0.00  0.00     0.000 A 
ATOM     27  C   UNL d   1     -51.064  14.150  23.007  0.00  0.00     0.000 A 
ATOM     28  C   UNL d   1     -48.600  15.671  22.296  0.00  0.00     0.002 A 
ATOM     29  C   UNL d   1     -48.604  14.987  21.824  0.00  0.00     0.019 A 
ENDBRANCH  18  20
ENDBRANCH  16  17
ENDBRANCH   1  16
TORSDOF 7
ENDMDL
MODEL 3
REMARK VINA RESULT:      -5.0      8.416     10.831
REMARK  7 active torsions:
REMARK  status: ('A' for Active; 'I' for Inactive)
REMARK    1  A    between atoms: C_19  and  N_1 
REMARK    2  A    between atoms: C_6  and  C_3 
REMARK    3  A    between atoms: C_9  and  C_6 
REMARK    4  A    between atoms: C_7  and  N_8 
REMARK       I    between atoms: N_8  and  C_11 
REMARK    5  A    between atoms: C_11  and  C_23 
REMARK    6  A    between atoms: C_22  and  C_19 
REMARK    7  A    between atoms: C_23  and  C_22 
ROOT
ATOM      1  C   UNL d   1     -39.283  14.081  18.419  0.00  0.00     0.024 C 
ENDROOT
BRANCH   1   2
ATOM      2  C   UNL d   1     -39.696  14.738  18.653  0.00  0.00     0.084 C 
BRANCH   2   3
ATOM      3  N   UNL d   1     -39.789  14.949  19.446  0.00  0.00    -0.259 N 
ATOM      4  C   UNL d   1     -40.454  14.759  19.909  0.00  0.00     0.153 A 
ATOM      5  S   UNL d   1     -40.315  15.073  20.658  0.00  0.00    -0.053 SA
ATOM      6  S   UNL d   1     -41.124  14.333  19.656  0.00  0.00    -0.052 SA
ATOM      7  C   UNL d   1     -39.595  15.453  20.692  0.00  0.00     0.090 A 
ATOM      8  C   UNL d   1     -39.273  15.374  19.942  0.00  0.00     0.272 A 
ATOM      9  O   UNL d   1     -38.517  15.688  19.719  0.00  0.00    -0.266 OA
BRANCH   7  10
ATOM     10  C   UNL d   1     -39.259  15.841  21.356  0.00  0.00     0.036 C 
BRANCH  10  11
ATOM     11  C   UNL d   1     -39.028  15.423  22.021  0.00  0.00     0.101 A 
ATOM     12  O   UNL d   1     -39.006  14.610  22.226  0.00  0.00    -0.305 OA
ATOM     13  C   UNL d   1     -38.706  14.559  23.004  0.00  0.00     0.123 A 
ATOM     14  C   UNL d   1     -38.549  15.288  23.274  0.00  0.00     0.029 A 
ATOM     15  C   UNL d   1     -38.742  15.824  22.683  0.00  0.00     0.027 A 
ENDBRANCH  10  11
ENDBRANCH   7  10
ENDBRANCH   2   3
ENDBRANCH   1   2
BRANCH   1  16
ATOM     16  C   UNL d   1     -38.906  14.028  17.667  0.00  0.00     0.064 C 
BRANCH  16  17
ATOM     17  C   UNL d   1     -38.501  13.368  17.430  0.00  0.00     0.279 C 
ATOM     18  N   UNL d   1     -38.060  13.368  16.733  0.00  0.00    -0.208 NA
ATOM     19  O   UNL d   1     -38.529  12.679  17.895  0.00  0.00    -0.265 OA
BRANCH  18  20
ATOM     20  C   UNL d   1     -38.030  14.064  16.259  0.00  0.00     0.085 A 
ATOM     21  C   UNL d   1     -38.000  13.987  15.444  0.00  0.00     0.018 A 
ATOM     22  C   UNL d   1     -37.970  14.666  14.966  0.00  0.00     0.002 A 
ATOM     23  C   UNL d   1     -38.000  13.236  15.102  0.00  0.00     0.002 A 
ATOM     24  C   UNL d   1     -37.940  14.595  14.153  0.00  0.00     0.000 A 
ATOM     25  C   UNL d   1     -37.970  15.424  15.319  0.00  0.00     0.000 A 
ATOM     26  C   UNL d   1     -37.940  13.847  13.793  0.00  0.00     0.000 A 
ATOM     27  C   UNL d   1     -37.970  13.160  14.275  0.00  0.00     0.000 A 
ATOM     28  C   UNL d   1     -37.999  15.497  16.127  0.00  0.00     0.002 A 
ATOM     29  C   UNL d   1     -38.029  14.815  16.601  0.00  0.00     0.019 A 
ENDBRANCH  18  20
ENDBRANCH  16  17
ENDBRANCH   1  16
TORSDOF 7
ENDMDL
MODEL 4
REMARK VINA RESULT:      -4.0      3.408      5.481
REMARK  7 active torsions:
REMARK  status: ('A' for Active; 'I' for Inactive)
REMARK    1  A    between atoms: C_19  and  N_1 
REMARK    2  A    between atoms: C_6  and  C_3 
REMARK    3  A    between atoms: C_9  and  C_6 
REMARK    4  A    between atoms: C_7  and  N_8 
REMARK       I    between atoms: N_8  and  C_11 
REMARK    5  A    between atoms: C_11  and  C_23 
REMARK    6  A    between atoms: C_22  and  C_19 
REMARK    7  A    between atoms: C_23  and  C_22 
ROOT
ATOM      1  C   UNL d   1     -42.571  13.128  21.197  0.00  0.00     0.024 C 
ENDROOT
BRANCH   1   2
ATOM      2  C   UNL d   1     -42.287  13.884  21.129  0.00  0.00     0.084 C 
BRANCH   2   3
ATOM      3  N   UNL d   1     -41.647  14.079  20.646  0.00  0.00    -0.259 N 
ATOM      4  C   UNL d   1     -40.996  14.538  20.889  0.00  0.00     0.153 A 
ATOM      5  S   UNL d   1     -40.493  14.595  20.239  0.00  0.00    -0.053 SA
ATOM      6  S   UNL d   1     -40.884  14.872  21.644  0.00  0.00    -0.052 SA
ATOM      7  C   UNL d   1     -40.793  14.194  19.595  0.00  0.00     0.090 A 
ATOM      8  C   UNL d   1     -41.505  13.877  19.850  0.00  0.00     0.272 A 
ATOM      9  O   UNL d   1     -42.015  13.409  19.360  0.00  0.00    -0.266 OA
BRANCH   7  10
ATOM     10  C   UNL d   1     -40.444  14.123  18.836  0.00  0.00     0.036 C 
BRANCH  10  11
ATOM     11  C   UNL d   1     -40.346  14.776  18.350  0.00  0.00     0.101 A 
ATOM     12  O   UNL d   1     -40.813  15.448  18.167  0.00  0.00    -0.305 OA
ATOM     13  C   UNL d   1     -40.380  15.909  17.622  0.00  0.00     0.123 A 
ATOM     14  C   UNL d   1     -39.687  15.555  17.469  0.00  0.00     0.029 A 
ATOM     15  C   UNL d   1     -39.655  14.861  17.908  0.00  0.00     0.027 A 
ENDBRANCH  10  11
ENDBRANCH   7  10
ENDBRANCH   2   3
ENDBRANCH   1   2
BRANCH   1  16
ATOM     16  C   UNL d   1     -43.267  12.944  21.635  0.00  0.00     0.064 C 
BRANCH  16  17
ATOM     17  C   UNL d   1     -43.375  12.228  21.997  0.00  0.00     0.279 C 
ATOM     18  N   UNL d   1     -44.096  12.034  22.349  0.00  0.00    -0.208 NA
ATOM     19  O   UNL d   1     -42.752  11.676  22.015  0.00  0.00    -0.265 OA
BRANCH  18  20
ATOM     20  C   UNL d   1     -44.730  12.589  22.332  0.00  0.00     0.085 A 
ATOM     21  C   UNL d   1     -45.412  12.423  22.754  0.00  0.00     0.018 A 
ATOM     22  C   UNL d   1     -46.044  12.963  22.745  0.00  0.00     0.002 A 
ATOM     23  C   UNL d   1     -45.469  11.721  23.184  0.00  0.00     0.002 A 
ATOM     24  C   UNL d   1     -46.727  12.802  23.164  0.00  0.00     0.000 A 
ATOM     25  C   UNL d   1     -45.980  13.672  22.307  0.00  0.00     0.000 A 
ATOM     26  C   UNL d   1     -46.800  12.101  23.602  0.00  0.00     0.000 A 
ATOM     27  C   UNL d   1     -46.163  11.555  23.611  0.00  0.00     0.000 A 
ATOM     28  C   UNL d   1     -45.303  13.834  21.891  0.00  0.00     0.002 A 
ATOM     29  C   UNL d   1     -44.673  13.291  21.902  0.00  0.00     0.019 A 
ENDBRANCH  18  20
ENDBRANCH  16  17
ENDBRANCH   1  16
TORSDOF 7
ENDMDL
MODEL 5
REMARK VINA RESULT:      -3.9      1.761      2.739
REMARK  7 active torsions:
REMARK  status: ('A' for Active; 'I' for Inactive)
REMARK    1  A    between atoms: C_19  and  N_1 
REMARK    2  A    between atoms: C_6  and  C_3 
REMARK    3  A    between atoms: C_9  and  C_6 
REMARK    4  A    between atoms: C_7  and  N_8 
REMARK       I    between atoms: N_8  and  C_11 
REMARK    5  A    between atoms: C_11  and  C_23 
REMARK    6  A    between atoms: C_22  and  C_19 
REMARK    7  A    between atoms: C_23  and  C_22 
ROOT
ATOM      1  C   UNL d   1     -45.410  12.979  22.657  0.00  0.00     0.024 C 
ENDROOT
BRANCH   1   2
ATOM      2  C   UNL d   1     -45.003  12.333  22.385  0.00  0.00     0.084 C 
BRANCH   2   3
ATOM      3  N   UNL d   1     -44.237  12.384  22.082  0.00  0.00    -0.259 N 
ATOM      4  C   UNL d   1     -43.599  11.911  22.332  0.00  0.00     0.153 A 
ATOM      5  S   UNL d   1     -42.946  12.144  21.888  0.00  0.00    -0.053 SA
ATOM      6  S   UNL d   1     -43.626  11.319  22.918  0.00  0.00    -0.052 SA
ATOM      7  C   UNL d   1     -43.137  12.742  21.368  0.00  0.00     0.090 A 
ATOM      8  C   UNL d   1     -43.935  12.888  21.491  0.00  0.00     0.272 A 
ATOM      9  O   UNL d   1     -44.377  13.474  21.066  0.00  0.00    -0.266 OA
BRANCH   7  10
ATOM     10  C   UNL d   1     -42.624  13.125  20.826  0.00  0.00     0.036 C 
BRANCH  10  11
ATOM     11  C   UNL d   1     -41.930  13.482  21.075  0.00  0.00     0.101 A 
ATOM     12  O   UNL d   1     -41.372  13.323  21.680  0.00  0.00    -0.305 OA
ATOM     13  C   UNL d   1     -40.782  13.912  21.635  0.00  0.00     0.123 A 
ATOM     14  C   UNL d   1     -40.955  14.411  21.043  0.00  0.00     0.029 A 
ATOM     15  C   UNL d   1     -41.654  14.158  20.694  0.00  0.00     0.027 A 
ENDBRANCH  10  11
ENDBRANCH   7  10
ENDBRANCH   2   3
ENDBRANCH   1   2
BRANCH   1  16
ATOM     16  C   UNL d   1     -46.219  12.938  22.891  0.00  0.00     0.064 C 
BRANCH  16  17
ATOM     17  C   UNL d   1     -46.621  13.581  23.175  0.00  0.00     0.279 C 
ATOM     18  N   UNL d   1     -47.443  13.570  23.248  0.00  0.00    -0.208 NA
ATOM     19  O   UNL d   1     -46.202  14.264  23.399  0.00  0.00    -0.265 OA
BRANCH  18  20
ATOM     20  C   UNL d   1     -47.871  12.880  23.022  0.00  0.00     0.085 A 
ATOM     21  C   UNL d   1     -48.509  12.959  22.514  0.00  0.00     0.018 A 
ATOM     22  C   UNL d   1     -48.939  12.286  22.284  0.00  0.00     0.002 A 
ATOM     23  C   UNL d   1     -48.721  13.705  22.233  0.00  0.00     0.002 A 
ATOM     24  C   UNL d   1     -49.576  12.359  21.777  0.00  0.00     0.000 A 
ATOM     25  C   UNL d   1     -48.719  11.533  22.572  0.00  0.00     0.000 A 
ATOM     26  C   UNL d   1     -49.802  13.103  21.486  0.00  0.00     0.000 A 
ATOM     27  C   UNL d   1     -49.368  13.783  21.718  0.00  0.00     0.000 A 
ATOM     28  C   UNL d   1     -48.087  11.457  23.075  0.00  0.00     0.002 A 
ATOM     29  C   UNL d   1     -47.659  12.133  23.302  0.00  0.00     0.019 A 
ENDBRANCH  18  20
ENDBRANCH  16  17
ENDBRANCH   1  16
TORSDOF 7
ENDMDL
MODEL 6
REMARK VINA RESULT:      -3.3      1.935      6.696
REMARK  7 active torsions:
REMARK  status: ('A' for Active; 'I' for Inactive)
REMARK    1  A    between atoms: C_19  and  N_1 
REMARK    2  A    between atoms: C_6  and  C_3 
REMARK    3  A    between atoms: C_9  and  C_6 
REMARK    4  A    between atoms: C_7  and  N_8 
REMARK       I    between atoms: N_8  and  C_11 
REMARK    5  A    between atoms: C_11  and  C_23 
REMARK    6  A    between atoms: C_22  and  C_19 
REMARK    7  A    between atoms: C_23  and  C_22 
ROOT
ATOM      1  C   UNL d   1     -44.247  13.178  21.758  0.00  0.00     0.024 C 
ENDROOT
BRANCH   1   2
ATOM      2  C   UNL d   1     -44.611  13.502  22.405  0.00  0.00     0.084 C 
BRANCH   2   3
ATOM      3  N   UNL d   1     -45.384  13.312  22.625  0.00  0.00    -0.259 N 
ATOM      4  C   UNL d   1     -46.036  13.824  22.546  0.00  0.00     0.153 A 
ATOM      5  S   UNL d   1     -46.691  13.414  22.830  0.00  0.00    -0.053 SA
ATOM      6  S   UNL d   1     -46.019  14.598  22.237  0.00  0.00    -0.052 SA
ATOM      7  C   UNL d   1     -46.488  12.668  23.086  0.00  0.00     0.090 A 
ATOM      8  C   UNL d   1     -45.680  12.608  22.958  0.00  0.00     0.272 A 
ATOM      9  O   UNL d   1     -45.223  11.918  23.144  0.00  0.00    -0.266 OA
BRANCH   7  10
ATOM     10  C   UNL d   1     -47.000  12.087  23.410  0.00  0.00     0.036 C 
BRANCH  10  11
ATOM     11  C   UNL d   1     -47.754  11.972  23.114  0.00  0.00     0.101 A 
ATOM     12  O   UNL d   1     -48.084  11.932  22.344  0.00  0.00    -0.305 OA
ATOM     13  C   UNL d   1     -48.904  11.800  22.431  0.00  0.00     0.123 A 
ATOM     14  C   UNL d   1     -49.082  11.758  23.203  0.00  0.00     0.029 A 
ATOM     15  C   UNL d   1     -48.388  11.862  23.629  0.00  0.00     0.027 A 
ENDBRANCH  10  11
ENDBRANCH   7  10
ENDBRANCH   2   3
ENDBRANCH   1   2
BRANCH   1  16
ATOM     16  C   UNL d   1     -43.469  13.397  21.520  0.00  0.00     0.064 C 
BRANCH  16  17
ATOM     17  C   UNL d   1     -42.902  12.850  21.333  0.00  0.00     0.279 C 
ATOM     18  N   UNL d   1     -42.147  13.084  21.098  0.00  0.00    -0.208 NA
ATOM     19  O   UNL d   1     -43.081  12.039  21.378  0.00  0.00    -0.265 OA
BRANCH  18  20
ATOM     20  C   UNL d   1     -41.961  13.905  21.051  0.00  0.00     0.085 A 
ATOM     21  C   UNL d   1     -41.189  14.144  21.183  0.00  0.00     0.018 A 
ATOM     22  C   UNL d   1     -40.993  14.950  21.140  0.00  0.00     0.002 A 
ATOM     23  C   UNL d   1     -40.609  13.583  21.358  0.00  0.00     0.002 A 
ATOM     24  C   UNL d   1     -40.225  15.194  21.270  0.00  0.00     0.000 A 
ATOM     25  C   UNL d   1     -41.585  15.513  20.962  0.00  0.00     0.000 A 
ATOM     26  C   UNL d   1     -39.630  14.643  21.447  0.00  0.00     0.000 A 
ATOM     27  C   UNL d   1     -39.826  13.828  21.491  0.00  0.00     0.000 A 
ATOM     28  C   UNL d   1     -42.349  15.274  20.831  0.00  0.00     0.002 A 
ATOM     29  C   UNL d   1     -42.540  14.466  20.876  0.00  0.00     0.019 A 
ENDBRANCH  18  20
ENDBRANCH  16  17
ENDBRANCH   1  16
TORSDOF 7
ENDMDL
MODEL 7
REMARK VINA RESULT:      -3.1      1.800      5.900
REMARK  7 active torsions:
REMARK  status: ('A' for Active; 'I' for Inactive)
REMARK    1  A    between atoms: C_19  and  N_1 
REMARK    2  A    between atoms: C_6  and  C_3 
REMARK    3  A    between atoms: C_9  and  C_6 
REMARK    4  A    between atoms: C_7  and  N_8 
REMARK       I    between atoms: N_8  and  C_11 
REMARK    5  A    between atoms: C_11  and  C_23 
REMARK    6  A    between atoms: C_22  and  C_19 
REMARK    7  A    between atoms: C_23  and  C_22 
ROOT
ATOM      1  C   UNL d   1     -47.367  12.801  23.146  0.00  0.00     0.024 C 
ENDROOT
BRANCH   1   2
ATOM      2  C   UNL d   1     -47.931  12.520  23.655  0.00  0.00     0.084 C 
BRANCH   2   3
ATOM      3  N   UNL d   1     -48.736  12.681  23.563  0.00  0.00    -0.259 N 
ATOM      4  C   UNL d   1     -49.333  12.101  23.541  0.00  0.00     0.153 A 
ATOM      5  S   UNL d   1     -50.045  12.502  23.442  0.00  0.00    -0.053 SA
ATOM      6  S   UNL d   1     -49.221  11.278  23.607  0.00  0.00    -0.052 SA
ATOM      7  C   UNL d   1     -49.930  13.307  23.401  0.00  0.00     0.090 A 
ATOM      8  C   UNL d   1     -49.121  13.414  23.476  0.00  0.00     0.272 A 
ATOM      9  O   UNL d   1     -48.743  14.174  23.464  0.00  0.00    -0.266 OA
BRANCH   7  10
ATOM     10  C   UNL d   1     -50.518  13.898  23.302  0.00  0.00     0.036 C 
BRANCH  10  11
ATOM     11  C   UNL d   1     -50.694  14.204  22.563  0.00  0.00     0.101 A 
ATOM     12  O   UNL d   1     -50.709  13.890  21.785  0.00  0.00    -0.305 OA
ATOM     13  C   UNL d   1     -50.940  14.508  21.273  0.00  0.00     0.123 A 
ATOM     14  C   UNL d   1     -51.064  15.167  21.696  0.00  0.00     0.029 A 
ATOM     15  C   UNL d   1     -50.917  14.994  22.485  0.00  0.00     0.027 A 
ENDBRANCH  10  11
ENDBRANCH   7  10
ENDBRANCH   2   3
ENDBRANCH   1   2
BRANCH   1  16
ATOM     16  C   UNL d   1     -46.570  12.528  23.159  0.00  0.00     0.064 C 
BRANCH  16  17
ATOM     17  C   UNL d   1     -45.996  12.843  22.683  0.00  0.00     0.279 C 
ATOM     18  N   UNL d   1     -45.281  12.449  22.562  0.00  0.00    -0.208 NA
ATOM     19  O   UNL d   1     -46.126  13.574  22.309  0.00  0.00    -0.265 OA
BRANCH  18  20
ATOM     20  C   UNL d   1     -45.145  11.707  22.939  0.00  0.00     0.085 A 
ATOM     21  C   UNL d   1     -44.389  11.393  22.932  0.00  0.00     0.018 A 
ATOM     22  C   UNL d   1     -44.243  10.663  23.301  0.00  0.00     0.002 A 
ATOM     23  C   UNL d   1     -43.777  11.802  22.560  0.00  0.00     0.002 A 
ATOM     24  C   UNL d   1     -43.490  10.344  23.297  0.00  0.00     0.000 A 
ATOM     25  C   UNL d   1     -44.867  10.253  23.677  0.00  0.00     0.000 A 
ATOM     26  C   UNL d   1     -42.864  10.743  22.927  0.00  0.00     0.000 A 
ATOM     27  C   UNL d   1     -43.010  11.480  22.554  0.00  0.00     0.000 A 
ATOM     28  C   UNL d   1     -45.615  10.567  23.682  0.00  0.00     0.002 A 
ATOM     29  C   UNL d   1     -45.757  11.298  23.312  0.00  0.00     0.019 A 
ENDBRANCH  18  20
ENDBRANCH  16  17
ENDBRANCH   1  16
TORSDOF 7
ENDMDL
