MODEL 1
REMARK VINA RESULT:       3.1      0.000      0.000
REMARK  2 active torsions:
REMARK  status: ('A' for Active; 'I' for Inactive)
REMARK    1  A    between atoms: C_2  and  P_1 
REMARK    2  A    between atoms: C_7  and  C_2 
ROOT
ATOM      1  C   UNL d   1     -55.258-102.281 -36.632  0.00  0.00     0.194 C 
ATOM      2  N   UNL d   1     -55.827-102.880 -36.533  0.00  0.00    -0.138 N 
ENDROOT
BRANCH   1   3
ATOM      3  P   UNL d   1     -54.982-102.118 -37.403  0.00  0.00     0.317 P 
ATOM      4  O   UNL d   1     -54.715-101.965 -38.157  0.00  0.00    -0.635 OA
ATOM      5  O   UNL d   1     -55.257-102.880 -37.640  0.00  0.00    -0.635 OA
ATOM      6  O   UNL d   1     -54.711-101.365 -37.166  0.00  0.00    -0.635 OA
ENDBRANCH   1   3
BRANCH   1   7
ATOM      7  C   UNL d   1     -54.973-101.860 -35.981  0.00  0.00     0.029 C 
ATOM      8  C   UNL d   1     -54.713-102.259 -35.317  0.00  0.00     0.002 C 
ATOM      9  C   UNL d   1     -54.955-101.035 -36.010  0.00  0.00     0.002 C 
ENDBRANCH   1   7
TORSDOF 2
ENDMDL
