MODEL 1
REMARK VINA RESULT:      -0.1      0.000      0.000
REMARK  8 active torsions:
REMARK  status: ('A' for Active; 'I' for Inactive)
REMARK    1  A    between atoms: C_25  and  N_5 
REMARK    2  A    between atoms: C_11  and  C_6 
REMARK       I    between atoms: N_15  and  C_11 
REMARK    3  A    between atoms: C_26  and  N_15 
REMARK    4  A    between atoms: C_17  and  C_26 
REMARK    5  A    between atoms: C_30  and  C_25 
REMARK    6  A    between atoms: O_29  and  C_30 
REMARK    7  A    between atoms: C_32  and  O_29 
REMARK    8  A    between atoms: C_31  and  C_32 
ROOT
ATOM      1  C   UNL d   1      32.995  21.577 -21.978  0.00  0.00     0.155 A 
ATOM      2  C   UNL d   1      32.832  21.246 -21.240  0.00  0.00     0.091 A 
ATOM      3  N   UNL d   1      33.077  21.086 -22.642  0.00  0.00    -0.210 NA
ATOM      4  N   UNL d   1      32.833  19.939 -21.827  0.00  0.00    -0.258 N 
ATOM      5  N   UNL d   1      33.077  22.386 -22.059  0.00  0.00    -0.272 N 
ATOM      6  C   UNL d   1      32.834  22.556 -20.667  0.00  0.00     0.094 A 
ATOM      7  C   UNL d   1      32.996  20.270 -22.565  0.00  0.00     0.152 A 
ATOM      8  C   UNL d   1      32.750  20.422 -21.162  0.00  0.00     0.269 A 
ATOM      9  C   UNL d   1      32.997  22.887 -21.405  0.00  0.00     0.175 A 
ATOM     10  C   UNL d   1      32.750  21.735 -20.579  0.00  0.00     0.016 A 
ATOM     11  C   UNL d   1      33.078  19.786 -23.225  0.00  0.00     0.035 A 
ATOM     12  C   UNL d   1      32.749  19.119 -21.738  0.00  0.00     0.084 A 
ATOM     13  N   UNL d   1      33.078  23.702 -21.482  0.00  0.00    -0.128 N 
ATOM     14  O   UNL d   1      32.585  20.095 -20.414  0.00  0.00    -0.266 OA
ATOM     15  C   UNL d   1      32.834  18.638 -22.410  0.00  0.00     0.019 A 
ATOM     16  C   UNL d   1      32.997  18.969 -23.148  0.00  0.00     0.005 A 
ATOM     17  C   UNL d   1      33.240  20.115 -23.959  0.00  0.00     0.003 C 
ENDROOT
BRANCH   6  18
ATOM     18  C   UNL d   1      32.752  23.052 -20.001  0.00  0.00     0.282 C 
ATOM     19  N   UNL d   1      33.187  22.894 -19.320  0.00  0.00    -0.204 NA
ATOM     20  O   UNL d   1      32.236  23.695 -20.032  0.00  0.00    -0.265 OA
BRANCH  19  21
ATOM     21  C   UNL d   1      33.107  23.384 -18.661  0.00  0.00     0.127 C 
BRANCH  21  22
ATOM     22  C   UNL d   1      33.150  23.070 -17.902  0.00  0.00     0.119 A 
ATOM     23  O   UNL d   1      33.212  23.503 -17.203  0.00  0.00    -0.304 OA
ATOM     24  C   UNL d   1      33.240  22.973 -16.571  0.00  0.00     0.123 A 
ATOM     25  C   UNL d   1      33.195  22.207 -16.878  0.00  0.00     0.029 A 
ATOM     26  C   UNL d   1      33.139  22.275 -17.706  0.00  0.00     0.028 A 
ENDBRANCH  21  22
ENDBRANCH  19  21
ENDBRANCH   6  18
BRANCH   5  27
ATOM     27  C   UNL d   1      33.240  22.717 -22.797  0.00  0.00     0.110 C 
BRANCH  27  28
ATOM     28  C   UNL d   1      32.730  23.285 -23.116  0.00  0.00     0.142 C 
BRANCH  28  29
ATOM     29  O   UNL d   1      32.220  23.090 -23.734  0.00  0.00    -0.298 OA
BRANCH  29  30
ATOM     30  C   UNL d   1      32.231  23.536 -24.425  0.00  0.00     0.168 C 
BRANCH  30  31
ATOM     31  C   UNL d   1      31.549  23.611 -24.888  0.00  0.00     0.261 C 
ATOM     32  O   UNL d   1      30.813  23.672 -24.521  0.00  0.00    -0.281 OA
ENDBRANCH  30  31
ENDBRANCH  29  30
ENDBRANCH  28  29
ENDBRANCH  27  28
ENDBRANCH   5  27
TORSDOF 8
ENDMDL
