MODEL 1
REMARK VINA RESULT:      -3.3      0.000      0.000
REMARK  6 active torsions:
REMARK  status: ('A' for Active; 'I' for Inactive)
REMARK    1  A    between atoms: C_8  and  C_1 
REMARK    2  A    between atoms: C_6  and  O_10 
REMARK    3  A    between atoms: C_7  and  C_6 
REMARK    4  A    between atoms: C_18  and  C_8 
REMARK    5  A    between atoms: O_10  and  C_12 
REMARK    6  A    between atoms: O_20  and  C_13 
ROOT
ATOM      1  C   UNL d   1      30.706  17.024 -24.478  0.00  0.00     0.139 A 
ATOM      2  C   UNL d   1      32.002  17.136 -24.172  0.00  0.00     0.064 A 
ATOM      3  C   UNL d   1      31.455  16.697 -24.611  0.00  0.00     0.220 A 
ATOM      4  C   UNL d   1      31.597  17.732 -23.768  0.00  0.00     0.105 A 
ATOM      5  O   UNL d   1      30.794  17.663 -23.958  0.00  0.00    -0.304 OA
ATOM      6  C   UNL d   1      32.014  18.251 -23.288  0.00  0.00     0.050 A 
ATOM      7  C   UNL d   1      32.821  17.064 -24.091  0.00  0.00     0.007 A 
ATOM      8  C   UNL d   1      32.824  18.177 -23.210  0.00  0.00     0.105 A 
ATOM      9  O   UNL d   1      31.620  16.050 -25.095  0.00  0.00    -0.284 OA
ATOM     10  C   UNL d   1      33.233  17.590 -23.607  0.00  0.00     0.025 A 
ENDROOT
BRANCH   8  11
ATOM     11  O   UNL d   1      33.236  18.702 -22.726  0.00  0.00    -0.273 OA
BRANCH  11  12
ATOM     12  C   UNL d   1      33.221  19.517 -22.875  0.00  0.00     0.302 C 
ATOM     13  O   UNL d   1      33.225  19.785 -23.657  0.00  0.00    -0.259 OA
BRANCH  12  14
ATOM     14  C   UNL d   1      33.201  20.062 -22.261  0.00  0.00     0.086 A 
ATOM     15  C   UNL d   1      33.140  20.877 -22.435  0.00  0.00     0.099 A 
ATOM     16  C   UNL d   1      33.120  21.420 -21.821  0.00  0.00     0.024 A 
ATOM     17  C   UNL d   1      33.160  21.175 -21.039  0.00  0.00     0.002 A 
ATOM     18  C   UNL d   1      33.221  20.356 -20.865  0.00  0.00     0.000 A 
ATOM     19  C   UNL d   1      33.241  19.808 -21.478  0.00  0.00     0.007 A 
BRANCH  15  20
ATOM     20  O   UNL d   1      33.101  21.116 -23.224  0.00  0.00    -0.328 OA
ATOM     21  C   UNL d   1      33.241  21.910 -23.410  0.00  0.00     0.181 C 
ENDBRANCH  15  20
ENDBRANCH  12  14
ENDBRANCH  11  12
ENDBRANCH   8  11
BRANCH   1  22
ATOM     22  C   UNL d   1      29.994  16.761 -24.805  0.00  0.00     0.028 C 
BRANCH  22  23
ATOM     23  C   UNL d   1      29.324  16.671 -24.329  0.00  0.00     0.005 A 
ATOM     24  C   UNL d   1      28.792  17.293 -24.259  0.00  0.00     0.021 A 
ATOM     25  C   UNL d   1      28.123  17.211 -23.787  0.00  0.00     0.099 A 
ATOM     26  N   UNL d   1      27.984  16.500 -23.381  0.00  0.00    -0.242 NA
ATOM     27  C   UNL d   1      28.523  15.874 -23.454  0.00  0.00     0.099 A 
ATOM     28  C   UNL d   1      29.193  15.964 -23.930  0.00  0.00     0.021 A 
ENDBRANCH  22  23
ENDBRANCH   1  22
TORSDOF 6
ENDMDL
MODEL 2
REMARK VINA RESULT:      -1.8      2.218      5.495
REMARK  6 active torsions:
REMARK  status: ('A' for Active; 'I' for Inactive)
REMARK    1  A    between atoms: C_8  and  C_1 
REMARK    2  A    between atoms: C_6  and  O_10 
REMARK    3  A    between atoms: C_7  and  C_6 
REMARK    4  A    between atoms: C_18  and  C_8 
REMARK    5  A    between atoms: O_10  and  C_12 
REMARK    6  A    between atoms: O_20  and  C_13 
ROOT
ATOM      1  C   UNL d   1      33.149  21.980 -21.828  0.00  0.00     0.139 A 
ATOM      2  C   UNL d   1      33.193  21.066 -22.802  0.00  0.00     0.064 A 
ATOM      3  C   UNL d   1      33.174  21.879 -22.649  0.00  0.00     0.220 A 
ATOM      4  C   UNL d   1      33.181  20.663 -22.081  0.00  0.00     0.105 A 
ATOM      5  O   UNL d   1      33.154  21.229 -21.478  0.00  0.00    -0.304 OA
ATOM      6  C   UNL d   1      33.196  19.842 -22.075  0.00  0.00     0.050 A 
ATOM      7  C   UNL d   1      33.221  20.645 -23.511  0.00  0.00     0.007 A 
ATOM      8  C   UNL d   1      33.224  19.428 -22.779  0.00  0.00     0.105 A 
ATOM      9  O   UNL d   1      33.178  22.485 -23.210  0.00  0.00    -0.284 OA
ATOM     10  C   UNL d   1      33.236  19.819 -23.498  0.00  0.00     0.025 A 
ENDROOT
BRANCH   8  11
ATOM     11  O   UNL d   1      33.239  18.604 -22.766  0.00  0.00    -0.273 OA
BRANCH  11  12
ATOM     12  C   UNL d   1      32.705  18.164 -23.223  0.00  0.00     0.302 C 
ATOM     13  O   UNL d   1      32.168  18.560 -23.710  0.00  0.00    -0.259 OA
BRANCH  12  14
ATOM     14  C   UNL d   1      32.702  17.343 -23.200  0.00  0.00     0.086 A 
ATOM     15  C   UNL d   1      32.148  16.920 -23.661  0.00  0.00     0.099 A 
ATOM     16  C   UNL d   1      32.145  16.101 -23.637  0.00  0.00     0.024 A 
ATOM     17  C   UNL d   1      32.678  15.690 -23.168  0.00  0.00     0.002 A 
ATOM     18  C   UNL d   1      33.235  16.115 -22.705  0.00  0.00     0.000 A 
ATOM     19  C   UNL d   1      33.241  16.938 -22.726  0.00  0.00     0.007 A 
BRANCH  15  20
ATOM     20  O   UNL d   1      31.614  17.340 -24.131  0.00  0.00    -0.328 OA
ATOM     21  C   UNL d   1      31.480  17.089 -24.907  0.00  0.00     0.181 C 
ENDBRANCH  15  20
ENDBRANCH  12  14
ENDBRANCH  11  12
ENDBRANCH   8  11
BRANCH   1  22
ATOM     22  C   UNL d   1      33.125  22.701 -21.426  0.00  0.00     0.028 C 
BRANCH  22  23
ATOM     23  C   UNL d   1      32.769  22.752 -20.680  0.00  0.00     0.005 A 
ATOM     24  C   UNL d   1      31.951  22.778 -20.625  0.00  0.00     0.021 A 
ATOM     25  C   UNL d   1      31.590  22.829 -19.887  0.00  0.00     0.099 A 
ATOM     26  N   UNL d   1      32.053  22.854 -19.197  0.00  0.00    -0.242 NA
ATOM     27  C   UNL d   1      32.879  22.827 -19.258  0.00  0.00     0.099 A 
ATOM     28  C   UNL d   1      33.234  22.776 -20.003  0.00  0.00     0.021 A 
ENDBRANCH  22  23
ENDBRANCH   1  22
TORSDOF 6
ENDMDL
MODEL 3
REMARK VINA RESULT:      -1.3      3.249      6.541
REMARK  6 active torsions:
REMARK  status: ('A' for Active; 'I' for Inactive)
REMARK    1  A    between atoms: C_8  and  C_1 
REMARK    2  A    between atoms: C_6  and  O_10 
REMARK    3  A    between atoms: C_7  and  C_6 
REMARK    4  A    between atoms: C_18  and  C_8 
REMARK    5  A    between atoms: O_10  and  C_12 
REMARK    6  A    between atoms: O_20  and  C_13 
ROOT
ATOM      1  C   UNL d   1      32.708  22.983 -19.169  0.00  0.00     0.139 A 
ATOM      2  C   UNL d   1      32.447  22.409 -20.348  0.00  0.00     0.064 A 
ATOM      3  C   UNL d   1      32.279  23.066 -19.872  0.00  0.00     0.220 A 
ATOM      4  C   UNL d   1      32.976  21.921 -19.944  0.00  0.00     0.105 A 
ATOM      5  O   UNL d   1      33.138  22.276 -19.214  0.00  0.00    -0.304 OA
ATOM      6  C   UNL d   1      33.235  21.226 -20.295  0.00  0.00     0.050 A 
ATOM      7  C   UNL d   1      32.180  22.198 -21.100  0.00  0.00     0.007 A 
ATOM      8  C   UNL d   1      32.968  21.020 -21.040  0.00  0.00     0.105 A 
ATOM      9  O   UNL d   1      31.776  23.693 -20.060  0.00  0.00    -0.284 OA
ATOM     10  C   UNL d   1      32.444  21.498 -21.447  0.00  0.00     0.025 A 
ENDROOT
BRANCH   8  11
ATOM     11  O   UNL d   1      33.232  20.320 -21.387  0.00  0.00    -0.273 OA
BRANCH  11  12
ATOM     12  C   UNL d   1      33.127  20.184 -22.198  0.00  0.00     0.302 C 
ATOM     13  O   UNL d   1      33.030  20.829 -22.706  0.00  0.00    -0.259 OA
BRANCH  12  14
ATOM     14  C   UNL d   1      33.117  19.423 -22.504  0.00  0.00     0.086 A 
ATOM     15  C   UNL d   1      33.120  19.311 -23.333  0.00  0.00     0.099 A 
ATOM     16  C   UNL d   1      33.110  18.550 -23.638  0.00  0.00     0.024 A 
ATOM     17  C   UNL d   1      33.098  17.897 -23.142  0.00  0.00     0.002 A 
ATOM     18  C   UNL d   1      33.095  18.009 -22.309  0.00  0.00     0.000 A 
ATOM     19  C   UNL d   1      33.105  18.771 -22.000  0.00  0.00     0.007 A 
BRANCH  15  20
ATOM     20  O   UNL d   1      33.132  19.974 -23.826  0.00  0.00    -0.328 OA
ATOM     21  C   UNL d   1      32.976  19.876 -24.632  0.00  0.00     0.181 C 
ENDBRANCH  15  20
ENDBRANCH  12  14
ENDBRANCH  11  12
ENDBRANCH   8  11
BRANCH   1  22
ATOM     22  C   UNL d   1      32.710  23.510 -18.533  0.00  0.00     0.028 C 
BRANCH  22  23
ATOM     23  C   UNL d   1      32.652  23.230 -17.757  0.00  0.00     0.005 A 
ATOM     24  C   UNL d   1      32.050  23.505 -17.272  0.00  0.00     0.021 A 
ATOM     25  C   UNL d   1      31.987  23.230 -16.499  0.00  0.00     0.099 A 
ATOM     26  N   UNL d   1      32.531  22.674 -16.208  0.00  0.00    -0.242 NA
ATOM     27  C   UNL d   1      33.138  22.399 -16.702  0.00  0.00     0.099 A 
ATOM     28  C   UNL d   1      33.195  22.679 -17.477  0.00  0.00     0.021 A 
ENDBRANCH  22  23
ENDBRANCH   1  22
TORSDOF 6
ENDMDL
