MODEL 1
REMARK VINA RESULT:      32.4      0.000      0.000
REMARK  4 active torsions:
REMARK  status: ('A' for Active; 'I' for Inactive)
REMARK    1  A    between atoms: S_2  and  C_1 
REMARK    2  A    between atoms: C_7  and  S_2 
REMARK    3  A    between atoms: O_13  and  C_6 
REMARK    4  A    between atoms: C_17  and  O_13 
ROOT
ATOM      1  S   UNL d   1      59.180  49.651  51.019  0.00  0.00     0.228 S 
ATOM      2  O   UNL d   1      59.388  49.708  50.238  0.00  0.00    -0.216 OA
ATOM      3  O   UNL d   1      58.902  49.593  51.797  0.00  0.00    -0.216 OA
ENDROOT
BRANCH   1   4
ATOM      4  C   UNL d   1      59.931  49.656  51.263  0.00  0.00     0.188 A 
ATOM      5  N   UNL d   1      60.262  49.697  52.012  0.00  0.00    -0.203 NA
ATOM      6  C   UNL d   1      61.090  49.679  51.900  0.00  0.00     0.217 A 
ATOM      7  S   UNL d   1      61.250  49.631  51.143  0.00  0.00    -0.029 SA
ATOM      8  C   UNL d   1      60.547  49.615  50.722  0.00  0.00     0.119 A 
ATOM      9 CL   UNL d   1      60.459  49.566  49.885  0.00  0.00    -0.073 Cl
BRANCH   6  10
ATOM     10  O   UNL d   1      61.685  49.708  52.514  0.00  0.00    -0.282 OA
BRANCH  10  11
ATOM     11  C   UNL d   1      61.665  49.200  53.140  0.00  0.00     0.125 C 
ATOM     12  C   UNL d   1      62.188  49.291  53.759  0.00  0.00     0.029 C 
ENDBRANCH  10  11
ENDBRANCH   6  10
ENDBRANCH   1   4
BRANCH   1  13
ATOM     13  C   UNL d   1      58.363  49.645  50.765  0.00  0.00     0.089 A 
ATOM     14  C   UNL d   1      57.731  49.679  51.312  0.00  0.00     0.011 A 
ATOM     15  C   UNL d   1      56.963  49.673  51.059  0.00  0.00     0.001 A 
ATOM     16  C   UNL d   1      56.821  49.633  50.247  0.00  0.00     0.000 A 
ATOM     17  C   UNL d   1      57.418  49.600  49.715  0.00  0.00     0.001 A 
ATOM     18  C   UNL d   1      56.034  49.625  49.954  0.00  0.00     0.000 C 
ATOM     19  C   UNL d   1      58.214  49.605  49.951  0.00  0.00     0.011 A 
ENDBRANCH   1  13
TORSDOF 4
ENDMDL
