MODEL 1
REMARK VINA RESULT:      -1.6      0.000      0.000
REMARK  4 active torsions:
REMARK  status: ('A' for Active; 'I' for Inactive)
REMARK    1  A    between atoms: N_5  and  S_1 
REMARK    2  A    between atoms: C_8  and  S_1 
REMARK    3  A    between atoms: C_18  and  N_2 
REMARK    4  A    between atoms: C_10  and  N_5 
ROOT
ATOM      1  N   UNL d   1      32.831  22.222 -22.075  0.00  0.00    -0.273 N 
ATOM      2  C   UNL d   1      32.991  21.986 -21.300  0.00  0.00     0.265 A 
ATOM      3  C   UNL d   1      32.792  21.548 -22.569  0.00  0.00     0.067 A 
ATOM      4  C   UNL d   1      32.933  20.886 -22.079  0.00  0.00     0.021 A 
ATOM      5  C   UNL d   1      33.054  21.147 -21.310  0.00  0.00     0.058 A 
ATOM      6  C   UNL d   1      32.841  19.838 -23.022  0.00  0.00     0.105 A 
ATOM      7  C   UNL d   1      32.961  20.104 -22.252  0.00  0.00     0.014 A 
ATOM      8  C   UNL d   1      32.654  21.458 -23.364  0.00  0.00     0.018 A 
ATOM      9  C   UNL d   1      32.694  20.351 -23.607  0.00  0.00     0.014 A 
ATOM     10  O   UNL d   1      33.071  22.511 -20.641  0.00  0.00    -0.267 OA
ATOM     11  C   UNL d   1      33.203  20.627 -20.713  0.00  0.00     0.005 A 
ATOM     12  C   UNL d   1      33.115  19.548 -21.647  0.00  0.00     0.001 A 
ATOM     13  C   UNL d   1      33.240  19.777 -20.869  0.00  0.00     0.000 A 
ENDROOT
BRANCH   6  14
ATOM     14  S   UNL d   1      32.873  19.035 -23.184  0.00  0.00     0.287 S 
ATOM     15  O   UNL d   1      32.520  18.860 -22.464  0.00  0.00    -0.198 OA
ATOM     16  O   UNL d   1      33.240  19.176 -23.938  0.00  0.00    -0.198 OA
BRANCH  14  17
ATOM     17  N   UNL d   1      32.906  18.216 -23.349  0.00  0.00    -0.139 NA
BRANCH  17  18
ATOM     18  C   UNL d   1      32.294  17.813 -23.710  0.00  0.00     0.174 A 
ATOM     19  N   UNL d   1      31.711  18.279 -24.082  0.00  0.00    -0.225 NA
ATOM     20  C   UNL d   1      31.077  17.917 -24.459  0.00  0.00     0.101 A 
ATOM     21  C   UNL d   1      31.025  17.083 -24.463  0.00  0.00     0.021 A 
ATOM     22  C   UNL d   1      31.608  16.611 -24.091  0.00  0.00     0.005 A 
ATOM     23  C   UNL d   1      32.242  16.979 -23.715  0.00  0.00     0.037 A 
ATOM     24  C   UNL d   1      33.089  16.863 -23.193  0.00  0.00     0.003 C 
ENDBRANCH  17  18
ENDBRANCH  14  17
ENDBRANCH   6  14
BRANCH   1  25
ATOM     25  C   UNL d   1      32.728  23.001 -22.311  0.00  0.00     0.083 C 
ATOM     26  C   UNL d   1      32.933  23.600 -21.790  0.00  0.00     0.021 C 
ENDBRANCH   1  25
TORSDOF 4
ENDMDL
MODEL 2
REMARK VINA RESULT:      -1.4      1.216      4.638
REMARK  4 active torsions:
REMARK  status: ('A' for Active; 'I' for Inactive)
REMARK    1  A    between atoms: N_5  and  S_1 
REMARK    2  A    between atoms: C_8  and  S_1 
REMARK    3  A    between atoms: C_18  and  N_2 
REMARK    4  A    between atoms: C_10  and  N_5 
ROOT
ATOM      1  N   UNL d   1      30.733  16.903 -24.637  0.00  0.00    -0.273 N 
ATOM      2  C   UNL d   1      31.221  16.275 -24.414  0.00  0.00     0.265 A 
ATOM      3  C   UNL d   1      31.043  17.618 -24.334  0.00  0.00     0.067 A 
ATOM      4  C   UNL d   1      31.738  17.418 -23.916  0.00  0.00     0.021 A 
ATOM      5  C   UNL d   1      31.849  16.605 -23.962  0.00  0.00     0.058 A 
ATOM      6  C   UNL d   1      32.150  18.692 -23.466  0.00  0.00     0.105 A 
ATOM      7  C   UNL d   1      32.258  17.877 -23.514  0.00  0.00     0.014 A 
ATOM      8  C   UNL d   1      30.792  18.389 -24.384  0.00  0.00     0.018 A 
ATOM      9  C   UNL d   1      31.529  19.037 -23.815  0.00  0.00     0.014 A 
ATOM     10  O   UNL d   1      31.089  15.465 -24.616  0.00  0.00    -0.267 OA
ATOM     11  C   UNL d   1      32.480  16.251 -23.607  0.00  0.00     0.005 A 
ATOM     12  C   UNL d   1      32.919  17.529 -23.139  0.00  0.00     0.001 A 
ATOM     13  C   UNL d   1      33.058  16.721 -23.166  0.00  0.00     0.000 A 
ENDROOT
BRANCH   6  14
ATOM     14  S   UNL d   1      32.690  19.149 -23.052  0.00  0.00     0.287 S 
ATOM     15  O   UNL d   1      32.192  19.174 -22.399  0.00  0.00    -0.198 OA
ATOM     16  O   UNL d   1      33.232  19.147 -23.707  0.00  0.00    -0.198 OA
BRANCH  14  17
ATOM     17  N   UNL d   1      33.241  19.615 -22.629  0.00  0.00    -0.139 NA
BRANCH  17  18
ATOM     18  C   UNL d   1      33.127  20.411 -22.485  0.00  0.00     0.174 A 
ATOM     19  N   UNL d   1      33.160  20.917 -23.146  0.00  0.00    -0.225 NA
ATOM     20  C   UNL d   1      33.051  21.726 -23.048  0.00  0.00     0.101 A 
ATOM     21  C   UNL d   1      32.910  22.030 -22.284  0.00  0.00     0.021 A 
ATOM     22  C   UNL d   1      32.876  21.526 -21.617  0.00  0.00     0.005 A 
ATOM     23  C   UNL d   1      32.986  20.716 -21.719  0.00  0.00     0.037 A 
ATOM     24  C   UNL d   1      33.031  19.814 -21.286  0.00  0.00     0.003 C 
ENDBRANCH  17  18
ENDBRANCH  14  17
ENDBRANCH   6  14
BRANCH   1  25
ATOM     25  C   UNL d   1      30.052  16.824 -25.087  0.00  0.00     0.083 C 
ATOM     26  C   UNL d   1      29.389  16.487 -24.741  0.00  0.00     0.021 C 
ENDBRANCH   1  25
TORSDOF 4
ENDMDL
