MODEL 1
REMARK VINA RESULT:      -1.4      0.000      0.000
REMARK  5 active torsions:
REMARK  status: ('A' for Active; 'I' for Inactive)
REMARK    1  A    between atoms: S_13  and  C_7 
REMARK    2  A    between atoms: C_22  and  C_10 
REMARK    3  A    between atoms: C_11  and  C_16 
REMARK       I    between atoms: N_12  and  C_11 
REMARK    4  A    between atoms: C_16  and  S_13 
REMARK    5  A    between atoms: C_23  and  C_22 
ROOT
ATOM      1  N   UNL d   1      33.217  22.242 -24.313  0.00  0.00    -0.224 N 
ATOM      2  N   UNL d   1      33.214  22.588 -22.919  0.00  0.00    -0.241 N 
ATOM      3  C   UNL d   1      33.212  22.818 -23.710  0.00  0.00     0.343 A 
ATOM      4  C   UNL d   1      33.221  21.783 -22.731  0.00  0.00     0.160 A 
ATOM      5  C   UNL d   1      33.224  21.442 -24.117  0.00  0.00     0.273 A 
ATOM      6  C   UNL d   1      33.226  21.212 -23.328  0.00  0.00     0.115 A 
ATOM      7  C   UNL d   1      33.233  20.412 -23.132  0.00  0.00     0.120 A 
ATOM      8  N   UNL d   1      33.222  21.547 -21.935  0.00  0.00    -0.209 NA
ATOM      9  N   UNL d   1      33.235  20.180 -22.345  0.00  0.00    -0.220 NA
ATOM     10  C   UNL d   1      33.229  20.747 -21.741  0.00  0.00     0.165 A 
ATOM     11  O   UNL d   1      33.205  23.621 -23.907  0.00  0.00    -0.245 OA
ATOM     12  O   UNL d   1      33.230  20.875 -24.717  0.00  0.00    -0.266 OA
ATOM     13  C   UNL d   1      33.216  22.477 -25.097  0.00  0.00     0.107 C 
ATOM     14  C   UNL d   1      33.208  23.158 -22.323  0.00  0.00     0.105 C 
ENDROOT
BRANCH   7  15
ATOM     15  S   UNL d   1      33.238  19.845 -23.731  0.00  0.00    -0.062 SA
BRANCH  15  16
ATOM     16  C   UNL d   1      33.057  19.059 -23.558  0.00  0.00     0.098 C 
BRANCH  16  17
ATOM     17  C   UNL d   1      33.110  18.482 -24.143  0.00  0.00     0.271 C 
ATOM     18  N   UNL d   1      33.099  17.680 -23.933  0.00  0.00    -0.272 N 
ATOM     19  C   UNL d   1      33.159  17.150 -24.614  0.00  0.00     0.083 A 
ATOM     20  C   UNL d   1      33.042  17.564 -23.206  0.00  0.00     0.083 A 
ATOM     21  C   UNL d   1      33.172  16.431 -24.695  0.00  0.00     0.019 A 
ATOM     22  C   UNL d   1      33.128  15.852 -24.088  0.00  0.00     0.002 A 
ATOM     23  C   UNL d   1      33.057  16.017 -23.223  0.00  0.00     0.002 A 
ATOM     24  C   UNL d   1      33.017  16.809 -22.813  0.00  0.00     0.019 A 
ATOM     25  O   UNL d   1      33.172  18.700 -24.936  0.00  0.00    -0.266 OA
ENDBRANCH  16  17
ENDBRANCH  15  16
ENDBRANCH   7  15
BRANCH  10  26
ATOM     26  C   UNL d   1      33.231  20.512 -20.950  0.00  0.00     0.039 C 
BRANCH  26  27
ATOM     27  C   UNL d   1      33.113  21.074 -20.354  0.00  0.00     0.003 C 
ATOM     28  C   UNL d   1      33.110  20.852 -19.567  0.00  0.00     0.000 C 
ENDBRANCH  26  27
ENDBRANCH  10  26
TORSDOF 5
ENDMDL
MODEL 2
REMARK VINA RESULT:       1.4      2.276      4.998
REMARK  5 active torsions:
REMARK  status: ('A' for Active; 'I' for Inactive)
REMARK    1  A    between atoms: S_13  and  C_7 
REMARK    2  A    between atoms: C_22  and  C_10 
REMARK    3  A    between atoms: C_11  and  C_16 
REMARK       I    between atoms: N_12  and  C_11 
REMARK    4  A    between atoms: C_16  and  S_13 
REMARK    5  A    between atoms: C_23  and  C_22 
ROOT
ATOM      1  N   UNL d   1      29.695  17.701 -24.643  0.00  0.00    -0.224 N 
ATOM      2  N   UNL d   1      29.795  16.428 -23.987  0.00  0.00    -0.241 N 
ATOM      3  C   UNL d   1      29.335  17.013 -24.339  0.00  0.00     0.343 A 
ATOM      4  C   UNL d   1      30.615  16.530 -23.940  0.00  0.00     0.160 A 
ATOM      5  C   UNL d   1      30.511  17.795 -24.592  0.00  0.00     0.273 A 
ATOM      6  C   UNL d   1      30.971  17.211 -24.241  0.00  0.00     0.115 A 
ATOM      7  C   UNL d   1      31.787  17.305 -24.190  0.00  0.00     0.120 A 
ATOM      8  N   UNL d   1      31.082  15.941 -23.586  0.00  0.00    -0.209 NA
ATOM      9  N   UNL d   1      32.249  16.724 -23.840  0.00  0.00    -0.220 NA
ATOM     10  C   UNL d   1      31.898  16.037 -23.536  0.00  0.00     0.165 A 
ATOM     11  O   UNL d   1      28.516  16.919 -24.390  0.00  0.00    -0.245 OA
ATOM     12  O   UNL d   1      30.863  18.478 -24.894  0.00  0.00    -0.266 OA
ATOM     13  C   UNL d   1      29.231  18.279 -24.991  0.00  0.00     0.107 C 
ATOM     14  C   UNL d   1      29.439  15.747 -23.686  0.00  0.00     0.105 C 
ENDROOT
BRANCH   7  15
ATOM     15  S   UNL d   1      32.140  17.987 -24.492  0.00  0.00    -0.062 SA
BRANCH  15  16
ATOM     16  C   UNL d   1      32.760  18.348 -24.084  0.00  0.00     0.098 C 
BRANCH  16  17
ATOM     17  C   UNL d   1      32.921  19.147 -24.196  0.00  0.00     0.271 C 
ATOM     18  N   UNL d   1      32.975  19.652 -23.540  0.00  0.00    -0.272 N 
ATOM     19  C   UNL d   1      33.147  20.472 -23.756  0.00  0.00     0.083 A 
ATOM     20  C   UNL d   1      32.868  19.312 -22.893  0.00  0.00     0.083 A 
ATOM     21  C   UNL d   1      33.240  21.084 -23.382  0.00  0.00     0.019 A 
ATOM     22  C   UNL d   1      33.204  21.178 -22.548  0.00  0.00     0.002 A 
ATOM     23  C   UNL d   1      33.043  20.536 -21.963  0.00  0.00     0.002 A 
ATOM     24  C   UNL d   1      32.887  19.672 -22.122  0.00  0.00     0.019 A 
ATOM     25  O   UNL d   1      33.028  19.446 -24.957  0.00  0.00    -0.266 OA
ENDBRANCH  16  17
ENDBRANCH  15  16
ENDBRANCH   7  15
BRANCH  10  26
ATOM     26  C   UNL d   1      32.364  15.453 -23.184  0.00  0.00     0.039 C 
BRANCH  26  27
ATOM     27  C   UNL d   1      32.510  15.480 -22.370  0.00  0.00     0.003 C 
ATOM     28  C   UNL d   1      33.240  15.714 -22.086  0.00  0.00     0.000 C 
ENDBRANCH  26  27
ENDBRANCH  10  26
TORSDOF 5
ENDMDL
