MODEL 1
REMARK VINA RESULT:      -6.5      0.000      0.000
REMARK  10 active torsions:
REMARK  status: ('A' for Active; 'I' for Inactive)
REMARK    1  A    between atoms: C_8  and  S_1 
REMARK    2  A    between atoms: N_18  and  S_1 
REMARK    3  A    between atoms: S_2  and  C_9 
REMARK    4  A    between atoms: N_19  and  S_2 
REMARK    5  A    between atoms: C_23  and  N_18 
REMARK    6  A    between atoms: C_24  and  N_19 
REMARK    7  A    between atoms: C_27  and  C_23 
REMARK    8  A    between atoms: C_28  and  C_24 
REMARK    9  A    between atoms: O_25  and  C_27 
REMARK   10  A    between atoms: O_26  and  C_28 
ROOT
ATOM      1  C   UNL d   1      49.086  35.014  52.427  0.00  0.00     0.040 A 
ATOM      2  C   UNL d   1      50.306  34.589  52.810  0.00  0.00     0.040 A 
ATOM      3  C   UNL d   1      49.616  34.983  53.076  0.00  0.00     0.196 A 
ATOM      4  C   UNL d   1      50.164  34.401  52.016  0.00  0.00     0.003 A 
ATOM      5  C   UNL d   1      49.413  34.666  51.790  0.00  0.00     0.003 A 
ATOM      6  C   UNL d   1      47.909  35.300  51.665  0.00  0.00     0.105 A 
ATOM      7  C   UNL d   1      51.592  33.995  52.752  0.00  0.00     0.105 A 
ATOM      8  C   UNL d   1      48.323  35.340  52.377  0.00  0.00     0.016 A 
ATOM      9  C   UNL d   1      51.010  34.392  53.184  0.00  0.00     0.016 A 
ATOM     10  C   UNL d   1      50.768  33.996  51.594  0.00  0.00     0.001 A 
ATOM     11  C   UNL d   1      48.998  34.627  51.082  0.00  0.00     0.001 A 
ATOM     12  O   UNL d   1      49.491  35.280  53.839  0.00  0.00    -0.287 OA
ATOM     13  C   UNL d   1      51.477  33.796  51.964  0.00  0.00     0.013 A 
ATOM     14  C   UNL d   1      48.249  34.947  51.032  0.00  0.00     0.013 A 
ENDROOT
BRANCH   6  15
ATOM     15  S   UNL d   1      47.133  35.632  51.617  0.00  0.00     0.285 S 
ATOM     16  O   UNL d   1      47.446  36.394  51.815  0.00  0.00    -0.198 OA
ATOM     17  O   UNL d   1      46.856  34.884  51.428  0.00  0.00    -0.198 OA
BRANCH  15  18
ATOM     18  N   UNL d   1      46.383  35.950  51.570  0.00  0.00    -0.155 NA
BRANCH  18  19
ATOM     19  C   UNL d   1      45.854  35.920  52.216  0.00  0.00     0.138 C 
BRANCH  19  20
ATOM     20  C   UNL d   1      45.150  36.351  52.214  0.00  0.00     0.138 C 
BRANCH  20  21
ATOM     21  O   UNL d   1      44.553  36.164  52.722  0.00  0.00    -0.325 OA
ATOM     22  C   UNL d   1      44.328  36.681  53.311  0.00  0.00     0.182 C 
ENDBRANCH  20  21
ENDBRANCH  19  20
ENDBRANCH  18  19
ENDBRANCH  15  18
ENDBRANCH   6  15
BRANCH   7  23
ATOM     23  S   UNL d   1      52.326  33.780  53.111  0.00  0.00     0.285 S 
ATOM     24  O   UNL d   1      51.995  33.033  53.328  0.00  0.00    -0.198 OA
ATOM     25  O   UNL d   1      52.634  34.529  52.884  0.00  0.00    -0.198 OA
BRANCH  23  26
ATOM     26  N   UNL d   1      53.035  33.581  53.454  0.00  0.00    -0.155 NA
BRANCH  26  27
ATOM     27  C   UNL d   1      53.257  33.907  54.178  0.00  0.00     0.138 C 
BRANCH  27  28
ATOM     28  C   UNL d   1      53.860  33.586  54.602  0.00  0.00     0.138 C 
BRANCH  28  29
ATOM     29  O   UNL d   1      54.300  34.070  55.129  0.00  0.00    -0.325 OA
ATOM     30  C   UNL d   1      55.025  33.848  55.406  0.00  0.00     0.182 C 
ENDBRANCH  28  29
ENDBRANCH  27  28
ENDBRANCH  26  27
ENDBRANCH  23  26
ENDBRANCH   7  23
TORSDOF 10
ENDMDL
MODEL 2
REMARK VINA RESULT:      -6.5      0.363      6.190
REMARK  10 active torsions:
REMARK  status: ('A' for Active; 'I' for Inactive)
REMARK    1  A    between atoms: C_8  and  S_1 
REMARK    2  A    between atoms: N_18  and  S_1 
REMARK    3  A    between atoms: S_2  and  C_9 
REMARK    4  A    between atoms: N_19  and  S_2 
REMARK    5  A    between atoms: C_23  and  N_18 
REMARK    6  A    between atoms: C_24  and  N_19 
REMARK    7  A    between atoms: C_27  and  C_23 
REMARK    8  A    between atoms: C_28  and  C_24 
REMARK    9  A    between atoms: O_25  and  C_27 
REMARK   10  A    between atoms: O_26  and  C_28 
ROOT
ATOM      1  C   UNL d   1      50.065  34.697  52.723  0.00  0.00     0.040 A 
ATOM      2  C   UNL d   1      48.835  35.193  52.484  0.00  0.00     0.040 A 
ATOM      3  C   UNL d   1      49.429  35.120  53.070  0.00  0.00     0.196 A 
ATOM      4  C   UNL d   1      49.136  34.814  51.812  0.00  0.00     0.003 A 
ATOM      5  C   UNL d   1      49.892  34.513  51.969  0.00  0.00     0.003 A 
ATOM      6  C   UNL d   1      51.335  34.051  52.588  0.00  0.00     0.105 A 
ATOM      7  C   UNL d   1      47.637  35.517  51.800  0.00  0.00     0.105 A 
ATOM      8  C   UNL d   1      50.794  34.469  53.050  0.00  0.00     0.016 A 
ATOM      9  C   UNL d   1      48.094  35.545  52.489  0.00  0.00     0.016 A 
ATOM     10  C   UNL d   1      48.656  34.797  51.122  0.00  0.00     0.001 A 
ATOM     11  C   UNL d   1      50.432  34.096  51.510  0.00  0.00     0.001 A 
ATOM     12  O   UNL d   1      49.386  35.413  53.844  0.00  0.00    -0.287 OA
ATOM     13  C   UNL d   1      47.911  35.148  51.121  0.00  0.00     0.013 A 
ATOM     14  C   UNL d   1      51.148  33.871  51.831  0.00  0.00     0.013 A 
ENDROOT
BRANCH   6  15
ATOM     15  S   UNL d   1      52.076  33.819  52.923  0.00  0.00     0.285 S 
ATOM     16  O   UNL d   1      52.390  34.588  52.761  0.00  0.00    -0.198 OA
ATOM     17  O   UNL d   1      51.746  33.083  53.069  0.00  0.00    -0.198 OA
BRANCH  15  18
ATOM     18  N   UNL d   1      52.789  33.593  53.247  0.00  0.00    -0.155 NA
BRANCH  18  19
ATOM     19  C   UNL d   1      52.999  33.797  54.029  0.00  0.00     0.138 C 
BRANCH  19  20
ATOM     20  C   UNL d   1      53.735  33.597  54.343  0.00  0.00     0.138 C 
BRANCH  20  21
ATOM     21  O   UNL d   1      53.859  33.604  55.139  0.00  0.00    -0.325 OA
ATOM     22  C   UNL d   1      54.613  33.556  55.445  0.00  0.00     0.182 C 
ENDBRANCH  20  21
ENDBRANCH  19  20
ENDBRANCH  18  19
ENDBRANCH  15  18
ENDBRANCH   6  15
BRANCH   7  23
ATOM     23  S   UNL d   1      46.870  35.871  51.776  0.00  0.00     0.285 S 
ATOM     24  O   UNL d   1      46.534  35.119  51.587  0.00  0.00    -0.198 OA
ATOM     25  O   UNL d   1      47.226  36.609  51.964  0.00  0.00    -0.198 OA
BRANCH  23  26
ATOM     26  N   UNL d   1      46.136  36.219  51.755  0.00  0.00    -0.155 NA
BRANCH  26  27
ATOM     27  C   UNL d   1      45.641  36.194  52.414  0.00  0.00     0.138 C 
BRANCH  27  28
ATOM     28  C   UNL d   1      44.966  36.631  52.434  0.00  0.00     0.138 C 
BRANCH  28  29
ATOM     29  O   UNL d   1      44.347  36.415  52.958  0.00  0.00    -0.325 OA
ATOM     30  C   UNL d   1      44.320  36.683  53.719  0.00  0.00     0.182 C 
ENDBRANCH  28  29
ENDBRANCH  27  28
ENDBRANCH  26  27
ENDBRANCH  23  26
ENDBRANCH   7  23
TORSDOF 10
ENDMDL
MODEL 3
REMARK VINA RESULT:      -5.1      2.416      6.609
REMARK  10 active torsions:
REMARK  status: ('A' for Active; 'I' for Inactive)
REMARK    1  A    between atoms: C_8  and  S_1 
REMARK    2  A    between atoms: N_18  and  S_1 
REMARK    3  A    between atoms: S_2  and  C_9 
REMARK    4  A    between atoms: N_19  and  S_2 
REMARK    5  A    between atoms: C_23  and  N_18 
REMARK    6  A    between atoms: C_24  and  N_19 
REMARK    7  A    between atoms: C_27  and  C_23 
REMARK    8  A    between atoms: C_28  and  C_24 
REMARK    9  A    between atoms: O_25  and  C_27 
REMARK   10  A    between atoms: O_26  and  C_28 
ROOT
ATOM      1  C   UNL d   1      51.737  32.404  53.198  0.00  0.00     0.040 A 
ATOM      2  C   UNL d   1      50.791  33.343  52.998  0.00  0.00     0.040 A 
ATOM      3  C   UNL d   1      50.909  32.542  53.216  0.00  0.00     0.196 A 
ATOM      4  C   UNL d   1      51.547  33.651  52.859  0.00  0.00     0.003 A 
ATOM      5  C   UNL d   1      52.121  33.067  52.985  0.00  0.00     0.003 A 
ATOM      6  C   UNL d   1      52.987  31.716  53.307  0.00  0.00     0.105 A 
ATOM      7  C   UNL d   1      50.193  34.590  52.686  0.00  0.00     0.105 A 
ATOM      8  C   UNL d   1      52.164  31.711  53.365  0.00  0.00     0.016 A 
ATOM      9  C   UNL d   1      50.114  33.799  52.915  0.00  0.00     0.016 A 
ATOM     10  C   UNL d   1      51.606  34.457  52.627  0.00  0.00     0.001 A 
ATOM     11  C   UNL d   1      52.941  33.070  52.928  0.00  0.00     0.001 A 
ATOM     12  O   UNL d   1      50.315  31.999  53.410  0.00  0.00    -0.287 OA
ATOM     13  C   UNL d   1      50.930  34.920  52.543  0.00  0.00     0.013 A 
ATOM     14  C   UNL d   1      53.361  32.390  53.091  0.00  0.00     0.013 A 
ENDROOT
BRANCH   6  15
ATOM     15  S   UNL d   1      53.420  31.010  53.477  0.00  0.00     0.285 S 
ATOM     16  O   UNL d   1      53.085  30.640  52.793  0.00  0.00    -0.198 OA
ATOM     17  O   UNL d   1      53.728  31.392  54.133  0.00  0.00    -0.198 OA
BRANCH  15  18
ATOM     18  N   UNL d   1      53.838  30.330  53.643  0.00  0.00    -0.155 NA
BRANCH  18  19
ATOM     19  C   UNL d   1      53.456  29.632  53.896  0.00  0.00     0.138 C 
BRANCH  19  20
ATOM     20  C   UNL d   1      53.857  29.054  54.328  0.00  0.00     0.138 C 
BRANCH  20  21
ATOM     21  O   UNL d   1      53.460  28.431  54.649  0.00  0.00    -0.325 OA
ATOM     22  C   UNL d   1      53.388  28.352  55.457  0.00  0.00     0.182 C 
ENDBRANCH  20  21
ENDBRANCH  19  20
ENDBRANCH  18  19
ENDBRANCH  15  18
ENDBRANCH   6  15
BRANCH   7  23
ATOM     23  S   UNL d   1      49.513  35.083  52.593  0.00  0.00     0.285 S 
ATOM     24  O   UNL d   1      49.440  34.822  51.793  0.00  0.00    -0.198 OA
ATOM     25  O   UNL d   1      49.606  35.327  53.393  0.00  0.00    -0.198 OA
BRANCH  23  26
ATOM     26  N   UNL d   1      48.860  35.560  52.512  0.00  0.00    -0.155 NA
BRANCH  26  27
ATOM     27  C   UNL d   1      48.201  35.301  52.089  0.00  0.00     0.138 C 
BRANCH  27  28
ATOM     28  C   UNL d   1      47.541  35.757  52.044  0.00  0.00     0.138 C 
BRANCH  28  29
ATOM     29  O   UNL d   1      46.842  35.442  51.702  0.00  0.00    -0.325 OA
ATOM     30  C   UNL d   1      46.171  35.884  51.623  0.00  0.00     0.182 C 
ENDBRANCH  28  29
ENDBRANCH  27  28
ENDBRANCH  26  27
ENDBRANCH  23  26
ENDBRANCH   7  23
TORSDOF 10
ENDMDL
MODEL 4
REMARK VINA RESULT:      -5.0      2.397      3.153
REMARK  10 active torsions:
REMARK  status: ('A' for Active; 'I' for Inactive)
REMARK    1  A    between atoms: C_8  and  S_1 
REMARK    2  A    between atoms: N_18  and  S_1 
REMARK    3  A    between atoms: S_2  and  C_9 
REMARK    4  A    between atoms: N_19  and  S_2 
REMARK    5  A    between atoms: C_23  and  N_18 
REMARK    6  A    between atoms: C_24  and  N_19 
REMARK    7  A    between atoms: C_27  and  C_23 
REMARK    8  A    between atoms: C_28  and  C_24 
REMARK    9  A    between atoms: O_25  and  C_27 
REMARK   10  A    between atoms: O_26  and  C_28 
ROOT
ATOM      1  C   UNL d   1      50.780  33.383  52.973  0.00  0.00     0.040 A 
ATOM      2  C   UNL d   1      51.676  32.399  53.184  0.00  0.00     0.040 A 
ATOM      3  C   UNL d   1      50.858  32.579  53.198  0.00  0.00     0.196 A 
ATOM      4  C   UNL d   1      52.055  33.098  52.952  0.00  0.00     0.003 A 
ATOM      5  C   UNL d   1      51.497  33.697  52.825  0.00  0.00     0.003 A 
ATOM      6  C   UNL d   1      50.169  34.639  52.661  0.00  0.00     0.105 A 
ATOM      7  C   UNL d   1      52.918  31.722  53.278  0.00  0.00     0.105 A 
ATOM      8  C   UNL d   1      50.098  33.851  52.893  0.00  0.00     0.016 A 
ATOM      9  C   UNL d   1      52.094  31.712  53.348  0.00  0.00     0.016 A 
ATOM     10  C   UNL d   1      52.894  33.088  52.888  0.00  0.00     0.001 A 
ATOM     11  C   UNL d   1      51.565  34.482  52.594  0.00  0.00     0.001 A 
ATOM     12  O   UNL d   1      50.249  32.054  53.398  0.00  0.00    -0.287 OA
ATOM     13  C   UNL d   1      53.319  32.401  53.051  0.00  0.00     0.013 A 
ATOM     14  C   UNL d   1      50.896  34.942  52.516  0.00  0.00     0.013 A 
ENDROOT
BRANCH   6  15
ATOM     15  S   UNL d   1      49.473  35.113  52.581  0.00  0.00     0.285 S 
ATOM     16  O   UNL d   1      49.537  35.344  53.393  0.00  0.00    -0.198 OA
ATOM     17  O   UNL d   1      49.435  34.872  51.798  0.00  0.00    -0.198 OA
BRANCH  15  18
ATOM     18  N   UNL d   1      48.801  35.569  52.501  0.00  0.00    -0.155 NA
BRANCH  18  19
ATOM     19  C   UNL d   1      48.117  35.276  52.122  0.00  0.00     0.138 C 
BRANCH  19  20
ATOM     20  C   UNL d   1      47.450  35.750  52.015  0.00  0.00     0.138 C 
BRANCH  20  21
ATOM     21  O   UNL d   1      46.792  35.458  51.654  0.00  0.00    -0.325 OA
ATOM     22  C   UNL d   1      46.097  35.885  51.639  0.00  0.00     0.182 C 
ENDBRANCH  20  21
ENDBRANCH  19  20
ENDBRANCH  18  19
ENDBRANCH  15  18
ENDBRANCH   6  15
BRANCH   7  23
ATOM     23  S   UNL d   1      53.374  31.030  53.441  0.00  0.00     0.285 S 
ATOM     24  O   UNL d   1      53.023  30.649  52.773  0.00  0.00    -0.198 OA
ATOM     25  O   UNL d   1      53.710  31.430  54.100  0.00  0.00    -0.198 OA
BRANCH  23  26
ATOM     26  N   UNL d   1      53.816  30.368  53.604  0.00  0.00    -0.155 NA
BRANCH  26  27
ATOM     27  C   UNL d   1      53.451  29.668  53.845  0.00  0.00     0.138 C 
BRANCH  27  28
ATOM     28  C   UNL d   1      53.856  29.127  54.280  0.00  0.00     0.138 C 
BRANCH  28  29
ATOM     29  O   UNL d   1      53.446  28.474  54.614  0.00  0.00    -0.325 OA
ATOM     30  C   UNL d   1      53.485  28.306  55.403  0.00  0.00     0.182 C 
ENDBRANCH  28  29
ENDBRANCH  27  28
ENDBRANCH  26  27
ENDBRANCH  23  26
ENDBRANCH   7  23
TORSDOF 10
ENDMDL
