MODEL 1
REMARK VINA RESULT:      19.8      0.000      0.000
REMARK  0 active torsions:
REMARK  status: ('A' for Active; 'I' for Inactive)
ROOT
ATOM      1  C   UNL d   1      13.423  11.924  -1.252  0.00  0.00     0.134 A 
ATOM      2  N   UNL d   1      13.205  11.877  -2.045  0.00  0.00    -0.234 NA
ATOM      3  C   UNL d   1      14.218  12.039  -1.056  0.00  0.00     0.045 A 
ATOM      4  C   UNL d   1      13.777  11.945  -2.636  0.00  0.00     0.207 A 
ATOM      5  N   UNL d   1      14.576  12.060  -2.443  0.00  0.00    -0.244 NA
ATOM      6  C   UNL d   1      14.793  12.107  -1.650  0.00  0.00     0.081 A 
ATOM      7  S   UNL d   1      12.854  11.857  -0.658  0.00  0.00    -0.058 SA
ATOM      8  C   UNL d   1      14.440  12.086  -0.261  0.00  0.00     0.004 A 
ATOM      9  C   UNL d   1      12.987  11.831  -2.837  0.00  0.00     0.023 A 
ATOM     10  C   UNL d   1      14.352  12.013  -3.223  0.00  0.00     0.023 A 
ATOM     11  C   UNL d   1      15.587  12.221  -1.445  0.00  0.00     0.019 A 
ATOM     12  C   UNL d   1      15.229  12.200  -0.059  0.00  0.00     0.000 A 
ATOM     13  C   UNL d   1      14.139  11.967  -4.010  0.00  0.00    -0.001 A 
ATOM     14  C   UNL d   1      12.769  11.784  -3.630  0.00  0.00    -0.001 A 
ATOM     15  C   UNL d   1      15.804  12.268  -0.653  0.00  0.00     0.002 A 
ATOM     16  C   UNL d   1      13.343  11.852  -4.218  0.00  0.00    -0.000 A 
ENDROOT
TORSDOF 0
ENDMDL
MODEL 2
REMARK VINA RESULT:      21.5      1.440      3.234
REMARK  0 active torsions:
REMARK  status: ('A' for Active; 'I' for Inactive)
ROOT
ATOM      1  C   UNL d   1      13.885  13.739  -3.055  0.00  0.00     0.134 A 
ATOM      2  N   UNL d   1      14.240  13.541  -2.338  0.00  0.00    -0.234 NA
ATOM      3  C   UNL d   1      13.514  13.148  -3.500  0.00  0.00     0.045 A 
ATOM      4  C   UNL d   1      14.225  12.761  -2.070  0.00  0.00     0.207 A 
ATOM      5  N   UNL d   1      13.854  12.166  -2.515  0.00  0.00    -0.244 NA
ATOM      6  C   UNL d   1      13.499  12.364  -3.231  0.00  0.00     0.081 A 
ATOM      7  S   UNL d   1      13.898  14.518  -3.326  0.00  0.00    -0.058 SA
ATOM      8  C   UNL d   1      13.157  13.344  -4.219  0.00  0.00     0.004 A 
ATOM      9  C   UNL d   1      14.595  13.344  -1.623  0.00  0.00     0.023 A 
ATOM     10  C   UNL d   1      14.207  11.979  -1.807  0.00  0.00     0.023 A 
ATOM     11  C   UNL d   1      13.126  11.779  -3.682  0.00  0.00     0.019 A 
ATOM     12  C   UNL d   1      12.786  12.761  -4.667  0.00  0.00     0.000 A 
ATOM     13  C   UNL d   1      14.559  11.780  -1.097  0.00  0.00    -0.001 A 
ATOM     14  C   UNL d   1      14.951  13.146  -0.906  0.00  0.00    -0.001 A 
ATOM     15  C   UNL d   1      12.771  11.978  -4.398  0.00  0.00     0.002 A 
ATOM     16  C   UNL d   1      14.934  12.365  -0.642  0.00  0.00    -0.000 A 
ENDROOT
TORSDOF 0
ENDMDL
