MODEL 1
REMARK VINA RESULT:      -0.9      0.000      0.000
REMARK  3 active torsions:
REMARK  status: ('A' for Active; 'I' for Inactive)
REMARK    1  A    between atoms: C_6  and  N_1 
REMARK    2  A    between atoms: C_7  and  C_6 
REMARK    3  A    between atoms: C_8  and  C_7 
ROOT
ATOM      1  N   UNL d   1     -41.277-122.528 -51.240  0.00  0.00    -0.305 N 
ATOM      2  C   UNL d   1     -41.240-121.705 -51.231  0.00  0.00     0.064 A 
ATOM      3  C   UNL d   1     -41.250-123.108 -52.069  0.00  0.00     0.064 A 
ATOM      4  C   UNL d   1     -41.186-121.688 -52.047  0.00  0.00     0.018 A 
ATOM      5  C   UNL d   1     -41.190-122.389 -52.472  0.00  0.00     0.018 A 
ATOM      6  C   UNL d   1     -41.255-123.810 -52.480  0.00  0.00     0.018 A 
ATOM      7  C   UNL d   1     -41.236-120.998 -50.802  0.00  0.00     0.018 A 
ATOM      8  C   UNL d   1     -41.127-120.962 -52.447  0.00  0.00     0.002 A 
ATOM      9  C   UNL d   1     -41.136-122.379 -53.292  0.00  0.00     0.002 A 
ATOM     10  C   UNL d   1     -41.141-123.093 -53.710  0.00  0.00     0.000 A 
ATOM     11  C   UNL d   1     -41.177-120.271 -51.192  0.00  0.00     0.002 A 
ATOM     12  C   UNL d   1     -41.201-123.805 -53.303  0.00  0.00     0.002 A 
ATOM     13  C   UNL d   1     -41.123-120.261 -52.021  0.00  0.00     0.000 A 
ENDROOT
BRANCH   1  14
ATOM     14  C   UNL d   1     -41.343-122.944 -50.528  0.00  0.00     0.086 C 
BRANCH  14  15
ATOM     15  C   UNL d   1     -42.072-123.072 -50.164  0.00  0.00     0.089 C 
BRANCH  15  16
ATOM     16  C   UNL d   1     -42.097-123.362 -49.389  0.00  0.00     0.213 C 
ATOM     17  O   UNL d   1     -42.768-123.234 -48.923  0.00  0.00    -0.644 OA
ATOM     18  O   UNL d   1     -41.455-123.777 -49.082  0.00  0.00    -0.644 OA
ENDBRANCH  15  16
ENDBRANCH  14  15
ENDBRANCH   1  14
TORSDOF 3
ENDMDL
MODEL 2
REMARK VINA RESULT:      -0.8      0.317      2.248
REMARK  3 active torsions:
REMARK  status: ('A' for Active; 'I' for Inactive)
REMARK    1  A    between atoms: C_6  and  N_1 
REMARK    2  A    between atoms: C_7  and  C_6 
REMARK    3  A    between atoms: C_8  and  C_7 
ROOT
ATOM      1  N   UNL d   1     -41.234-122.705 -51.563  0.00  0.00    -0.305 N 
ATOM      2  C   UNL d   1     -41.259-123.102 -52.283  0.00  0.00     0.064 A 
ATOM      3  C   UNL d   1     -41.188-121.700 -51.448  0.00  0.00     0.064 A 
ATOM      4  C   UNL d   1     -41.232-122.393 -52.688  0.00  0.00     0.018 A 
ATOM      5  C   UNL d   1     -41.197-121.686 -52.274  0.00  0.00     0.018 A 
ATOM      6  C   UNL d   1     -41.152-121.005 -51.025  0.00  0.00     0.018 A 
ATOM      7  C   UNL d   1     -41.295-123.816 -52.701  0.00  0.00     0.018 A 
ATOM      8  C   UNL d   1     -41.241-122.385 -53.520  0.00  0.00     0.002 A 
ATOM      9  C   UNL d   1     -41.169-120.969 -52.675  0.00  0.00     0.002 A 
ATOM     10  C   UNL d   1     -41.133-120.263 -52.246  0.00  0.00     0.000 A 
ATOM     11  C   UNL d   1     -41.305-123.817 -53.528  0.00  0.00     0.002 A 
ATOM     12  C   UNL d   1     -41.125-120.284 -51.424  0.00  0.00     0.002 A 
ATOM     13  C   UNL d   1     -41.277-123.092 -53.933  0.00  0.00     0.000 A 
ENDROOT
BRANCH   1  14
ATOM     14  C   UNL d   1     -41.245-123.134 -50.855  0.00  0.00     0.086 C 
BRANCH  14  15
ATOM     15  C   UNL d   1     -41.842-123.034 -50.295  0.00  0.00     0.089 C 
BRANCH  15  16
ATOM     16  C   UNL d   1     -41.875-123.537 -49.639  0.00  0.00     0.213 C 
ATOM     17  O   UNL d   1     -42.607-123.802 -49.360  0.00  0.00    -0.644 OA
ATOM     18  O   UNL d   1     -41.181-123.775 -49.264  0.00  0.00    -0.644 OA
ENDBRANCH  15  16
ENDBRANCH  14  15
ENDBRANCH   1  14
TORSDOF 3
ENDMDL
MODEL 3
REMARK VINA RESULT:      -0.4      1.924      2.881
REMARK  3 active torsions:
REMARK  status: ('A' for Active; 'I' for Inactive)
REMARK    1  A    between atoms: C_6  and  N_1 
REMARK    2  A    between atoms: C_7  and  C_6 
REMARK    3  A    between atoms: C_8  and  C_7 
ROOT
ATOM      1  N   UNL d   1     -41.133-122.318 -52.196  0.00  0.00    -0.305 N 
ATOM      2  C   UNL d   1     -41.131-121.500 -52.111  0.00  0.00     0.064 A 
ATOM      3  C   UNL d   1     -41.134-122.987 -51.436  0.00  0.00     0.064 A 
ATOM      4  C   UNL d   1     -41.131-121.573 -51.297  0.00  0.00     0.018 A 
ATOM      5  C   UNL d   1     -41.132-122.317 -50.953  0.00  0.00     0.018 A 
ATOM      6  C   UNL d   1     -41.135-123.732 -51.107  0.00  0.00     0.018 A 
ATOM      7  C   UNL d   1     -41.130-120.748 -52.458  0.00  0.00     0.018 A 
ATOM      8  C   UNL d   1     -41.130-120.895 -50.815  0.00  0.00     0.002 A 
ATOM      9  C   UNL d   1     -41.132-122.398 -50.135  0.00  0.00     0.002 A 
ATOM     10  C   UNL d   1     -41.133-123.155 -49.800  0.00  0.00     0.000 A 
ATOM     11  C   UNL d   1     -41.129-120.069 -51.987  0.00  0.00     0.002 A 
ATOM     12  C   UNL d   1     -41.135-123.817 -50.287  0.00  0.00     0.002 A 
ATOM     13  C   UNL d   1     -41.129-120.151 -51.160  0.00  0.00     0.000 A 
ENDROOT
BRANCH   1  14
ATOM     14  C   UNL d   1     -41.133-122.654 -52.952  0.00  0.00     0.086 C 
BRANCH  14  15
ATOM     15  C   UNL d   1     -41.817-122.688 -53.413  0.00  0.00     0.089 C 
BRANCH  15  16
ATOM     16  C   UNL d   1     -41.805-123.098 -54.132  0.00  0.00     0.213 C 
ATOM     17  O   UNL d   1     -42.281-123.767 -54.231  0.00  0.00    -0.644 OA
ATOM     18  O   UNL d   1     -41.322-122.841 -54.748  0.00  0.00    -0.644 OA
ENDBRANCH  15  16
ENDBRANCH  14  15
ENDBRANCH   1  14
TORSDOF 3
ENDMDL
MODEL 4
REMARK VINA RESULT:       0.2      1.895      3.262
REMARK  3 active torsions:
REMARK  status: ('A' for Active; 'I' for Inactive)
REMARK    1  A    between atoms: C_6  and  N_1 
REMARK    2  A    between atoms: C_7  and  C_6 
REMARK    3  A    between atoms: C_8  and  C_7 
ROOT
ATOM      1  N   UNL d   1     -41.221-122.593 -52.005  0.00  0.00    -0.305 N 
ATOM      2  C   UNL d   1     -41.266-123.030 -51.309  0.00  0.00     0.064 A 
ATOM      3  C   UNL d   1     -41.178-121.583 -52.062  0.00  0.00     0.064 A 
ATOM      4  C   UNL d   1     -41.256-122.344 -50.865  0.00  0.00     0.018 A 
ATOM      5  C   UNL d   1     -41.212-121.615 -51.237  0.00  0.00     0.018 A 
ATOM      6  C   UNL d   1     -41.134-120.865 -52.444  0.00  0.00     0.018 A 
ATOM      7  C   UNL d   1     -41.310-123.766 -50.933  0.00  0.00     0.018 A 
ATOM      8  C   UNL d   1     -41.290-122.383 -50.035  0.00  0.00     0.002 A 
ATOM      9  C   UNL d   1     -41.201-120.922 -50.797  0.00  0.00     0.002 A 
ATOM     10  C   UNL d   1     -41.156-120.192 -51.184  0.00  0.00     0.000 A 
ATOM     11  C   UNL d   1     -41.345-123.813 -50.108  0.00  0.00     0.002 A 
ATOM     12  C   UNL d   1     -41.123-120.167 -52.005  0.00  0.00     0.002 A 
ATOM     13  C   UNL d   1     -41.334-123.112 -49.662  0.00  0.00     0.000 A 
ENDROOT
BRANCH   1  14
ATOM     14  C   UNL d   1     -41.207-122.981 -52.736  0.00  0.00     0.086 C 
BRANCH  14  15
ATOM     15  C   UNL d   1     -41.897-123.125 -53.165  0.00  0.00     0.089 C 
BRANCH  15  16
ATOM     16  C   UNL d   1     -41.848-123.287 -53.975  0.00  0.00     0.213 C 
ATOM     17  O   UNL d   1     -42.528-123.249 -54.444  0.00  0.00    -0.644 OA
ATOM     18  O   UNL d   1     -41.123-123.486 -54.315  0.00  0.00    -0.644 OA
ENDBRANCH  15  16
ENDBRANCH  14  15
ENDBRANCH   1  14
TORSDOF 3
ENDMDL
