MODEL 1
REMARK VINA RESULT:      -9.6      0.000      0.000
REMARK  4 active torsions:
REMARK  status: ('A' for Active; 'I' for Inactive)
REMARK    1  A    between atoms: C_10  and  C_3 
REMARK    2  A    between atoms: N_11  and  C_4 
REMARK    3  A    between atoms: C_14  and  N_11 
REMARK    4  A    between atoms: C_15  and  C_14 
ROOT
ATOM      1  C   UNL d   1      53.560  32.661  54.076  0.00  0.00     0.150 A 
ATOM      2  N   UNL d   1      52.813  32.769  53.734  0.00  0.00    -0.275 N 
ATOM      3  C   UNL d   1      53.931  33.283  54.449  0.00  0.00     0.056 A 
ATOM      4  C   UNL d   1      52.457  33.501  53.775  0.00  0.00     0.149 A 
ATOM      5  N   UNL d   1      53.929  31.941  54.046  0.00  0.00    -0.227 NA
ATOM      6  C   UNL d   1      53.561  34.020  54.484  0.00  0.00     0.007 A 
ATOM      7  C   UNL d   1      52.831  34.126  54.150  0.00  0.00     0.038 A 
ATOM      8  C   UNL d   1      52.811  31.414  53.327  0.00  0.00     0.084 A 
ATOM      9  C   UNL d   1      53.555  31.309  53.669  0.00  0.00     0.099 A 
ATOM     10  C   UNL d   1      53.936  34.642  54.858  0.00  0.00     0.000 C 
ATOM     11  C   UNL d   1      52.443  30.788  52.955  0.00  0.00     0.019 A 
ATOM     12  C   UNL d   1      53.910  30.574  53.627  0.00  0.00     0.021 A 
ATOM     13  C   UNL d   1      52.799  30.059  52.915  0.00  0.00     0.002 A 
ATOM     14  C   UNL d   1      53.542  29.947  53.255  0.00  0.00     0.002 A 
ENDROOT
BRANCH   4  15
ATOM     15  N   UNL d   1      51.690  33.601  53.420  0.00  0.00    -0.225 NA
BRANCH  15  16
ATOM     16  C   UNL d   1      51.491  34.331  53.020  0.00  0.00     0.120 C 
BRANCH  16  17
ATOM     17  C   UNL d   1      50.737  34.418  52.636  0.00  0.00     0.101 A 
ATOM     18  N   UNL d   1      50.073  34.749  53.075  0.00  0.00    -0.242 NA
ATOM     19  C   UNL d   1      49.318  34.837  52.691  0.00  0.00     0.099 A 
ATOM     20  C   UNL d   1      49.220  34.598  51.873  0.00  0.00     0.021 A 
ATOM     21  C   UNL d   1      49.893  34.263  51.431  0.00  0.00     0.003 A 
ATOM     22  C   UNL d   1      50.644  34.179  51.824  0.00  0.00     0.021 A 
ENDBRANCH  16  17
ENDBRANCH  15  16
ENDBRANCH   4  15
BRANCH   3  23
ATOM     23  C   UNL d   1      54.661  33.180  54.784  0.00  0.00     0.125 C 
ATOM     24  N   UNL d   1      54.722  33.297  55.603  0.00  0.00    -0.146 N 
ENDBRANCH   3  23
TORSDOF 4
ENDMDL
MODEL 2
REMARK VINA RESULT:      -8.4      0.673      2.594
REMARK  4 active torsions:
REMARK  status: ('A' for Active; 'I' for Inactive)
REMARK    1  A    between atoms: C_10  and  C_3 
REMARK    2  A    between atoms: N_11  and  C_4 
REMARK    3  A    between atoms: C_14  and  N_11 
REMARK    4  A    between atoms: C_15  and  C_14 
ROOT
ATOM      1  C   UNL d   1      53.472  32.166  53.766  0.00  0.00     0.150 A 
ATOM      2  N   UNL d   1      52.873  32.738  53.728  0.00  0.00    -0.275 N 
ATOM      3  C   UNL d   1      53.371  31.447  53.400  0.00  0.00     0.056 A 
ATOM      4  C   UNL d   1      52.187  32.572  53.322  0.00  0.00     0.149 A 
ATOM      5  N   UNL d   1      54.161  32.314  54.165  0.00  0.00    -0.227 NA
ATOM      6  C   UNL d   1      52.672  31.288  52.991  0.00  0.00     0.007 A 
ATOM      7  C   UNL d   1      52.087  31.847  52.953  0.00  0.00     0.038 A 
ATOM      8  C   UNL d   1      53.671  33.614  54.502  0.00  0.00     0.084 A 
ATOM      9  C   UNL d   1      54.266  33.043  54.538  0.00  0.00     0.099 A 
ATOM     10  C   UNL d   1      52.574  30.565  52.624  0.00  0.00     0.000 C 
ATOM     11  C   UNL d   1      53.777  34.335  54.871  0.00  0.00     0.019 A 
ATOM     12  C   UNL d   1      54.953  33.213  54.946  0.00  0.00     0.021 A 
ATOM     13  C   UNL d   1      54.461  34.499  55.275  0.00  0.00     0.002 A 
ATOM     14  C   UNL d   1      55.059  33.933  55.316  0.00  0.00     0.002 A 
ENDROOT
BRANCH   4  15
ATOM     15  N   UNL d   1      51.579  33.166  53.289  0.00  0.00    -0.225 NA
BRANCH  15  16
ATOM     16  C   UNL d   1      51.419  33.580  52.558  0.00  0.00     0.120 C 
BRANCH  16  17
ATOM     17  C   UNL d   1      50.706  34.036  52.469  0.00  0.00     0.101 A 
ATOM     18  N   UNL d   1      50.407  34.490  53.137  0.00  0.00    -0.242 NA
ATOM     19  C   UNL d   1      49.693  34.946  53.049  0.00  0.00     0.099 A 
ATOM     20  C   UNL d   1      49.275  34.951  52.299  0.00  0.00     0.021 A 
ATOM     21  C   UNL d   1      49.579  34.491  51.625  0.00  0.00     0.003 A 
ATOM     22  C   UNL d   1      50.294  34.038  51.724  0.00  0.00     0.021 A 
ENDBRANCH  16  17
ENDBRANCH  15  16
ENDBRANCH   4  15
BRANCH   3  23
ATOM     23  C   UNL d   1      53.955  30.886  53.435  0.00  0.00     0.125 C 
ATOM     24  N   UNL d   1      53.742  30.135  53.715  0.00  0.00    -0.146 N 
ENDBRANCH   3  23
TORSDOF 4
ENDMDL
MODEL 3
REMARK VINA RESULT:      -8.3      1.011      3.929
REMARK  4 active torsions:
REMARK  status: ('A' for Active; 'I' for Inactive)
REMARK    1  A    between atoms: C_10  and  C_3 
REMARK    2  A    between atoms: N_11  and  C_4 
REMARK    3  A    between atoms: C_14  and  N_11 
REMARK    4  A    between atoms: C_15  and  C_14 
ROOT
ATOM      1  C   UNL d   1      52.998  33.929  54.002  0.00  0.00     0.150 A 
ATOM      2  N   UNL d   1      52.969  33.172  53.665  0.00  0.00    -0.275 N 
ATOM      3  C   UNL d   1      53.627  34.140  54.474  0.00  0.00     0.056 A 
ATOM      4  C   UNL d   1      53.574  32.646  53.812  0.00  0.00     0.149 A 
ATOM      5  N   UNL d   1      52.407  34.465  53.867  0.00  0.00    -0.227 NA
ATOM      6  C   UNL d   1      54.234  33.600  54.616  0.00  0.00     0.007 A 
ATOM      7  C   UNL d   1      54.206  32.860  54.287  0.00  0.00     0.038 A 
ATOM      8  C   UNL d   1      51.737  33.500  53.052  0.00  0.00     0.084 A 
ATOM      9  C   UNL d   1      51.768  34.253  53.389  0.00  0.00     0.099 A 
ATOM     10  C   UNL d   1      54.863  33.815  55.090  0.00  0.00     0.000 C 
ATOM     11  C   UNL d   1      51.105  33.293  52.579  0.00  0.00     0.019 A 
ATOM     12  C   UNL d   1      51.160  34.779  53.240  0.00  0.00     0.021 A 
ATOM     13  C   UNL d   1      50.503  33.818  52.434  0.00  0.00     0.002 A 
ATOM     14  C   UNL d   1      50.528  34.573  52.767  0.00  0.00     0.002 A 
ENDROOT
BRANCH   4  15
ATOM     15  N   UNL d   1      53.534  31.872  53.461  0.00  0.00    -0.225 NA
BRANCH  15  16
ATOM     16  C   UNL d   1      53.796  31.185  53.899  0.00  0.00     0.120 C 
BRANCH  16  17
ATOM     17  C   UNL d   1      53.442  30.425  53.759  0.00  0.00     0.101 A 
ATOM     18  N   UNL d   1      53.031  30.279  53.016  0.00  0.00    -0.242 NA
ATOM     19  C   UNL d   1      52.676  29.517  52.875  0.00  0.00     0.099 A 
ATOM     20  C   UNL d   1      52.727  28.901  53.470  0.00  0.00     0.021 A 
ATOM     21  C   UNL d   1      53.143  29.051  54.221  0.00  0.00     0.003 A 
ATOM     22  C   UNL d   1      53.495  29.816  54.351  0.00  0.00     0.021 A 
ENDBRANCH  16  17
ENDBRANCH  15  16
ENDBRANCH   4  15
BRANCH   3  23
ATOM     23  C   UNL d   1      53.658  34.879  54.804  0.00  0.00     0.125 C 
ATOM     24  N   UNL d   1      53.533  34.934  55.622  0.00  0.00    -0.146 N 
ENDBRANCH   3  23
TORSDOF 4
ENDMDL
MODEL 4
REMARK VINA RESULT:      -7.9      1.074      4.141
REMARK  4 active torsions:
REMARK  status: ('A' for Active; 'I' for Inactive)
REMARK    1  A    between atoms: C_10  and  C_3 
REMARK    2  A    between atoms: N_11  and  C_4 
REMARK    3  A    between atoms: C_14  and  N_11 
REMARK    4  A    between atoms: C_15  and  C_14 
ROOT
ATOM      1  C   UNL d   1      52.691  33.841  53.577  0.00  0.00     0.150 A 
ATOM      2  N   UNL d   1      53.008  33.083  53.469  0.00  0.00    -0.275 N 
ATOM      3  C   UNL d   1      52.033  34.071  53.156  0.00  0.00     0.056 A 
ATOM      4  C   UNL d   1      52.655  32.574  52.940  0.00  0.00     0.149 A 
ATOM      5  N   UNL d   1      53.028  34.360  54.099  0.00  0.00    -0.227 NA
ATOM      6  C   UNL d   1      51.683  33.548  52.622  0.00  0.00     0.007 A 
ATOM      7  C   UNL d   1      51.993  32.807  52.516  0.00  0.00     0.038 A 
ATOM      8  C   UNL d   1      54.012  33.375  54.422  0.00  0.00     0.084 A 
ATOM      9  C   UNL d   1      53.695  34.129  54.528  0.00  0.00     0.099 A 
ATOM     10  C   UNL d   1      51.024  33.782  52.201  0.00  0.00     0.000 C 
ATOM     11  C   UNL d   1      54.672  33.149  54.846  0.00  0.00     0.019 A 
ATOM     12  C   UNL d   1      54.051  34.637  55.060  0.00  0.00     0.021 A 
ATOM     13  C   UNL d   1      55.022  33.656  55.374  0.00  0.00     0.002 A 
ATOM     14  C   UNL d   1      54.710  34.412  55.484  0.00  0.00     0.002 A 
ENDROOT
BRANCH   4  15
ATOM     15  N   UNL d   1      52.988  31.798  52.836  0.00  0.00    -0.225 NA
BRANCH  15  16
ATOM     16  C   UNL d   1      52.488  31.105  52.874  0.00  0.00     0.120 C 
BRANCH  16  17
ATOM     17  C   UNL d   1      52.765  30.396  53.256  0.00  0.00     0.101 A 
ATOM     18  N   UNL d   1      52.197  29.870  53.634  0.00  0.00    -0.242 NA
ATOM     19  C   UNL d   1      52.473  29.160  54.016  0.00  0.00     0.099 A 
ATOM     20  C   UNL d   1      53.311  28.973  54.024  0.00  0.00     0.021 A 
ATOM     21  C   UNL d   1      53.883  29.507  53.641  0.00  0.00     0.003 A 
ATOM     22  C   UNL d   1      53.596  30.214  53.262  0.00  0.00     0.021 A 
ENDBRANCH  16  17
ENDBRANCH  15  16
ENDBRANCH   4  15
BRANCH   3  23
ATOM     23  C   UNL d   1      51.722  34.812  53.260  0.00  0.00     0.125 C 
ATOM     24  N   UNL d   1      50.914  34.861  53.443  0.00  0.00    -0.146 N 
ENDBRANCH   3  23
TORSDOF 4
ENDMDL
