MODEL 1
REMARK VINA RESULT:       7.7      0.000      0.000
REMARK  1 active torsions:
REMARK  status: ('A' for Active; 'I' for Inactive)
REMARK    1  A    between atoms: N_4  and  C_1 
ROOT
ATOM      1  C   UNL d   1      13.718  12.200  -2.688  0.00  0.00     0.735 A 
ATOM      2  N   UNL d   1      13.256  11.985  -2.021  0.00  0.00    -0.059 NA
ATOM      3  N   UNL d   1      14.500  12.305  -2.391  0.00  0.00    -0.059 NA
ATOM      4  C   UNL d   1      13.730  11.962  -1.367  0.00  0.00     0.118 A 
ATOM      5  C   UNL d   1      14.499  12.160  -1.595  0.00  0.00     0.118 A 
ATOM      6  C   UNL d   1      13.551  11.780  -0.569  0.00  0.00     0.021 A 
ATOM      7  C   UNL d   1      15.097  12.178  -1.028  0.00  0.00     0.021 A 
ATOM      8  C   UNL d   1      14.172  11.805  -0.014  0.00  0.00     0.002 A 
ATOM      9  C   UNL d   1      14.941  12.003  -0.242  0.00  0.00     0.002 A 
ENDROOT
BRANCH   1  10
ATOM     10  N   UNL d   1      13.421  12.278  -3.445  0.00  0.00    -0.133 N 
ATOM     11  C   UNL d   1      13.309  11.779  -4.055  0.00  0.00     0.125 A 
ATOM     12  C   UNL d   1      12.990  12.033  -4.767  0.00  0.00     0.142 A 
ATOM     13  O   UNL d   1      12.773  12.816  -4.876  0.00  0.00    -0.300 OA
ATOM     14  C   UNL d   1      12.893  13.360  -4.216  0.00  0.00     0.142 A 
ATOM     15  C   UNL d   1      13.210  13.080  -3.526  0.00  0.00     0.125 A 
ENDBRANCH   1  10
TORSDOF 1
ENDMDL
MODEL 2
REMARK VINA RESULT:       8.6      1.495      3.464
REMARK  1 active torsions:
REMARK  status: ('A' for Active; 'I' for Inactive)
REMARK    1  A    between atoms: N_4  and  C_1 
ROOT
ATOM      1  C   UNL d   1      13.868  12.347  -2.260  0.00  0.00     0.735 A 
ATOM      2  N   UNL d   1      13.470  11.780  -2.732  0.00  0.00    -0.059 NA
ATOM      3  N   UNL d   1      13.905  13.043  -2.735  0.00  0.00    -0.059 NA
ATOM      4  C   UNL d   1      13.281  12.113  -3.444  0.00  0.00     0.118 A 
ATOM      5  C   UNL d   1      13.550  12.894  -3.446  0.00  0.00     0.118 A 
ATOM      6  C   UNL d   1      12.885  11.792  -4.110  0.00  0.00     0.021 A 
ATOM      7  C   UNL d   1      13.426  13.363  -4.113  0.00  0.00     0.021 A 
ATOM      8  C   UNL d   1      12.773  12.285  -4.772  0.00  0.00     0.002 A 
ATOM      9  C   UNL d   1      13.042  13.066  -4.774  0.00  0.00     0.002 A 
ENDROOT
BRANCH   1  10
ATOM     10  N   UNL d   1      14.141  12.204  -1.504  0.00  0.00    -0.133 N 
ATOM     11  C   UNL d   1      13.838  11.854  -0.857  0.00  0.00     0.125 A 
ATOM     12  C   UNL d   1      14.263  11.794  -0.158  0.00  0.00     0.142 A 
ATOM     13  O   UNL d   1      15.023  12.097  -0.101  0.00  0.00    -0.300 OA
ATOM     14  C   UNL d   1      15.355  12.479  -0.801  0.00  0.00     0.142 A 
ATOM     15  C   UNL d   1      14.912  12.522  -1.476  0.00  0.00     0.125 A 
ENDBRANCH   1  10
TORSDOF 1
ENDMDL
