MODEL 1
REMARK VINA RESULT:      59.1      0.000      0.000
REMARK  4 active torsions:
REMARK  status: ('A' for Active; 'I' for Inactive)
REMARK    1  A    between atoms: S_5  and  C_2 
REMARK    2  A    between atoms: C_15  and  S_5 
REMARK    3  A    between atoms: N_11  and  C_8 
REMARK    4  A    between atoms: C_12  and  N_11 
ROOT
ATOM      1  C   UNL d   1      45.924 -17.407  43.704  0.00  0.00     0.197 A 
ATOM      2  C   UNL d   1      45.685 -16.831  44.249  0.00  0.00     0.227 A 
ATOM      3  N   UNL d   1      45.872 -18.144  44.075  0.00  0.00    -0.192 N 
ATOM      4  N   UNL d   1      46.182 -17.358  42.921  0.00  0.00    -0.206 NA
ATOM      5  N   UNL d   1      45.485 -17.212  44.955  0.00  0.00    -0.115 NA
ATOM      6  N   UNL d   1      45.600 -18.027  44.850  0.00  0.00    -0.058 NA
ATOM      7  C   UNL d   1      46.389 -18.046  42.507  0.00  0.00     0.166 A 
ATOM      8  C   UNL d   1      46.335 -18.779  42.883  0.00  0.00     0.054 A 
ATOM      9  C   UNL d   1      46.078 -18.836  43.665  0.00  0.00     0.089 A 
ATOM     10  C   UNL d   1      46.541 -19.471  42.472  0.00  0.00     0.005 A 
ATOM     11  C   UNL d   1      46.025 -19.569  44.036  0.00  0.00     0.019 A 
ATOM     12  C   UNL d   1      46.488 -20.203  42.844  0.00  0.00     0.000 A 
ATOM     13  C   UNL d   1      46.230 -20.252  43.626  0.00  0.00     0.002 A 
ENDROOT
BRANCH   2  14
ATOM     14  S   UNL d   1      45.652 -16.018  44.109  0.00  0.00     0.231 S 
ATOM     15  O   UNL d   1      46.386 -15.951  44.477  0.00  0.00    -0.215 OA
ATOM     16  O   UNL d   1      44.919 -16.088  43.742  0.00  0.00    -0.215 OA
BRANCH  14  17
ATOM     17  C   UNL d   1      45.658 -15.207  43.989  0.00  0.00     0.090 A 
ATOM     18  C   UNL d   1      46.368 -14.794  43.955  0.00  0.00     0.011 A 
ATOM     19  C   UNL d   1      46.372 -13.987  43.836  0.00  0.00     0.001 A 
ATOM     20  C   UNL d   1      45.657 -13.578  43.748  0.00  0.00     0.000 A 
ATOM     21  C   UNL d   1      44.942 -13.994  43.783  0.00  0.00     0.001 A 
ATOM     22  C   UNL d   1      44.942 -14.802  43.902  0.00  0.00     0.011 A 
ENDBRANCH  14  17
ENDBRANCH   2  14
BRANCH   7  23
ATOM     23  N   UNL d   1      46.647 -17.997  41.724  0.00  0.00    -0.227 NA
BRANCH  23  24
ATOM     24  C   UNL d   1      46.148 -18.224  41.111  0.00  0.00     0.083 A 
ATOM     25  C   UNL d   1      45.406 -17.869  41.029  0.00  0.00     0.019 A 
ATOM     26  C   UNL d   1      44.907 -18.097  40.415  0.00  0.00     0.002 A 
ATOM     27  C   UNL d   1      44.166 -17.743  40.333  0.00  0.00     0.000 C 
ATOM     28  C   UNL d   1      45.146 -18.681  39.877  0.00  0.00     0.000 A 
ATOM     29  C   UNL d   1      45.892 -19.033  39.966  0.00  0.00     0.002 A 
ATOM     30  C   UNL d   1      46.388 -18.805  40.579  0.00  0.00     0.019 A 
ATOM     31  C   UNL d   1      46.133 -19.613  39.435  0.00  0.00     0.000 C 
ENDBRANCH  23  24
ENDBRANCH   7  23
TORSDOF 4
ENDMDL
