MODEL 1
REMARK VINA RESULT:      41.1      0.000      0.000
REMARK  6 active torsions:
REMARK  status: ('A' for Active; 'I' for Inactive)
REMARK    1  A    between atoms: C_8  and  C_1 
REMARK    2  A    between atoms: N_7  and  C_2 
REMARK    3  A    between atoms: C_10  and  C_4 
REMARK       I    between atoms: C_6  and  N_7 
REMARK       I    between atoms: N_9  and  C_6 
REMARK    4  A    between atoms: O_13  and  C_8 
REMARK    5  A    between atoms: C_14  and  N_9 
REMARK    6  A    between atoms: C_17  and  O_13 
ROOT
ATOM      1  C   UNL d   1      14.148  12.445  -1.904  0.00  0.00     0.111 A 
ATOM      2  C   UNL d   1      14.316  13.230  -2.043  0.00  0.00     0.098 A 
ATOM      3  S   UNL d   1      13.849  12.135  -2.603  0.00  0.00    -0.080 SA
ATOM      4  C   UNL d   1      13.836  12.736  -3.164  0.00  0.00     0.031 A 
ATOM      5  C   UNL d   1      14.131  13.423  -2.807  0.00  0.00     0.026 A 
ENDROOT
BRANCH   2   6
ATOM      6  N   UNL d   1      14.628  13.722  -1.459  0.00  0.00    -0.190 NA
ATOM      7  C   UNL d   1      14.700  14.509  -1.600  0.00  0.00     0.369 C 
ATOM      8  N   UNL d   1      15.010  15.018  -1.028  0.00  0.00    -0.191 NA
ATOM      9  O   UNL d   1      14.460  14.808  -2.322  0.00  0.00    -0.242 OA
BRANCH   8  10
ATOM     10  C   UNL d   1      15.083  15.839  -1.180  0.00  0.00     0.086 A 
ATOM     11  C   UNL d   1      15.017  16.101  -1.968  0.00  0.00     0.019 A 
ATOM     12  C   UNL d   1      15.087  16.900  -2.120  0.00  0.00     0.002 A 
ATOM     13  C   UNL d   1      15.221  17.433  -1.503  0.00  0.00     0.000 A 
ATOM     14  C   UNL d   1      15.285  17.169  -0.730  0.00  0.00     0.002 A 
ATOM     15  C   UNL d   1      15.217  16.378  -0.568  0.00  0.00     0.019 A 
ENDBRANCH   8  10
ENDBRANCH   2   6
BRANCH   1  16
ATOM     16  C   UNL d   1      14.262  12.032  -1.180  0.00  0.00     0.308 C 
ATOM     17  O   UNL d   1      13.625  11.868  -0.676  0.00  0.00    -0.258 OA
BRANCH  16  18
ATOM     18  O   UNL d   1      15.007  11.788  -0.968  0.00  0.00    -0.271 OA
BRANCH  18  19
ATOM     19  C   UNL d   1      15.303  11.971  -0.185  0.00  0.00     0.126 C 
ATOM     20  C   UNL d   1      16.137  11.857  -0.044  0.00  0.00     0.029 C 
ENDBRANCH  18  19
ENDBRANCH  16  18
ENDBRANCH   1  16
BRANCH   4  21
ATOM     21  C   UNL d   1      13.563  12.583  -3.913  0.00  0.00     0.006 A 
ATOM     22  C   UNL d   1      13.790  13.064  -4.563  0.00  0.00     0.001 A 
ATOM     23  C   UNL d   1      13.509  12.902  -5.321  0.00  0.00     0.000 A 
ATOM     24  C   UNL d   1      13.020  12.290  -5.448  0.00  0.00     0.000 A 
ATOM     25  C   UNL d   1      12.773  11.781  -4.793  0.00  0.00     0.000 A 
ATOM     26  C   UNL d   1      13.054  11.946  -4.046  0.00  0.00     0.001 A 
ENDBRANCH   4  21
TORSDOF 6
ENDMDL
MODEL 2
REMARK VINA RESULT:      43.6      1.794      3.420
REMARK  6 active torsions:
REMARK  status: ('A' for Active; 'I' for Inactive)
REMARK    1  A    between atoms: C_8  and  C_1 
REMARK    2  A    between atoms: N_7  and  C_2 
REMARK    3  A    between atoms: C_10  and  C_4 
REMARK       I    between atoms: C_6  and  N_7 
REMARK       I    between atoms: N_9  and  C_6 
REMARK    4  A    between atoms: O_13  and  C_8 
REMARK    5  A    between atoms: C_14  and  N_9 
REMARK    6  A    between atoms: C_17  and  O_13 
ROOT
ATOM      1  C   UNL d   1      13.473  12.955  -3.428  0.00  0.00     0.111 A 
ATOM      2  C   UNL d   1      13.685  13.705  -3.192  0.00  0.00     0.098 A 
ATOM      3  S   UNL d   1      13.671  12.445  -2.814  0.00  0.00    -0.080 SA
ATOM      4  C   UNL d   1      14.004  12.891  -2.209  0.00  0.00     0.031 A 
ATOM      5  C   UNL d   1      14.010  13.683  -2.451  0.00  0.00     0.026 A 
ENDROOT
BRANCH   2   6
ATOM      6  N   UNL d   1      13.566  14.365  -3.673  0.00  0.00    -0.190 NA
ATOM      7  C   UNL d   1      14.100  14.965  -3.661  0.00  0.00     0.369 C 
ATOM      8  N   UNL d   1      14.000  15.634  -4.135  0.00  0.00    -0.191 NA
ATOM      9  O   UNL d   1      14.752  14.909  -3.171  0.00  0.00    -0.242 OA
BRANCH   8  10
ATOM     10  C   UNL d   1      14.560  16.258  -4.119  0.00  0.00     0.086 A 
ATOM     11  C   UNL d   1      14.974  16.432  -4.820  0.00  0.00     0.019 A 
ATOM     12  C   UNL d   1      15.521  17.039  -4.809  0.00  0.00     0.002 A 
ATOM     13  C   UNL d   1      15.656  17.467  -4.115  0.00  0.00     0.000 A 
ATOM     14  C   UNL d   1      15.245  17.290  -3.429  0.00  0.00     0.002 A 
ATOM     15  C   UNL d   1      14.700  16.690  -3.430  0.00  0.00     0.019 A 
ENDBRANCH   8  10
ENDBRANCH   2   6
BRANCH   1  16
ATOM     16  C   UNL d   1      13.118  12.744  -4.160  0.00  0.00     0.308 C 
ATOM     17  O   UNL d   1      12.769  13.316  -4.647  0.00  0.00    -0.258 OA
BRANCH  16  18
ATOM     18  O   UNL d   1      13.115  11.967  -4.398  0.00  0.00    -0.271 OA
BRANCH  18  19
ATOM     19  C   UNL d   1      12.967  11.779  -5.220  0.00  0.00     0.126 C 
ATOM     20  C   UNL d   1      13.593  11.937  -5.779  0.00  0.00     0.029 C 
ENDBRANCH  18  19
ENDBRANCH  16  18
ENDBRANCH   1  16
BRANCH   4  21
ATOM     21  C   UNL d   1      14.252  12.525  -1.528  0.00  0.00     0.006 A 
ATOM     22  C   UNL d   1      13.715  12.361  -0.904  0.00  0.00     0.001 A 
ATOM     23  C   UNL d   1      13.975  11.989  -0.216  0.00  0.00     0.000 A 
ATOM     24  C   UNL d   1      14.735  11.779  -0.133  0.00  0.00     0.000 A 
ATOM     25  C   UNL d   1      15.307  11.938  -0.763  0.00  0.00     0.000 A 
ATOM     26  C   UNL d   1      15.044  12.306  -1.441  0.00  0.00     0.001 A 
ENDBRANCH   4  21
TORSDOF 6
ENDMDL
