MODEL 1
REMARK VINA RESULT:      65.0      0.000      0.000
REMARK  4 active torsions:
REMARK  status: ('A' for Active; 'I' for Inactive)
REMARK    1  A    between atoms: C_7  and  C_1 
REMARK    2  A    between atoms: N_5  and  C_2 
REMARK    3  A    between atoms: C_12  and  N_5 
REMARK    4  A    between atoms: O_21  and  C_14 
ROOT
ATOM      1  C   UNL d   1     -50.678  26.661  34.415  0.00  0.00     0.101 A 
ATOM      2  C   UNL d   1     -51.415  26.268  34.361  0.00  0.00     0.187 A 
ATOM      3  C   UNL d   1     -50.394  26.883  35.156  0.00  0.00     0.010 A 
ATOM      4  O   UNL d   1     -51.844  26.110  35.051  0.00  0.00    -0.289 OA
ATOM      5  C   UNL d   1     -51.554  26.334  35.790  0.00  0.00     0.104 A 
ATOM      6  C   UNL d   1     -50.817  26.728  35.843  0.00  0.00     0.023 A 
ATOM      7  C   UNL d   1     -51.983  26.176  36.479  0.00  0.00     0.049 A 
ATOM      8  C   UNL d   1     -50.533  26.950  36.585  0.00  0.00     0.004 A 
ATOM      9  C   UNL d   1     -51.694  26.401  37.221  0.00  0.00     0.096 A 
ATOM     10  C   UNL d   1     -50.957  26.794  37.275  0.00  0.00     0.024 A 
ENDROOT
BRANCH   2  11
ATOM     11  N   UNL d   1     -51.705  26.043  33.625  0.00  0.00    -0.222 NA
BRANCH  11  12
ATOM     12  C   UNL d   1     -52.112  25.317  33.543  0.00  0.00     0.084 A 
ATOM     13  C   UNL d   1     -51.692  24.625  33.388  0.00  0.00     0.019 A 
ATOM     14  C   UNL d   1     -52.095  23.906  33.307  0.00  0.00     0.002 A 
ATOM     15  C   UNL d   1     -52.909  23.896  33.384  0.00  0.00     0.000 A 
ATOM     16  C   UNL d   1     -53.333  24.575  33.537  0.00  0.00     0.002 A 
ATOM     17  C   UNL d   1     -53.326  23.188  33.306  0.00  0.00     0.000 C 
ATOM     18  C   UNL d   1     -52.930  25.293  33.618  0.00  0.00     0.019 A 
ENDBRANCH  11  12
ENDBRANCH   2  11
BRANCH   1  19
ATOM     19  C   UNL d   1     -50.239  26.825  33.732  0.00  0.00     0.300 C 
ATOM     20  O   UNL d   1     -49.650  26.313  33.483  0.00  0.00    -0.264 OA
ATOM     21  N   UNL d   1     -50.404  27.513  33.306  0.00  0.00    -0.102 N 
ENDBRANCH   1  19
BRANCH   9  22
ATOM     22  O   UNL d   1     -52.114  26.246  37.902  0.00  0.00    -0.328 OA
ATOM     23  C   UNL d   1     -51.850  25.657  38.415  0.00  0.00     0.181 C 
ENDBRANCH   9  22
TORSDOF 4
ENDMDL
