MODEL 1
REMARK VINA RESULT:      -4.3      0.000      0.000
REMARK  5 active torsions:
REMARK  status: ('A' for Active; 'I' for Inactive)
REMARK    1  A    between atoms: N_6  and  C_1 
REMARK    2  A    between atoms: C_8  and  C_2 
REMARK    3  A    between atoms: C_10  and  C_3 
REMARK       I    between atoms: C_7  and  N_6 
REMARK    4  A    between atoms: C_18  and  C_7 
REMARK    5  A    between atoms: C_17  and  C_10 
ROOT
ATOM      1  C   UNL d   1     -41.483-122.241 -52.067  0.00  0.00     0.119 A 
ATOM      2  C   UNL d   1     -41.334-121.720 -51.450  0.00  0.00     0.084 A 
ATOM      3  C   UNL d   1     -41.381-122.961 -50.945  0.00  0.00     0.031 A 
ATOM      4  S   UNL d   1     -41.514-123.011 -51.764  0.00  0.00    -0.068 SA
ATOM      5  C   UNL d   1     -41.271-122.167 -50.755  0.00  0.00     0.013 A 
ATOM      6  C   UNL d   1     -41.123-121.873 -49.994  0.00  0.00     0.001 C 
ENDROOT
BRANCH   3   7
ATOM      7  C   UNL d   1     -41.347-123.545 -50.350  0.00  0.00     0.007 C 
BRANCH   7   8
ATOM      8  C   UNL d   1     -41.974-123.615 -49.806  0.00  0.00     0.003 A 
ATOM      9  C   UNL d   1     -41.819-123.549 -48.993  0.00  0.00     0.026 A 
ATOM     10  C   UNL d   1     -42.432-123.617 -48.448  0.00  0.00     0.119 A 
ATOM     11  O   UNL d   1     -42.444-123.577 -47.630  0.00  0.00    -0.300 OA
ATOM     12  C   UNL d   1     -43.203-123.751 -48.709  0.00  0.00     0.119 A 
ATOM     13  C   UNL d   1     -43.218-123.685 -47.381  0.00  0.00     0.304 A 
ATOM     14  O   UNL d   1     -43.686-123.792 -48.050  0.00  0.00    -0.300 OA
ATOM     15  C   UNL d   1     -43.361-123.816 -49.514  0.00  0.00     0.026 A 
ATOM     16  C   UNL d   1     -42.745-123.748 -50.067  0.00  0.00     0.002 A 
ENDBRANCH   7   8
ENDBRANCH   3   7
BRANCH   1  17
ATOM     17  N   UNL d   1     -41.588-122.028 -52.873  0.00  0.00    -0.201 NA
ATOM     18  C   UNL d   1     -41.754-122.616 -53.441  0.00  0.00     0.280 C 
ATOM     19  O   UNL d   1     -41.817-123.407 -53.218  0.00  0.00    -0.265 OA
BRANCH  18  20
ATOM     20  C   UNL d   1     -41.856-122.400 -54.235  0.00  0.00     0.058 A 
ATOM     21  C   UNL d   1     -42.522-121.975 -54.472  0.00  0.00     0.005 A 
ATOM     22  C   UNL d   1     -42.626-121.759 -55.259  0.00  0.00     0.000 A 
ATOM     23  C   UNL d   1     -42.058-121.968 -55.824  0.00  0.00     0.000 A 
ATOM     24  C   UNL d   1     -41.390-122.395 -55.582  0.00  0.00     0.000 A 
ATOM     25  C   UNL d   1     -41.289-122.608 -54.797  0.00  0.00     0.005 A 
ENDBRANCH  18  20
ENDBRANCH   1  17
BRANCH   2  26
ATOM     26  C   UNL d   1     -41.259-120.899 -51.499  0.00  0.00     0.299 C 
ATOM     27  O   UNL d   1     -41.143-120.524 -52.295  0.00  0.00    -0.264 OA
ATOM     28  N   UNL d   1     -41.288-120.460 -50.871  0.00  0.00    -0.102 N 
ENDBRANCH   2  26
TORSDOF 5
ENDMDL
MODEL 2
REMARK VINA RESULT:      -1.4      1.338      5.118
REMARK  5 active torsions:
REMARK  status: ('A' for Active; 'I' for Inactive)
REMARK    1  A    between atoms: N_6  and  C_1 
REMARK    2  A    between atoms: C_8  and  C_2 
REMARK    3  A    between atoms: C_10  and  C_3 
REMARK       I    between atoms: C_7  and  N_6 
REMARK    4  A    between atoms: C_18  and  C_7 
REMARK    5  A    between atoms: C_17  and  C_10 
ROOT
ATOM      1  C   UNL d   1     -41.759-122.423 -51.226  0.00  0.00     0.119 A 
ATOM      2  C   UNL d   1     -41.597-121.678 -51.528  0.00  0.00     0.084 A 
ATOM      3  C   UNL d   1     -41.355-122.578 -52.491  0.00  0.00     0.031 A 
ATOM      4  S   UNL d   1     -41.612-122.987 -51.815  0.00  0.00    -0.068 SA
ATOM      5  C   UNL d   1     -41.346-121.774 -52.312  0.00  0.00     0.013 A 
ATOM      6  C   UNL d   1     -41.123-121.170 -52.834  0.00  0.00     0.001 C 
ENDROOT
BRANCH   3   7
ATOM      7  C   UNL d   1     -41.127-122.843 -53.249  0.00  0.00     0.007 C 
BRANCH   7   8
ATOM      8  C   UNL d   1     -41.645-122.744 -53.893  0.00  0.00     0.003 A 
ATOM      9  C   UNL d   1     -41.399-122.302 -54.552  0.00  0.00     0.026 A 
ATOM     10  C   UNL d   1     -41.905-122.199 -55.192  0.00  0.00     0.119 A 
ATOM     11  O   UNL d   1     -41.815-121.800 -55.902  0.00  0.00    -0.300 OA
ATOM     12  C   UNL d   1     -42.659-122.535 -55.182  0.00  0.00     0.119 A 
ATOM     13  C   UNL d   1     -42.507-121.886 -56.333  0.00  0.00     0.304 A 
ATOM     14  O   UNL d   1     -43.028-122.341 -55.886  0.00  0.00    -0.300 OA
ATOM     15  C   UNL d   1     -42.906-122.973 -54.531  0.00  0.00     0.026 A 
ATOM     16  C   UNL d   1     -42.398-123.080 -53.882  0.00  0.00     0.002 A 
ENDBRANCH   7   8
ENDBRANCH   3   7
BRANCH   1  17
ATOM     17  N   UNL d   1     -42.030-122.588 -50.448  0.00  0.00    -0.201 NA
ATOM     18  C   UNL d   1     -41.762-123.270 -50.049  0.00  0.00     0.280 C 
ATOM     19  O   UNL d   1     -41.231-123.785 -50.413  0.00  0.00    -0.265 OA
BRANCH  18  20
ATOM     20  C   UNL d   1     -42.033-123.427 -49.281  0.00  0.00     0.058 A 
ATOM     21  C   UNL d   1     -42.834-123.355 -49.096  0.00  0.00     0.005 A 
ATOM     22  C   UNL d   1     -43.106-123.510 -48.336  0.00  0.00     0.000 A 
ATOM     23  C   UNL d   1     -42.574-123.743 -47.745  0.00  0.00     0.000 A 
ATOM     24  C   UNL d   1     -41.771-123.814 -47.935  0.00  0.00     0.000 A 
ATOM     25  C   UNL d   1     -41.503-123.658 -48.694  0.00  0.00     0.005 A 
ENDBRANCH  18  20
ENDBRANCH   1  17
BRANCH   2  26
ATOM     26  C   UNL d   1     -41.666-120.954 -51.134  0.00  0.00     0.299 C 
ATOM     27  O   UNL d   1     -42.297-120.860 -50.516  0.00  0.00    -0.264 OA
ATOM     28  N   UNL d   1     -41.197-120.369 -51.294  0.00  0.00    -0.102 N 
ENDBRANCH   2  26
TORSDOF 5
ENDMDL
