MODEL 1
REMARK VINA RESULT:      -7.0      0.000      0.000
REMARK  4 active torsions:
REMARK  status: ('A' for Active; 'I' for Inactive)
REMARK    1  A    between atoms: S_6  and  C_1 
REMARK    2  A    between atoms: C_19  and  S_6 
REMARK    3  A    between atoms: C_7  and  C_19 
REMARK       I    between atoms: N_10  and  C_7 
REMARK    4  A    between atoms: C_14  and  N_10 
ROOT
ATOM      1  C   UNL d   1     -46.987  12.797  22.786  0.00  0.00     0.286 C 
ATOM      2  N   UNL d   1     -46.559  12.612  23.461  0.00  0.00    -0.207 NA
ATOM      3  O   UNL d   1     -46.938  12.303  22.125  0.00  0.00    -0.265 OA
ENDROOT
BRANCH   1   4
ATOM      4  C   UNL d   1     -47.459  13.466  22.765  0.00  0.00     0.099 C 
BRANCH   4   5
ATOM      5  S   UNL d   1     -48.216  13.428  22.455  0.00  0.00    -0.062 SA
BRANCH   5   6
ATOM      6  C   UNL d   1     -48.719  14.081  22.499  0.00  0.00     0.114 A 
ATOM      7  C   UNL d   1     -49.490  14.030  22.219  0.00  0.00     0.042 A 
ATOM      8  C   UNL d   1     -49.993  14.685  22.262  0.00  0.00     0.085 A 
ATOM      9  C   UNL d   1     -49.760  13.321  21.894  0.00  0.00     0.004 A 
ATOM     10  C   UNL d   1     -50.767  14.630  21.981  0.00  0.00     0.019 A 
ATOM     11  N   UNL d   1     -49.726  15.391  22.586  0.00  0.00    -0.224 NA
ATOM     12  C   UNL d   1     -51.037  13.922  21.656  0.00  0.00     0.002 A 
ATOM     13  C   UNL d   1     -50.534  13.267  21.613  0.00  0.00     0.000 A 
ATOM     14  C   UNL d   1     -48.952  15.445  22.867  0.00  0.00     0.200 A 
ATOM     15  N   UNL d   1     -48.449  14.791  22.824  0.00  0.00    -0.217 NA
ENDBRANCH   5   6
ENDBRANCH   4   5
ENDBRANCH   1   4
BRANCH   2  16
ATOM     16  C   UNL d   1     -46.083  11.940  23.484  0.00  0.00     0.087 A 
ATOM     17  C   UNL d   1     -45.283  12.005  23.317  0.00  0.00     0.045 A 
ATOM     18  C   UNL d   1     -44.805  11.331  23.340  0.00  0.00     0.121 A 
ATOM     19  O   UNL d   1     -43.995  11.228  23.199  0.00  0.00    -0.299 OA
ATOM     20  C   UNL d   1     -45.132  10.602  23.530  0.00  0.00     0.119 A 
ATOM     21  C   UNL d   1     -43.831  10.430  23.306  0.00  0.00     0.304 A 
ATOM     22  O   UNL d   1     -44.529  10.039  23.510  0.00  0.00    -0.300 OA
ATOM     23  C   UNL d   1     -45.937  10.548  23.697  0.00  0.00     0.028 A 
ATOM     24  C   UNL d   1     -46.412  11.211  23.675  0.00  0.00     0.021 A 
ENDBRANCH   2  16
TORSDOF 4
ENDMDL
MODEL 2
REMARK VINA RESULT:      -6.8      1.180      1.500
REMARK  4 active torsions:
REMARK  status: ('A' for Active; 'I' for Inactive)
REMARK    1  A    between atoms: S_6  and  C_1 
REMARK    2  A    between atoms: C_19  and  S_6 
REMARK    3  A    between atoms: C_7  and  C_19 
REMARK       I    between atoms: N_10  and  C_7 
REMARK    4  A    between atoms: C_14  and  N_10 
ROOT
ATOM      1  C   UNL d   1     -46.583  13.729  22.885  0.00  0.00     0.286 C 
ATOM      2  N   UNL d   1     -46.306  13.274  22.260  0.00  0.00    -0.207 NA
ATOM      3  O   UNL d   1     -46.143  13.769  23.584  0.00  0.00    -0.265 OA
ENDROOT
BRANCH   1   4
ATOM      4  C   UNL d   1     -47.288  14.140  22.818  0.00  0.00     0.099 C 
BRANCH   4   5
ATOM      5  S   UNL d   1     -47.990  13.797  23.064  0.00  0.00    -0.062 SA
BRANCH   5   6
ATOM      6  C   UNL d   1     -48.703  14.208  22.991  0.00  0.00     0.114 A 
ATOM      7  C   UNL d   1     -49.419  13.815  23.089  0.00  0.00     0.042 A 
ATOM      8  C   UNL d   1     -50.132  14.227  23.016  0.00  0.00     0.085 A 
ATOM      9  C   UNL d   1     -49.421  13.008  23.260  0.00  0.00     0.004 A 
ATOM     10  C   UNL d   1     -50.849  13.830  23.114  0.00  0.00     0.019 A 
ATOM     11  N   UNL d   1     -50.131  15.030  22.845  0.00  0.00    -0.224 NA
ATOM     12  C   UNL d   1     -50.853  13.023  23.286  0.00  0.00     0.002 A 
ATOM     13  C   UNL d   1     -50.139  12.612  23.359  0.00  0.00     0.000 A 
ATOM     14  C   UNL d   1     -49.414  15.426  22.746  0.00  0.00     0.200 A 
ATOM     15  N   UNL d   1     -48.700  15.015  22.819  0.00  0.00    -0.217 NA
ENDBRANCH   5   6
ENDBRANCH   4   5
ENDBRANCH   1   4
BRANCH   2  16
ATOM     16  C   UNL d   1     -45.597  12.861  22.324  0.00  0.00     0.087 A 
ATOM     17  C   UNL d   1     -45.558  12.197  22.805  0.00  0.00     0.045 A 
ATOM     18  C   UNL d   1     -44.848  11.781  22.870  0.00  0.00     0.121 A 
ATOM     19  O   UNL d   1     -44.646  11.105  23.304  0.00  0.00    -0.299 OA
ATOM     20  C   UNL d   1     -44.185  12.033  22.454  0.00  0.00     0.119 A 
ATOM     21  C   UNL d   1     -43.855  10.947  23.149  0.00  0.00     0.304 A 
ATOM     22  O   UNL d   1     -43.565  11.515  22.626  0.00  0.00    -0.300 OA
ATOM     23  C   UNL d   1     -44.235  12.701  21.974  0.00  0.00     0.028 A 
ATOM     24  C   UNL d   1     -44.935  13.113  21.908  0.00  0.00     0.021 A 
ENDBRANCH   2  16
TORSDOF 4
ENDMDL
MODEL 3
REMARK VINA RESULT:      -6.2      1.955      5.506
REMARK  4 active torsions:
REMARK  status: ('A' for Active; 'I' for Inactive)
REMARK    1  A    between atoms: S_6  and  C_1 
REMARK    2  A    between atoms: C_19  and  S_6 
REMARK    3  A    between atoms: C_7  and  C_19 
REMARK       I    between atoms: N_10  and  C_7 
REMARK    4  A    between atoms: C_14  and  N_10 
ROOT
ATOM      1  C   UNL d   1     -47.737  13.417  22.944  0.00  0.00     0.286 C 
ATOM      2  N   UNL d   1     -48.516  13.187  23.061  0.00  0.00    -0.207 NA
ATOM      3  O   UNL d   1     -47.579  14.162  22.622  0.00  0.00    -0.265 OA
ENDROOT
BRANCH   1   4
ATOM      4  C   UNL d   1     -47.122  12.916  23.144  0.00  0.00     0.099 C 
BRANCH   4   5
ATOM      5  S   UNL d   1     -46.391  12.994  22.783  0.00  0.00    -0.062 SA
BRANCH   5   6
ATOM      6  C   UNL d   1     -45.795  12.441  22.922  0.00  0.00     0.114 A 
ATOM      7  C   UNL d   1     -45.083  12.487  22.514  0.00  0.00     0.042 A 
ATOM      8  C   UNL d   1     -44.485  11.933  22.654  0.00  0.00     0.085 A 
ATOM      9  C   UNL d   1     -44.967  13.090  21.963  0.00  0.00     0.004 A 
ATOM     10  C   UNL d   1     -43.772  11.982  22.243  0.00  0.00     0.019 A 
ATOM     11  N   UNL d   1     -44.599  11.332  23.203  0.00  0.00    -0.224 NA
ATOM     12  C   UNL d   1     -43.656  12.584  21.692  0.00  0.00     0.002 A 
ATOM     13  C   UNL d   1     -44.253  13.139  21.552  0.00  0.00     0.000 A 
ATOM     14  C   UNL d   1     -45.313  11.283  23.614  0.00  0.00     0.200 A 
ATOM     15  N   UNL d   1     -45.910  11.838  23.474  0.00  0.00    -0.217 NA
ENDBRANCH   5   6
ENDBRANCH   4   5
ENDBRANCH   1   4
BRANCH   2  16
ATOM     16  C   UNL d   1     -49.137  13.689  22.860  0.00  0.00     0.087 A 
ATOM     17  C   UNL d   1     -49.458  14.183  23.431  0.00  0.00     0.045 A 
ATOM     18  C   UNL d   1     -50.081  14.688  23.231  0.00  0.00     0.121 A 
ATOM     19  O   UNL d   1     -50.508  15.237  23.681  0.00  0.00    -0.299 OA
ATOM     20  C   UNL d   1     -50.375  14.692  22.464  0.00  0.00     0.119 A 
ATOM     21  C   UNL d   1     -51.064  15.577  23.181  0.00  0.00     0.304 A 
ATOM     22  O   UNL d   1     -50.987  15.245  22.429  0.00  0.00    -0.300 OA
ATOM     23  C   UNL d   1     -50.045  14.192  21.898  0.00  0.00     0.028 A 
ATOM     24  C   UNL d   1     -49.431  13.693  22.093  0.00  0.00     0.021 A 
ENDBRANCH   2  16
TORSDOF 4
ENDMDL
MODEL 4
REMARK VINA RESULT:      -5.4      8.649      9.820
REMARK  4 active torsions:
REMARK  status: ('A' for Active; 'I' for Inactive)
REMARK    1  A    between atoms: S_6  and  C_1 
REMARK    2  A    between atoms: C_19  and  S_6 
REMARK    3  A    between atoms: C_7  and  C_19 
REMARK       I    between atoms: N_10  and  C_7 
REMARK    4  A    between atoms: C_14  and  N_10 
ROOT
ATOM      1  C   UNL d   1     -40.054  15.235  19.665  0.00  0.00     0.286 C 
ATOM      2  N   UNL d   1     -39.951  15.817  19.095  0.00  0.00    -0.207 NA
ATOM      3  O   UNL d   1     -40.380  14.507  19.447  0.00  0.00    -0.265 OA
ENDROOT
BRANCH   1   4
ATOM      4  C   UNL d   1     -39.835  15.372  20.442  0.00  0.00     0.099 C 
BRANCH   4   5
ATOM      5  S   UNL d   1     -39.445  14.793  20.870  0.00  0.00    -0.062 SA
BRANCH   5   6
ATOM      6  C   UNL d   1     -39.232  14.927  21.656  0.00  0.00     0.114 A 
ATOM      7  C   UNL d   1     -38.854  14.340  22.089  0.00  0.00     0.042 A 
ATOM      8  C   UNL d   1     -38.641  14.474  22.876  0.00  0.00     0.085 A 
ATOM      9  C   UNL d   1     -38.688  13.614  21.733  0.00  0.00     0.004 A 
ATOM     10  C   UNL d   1     -38.261  13.882  23.308  0.00  0.00     0.019 A 
ATOM     11  N   UNL d   1     -38.806  15.196  23.232  0.00  0.00    -0.224 NA
ATOM     12  C   UNL d   1     -38.095  13.156  22.953  0.00  0.00     0.002 A 
ATOM     13  C   UNL d   1     -38.308  13.022  22.165  0.00  0.00     0.000 A 
ATOM     14  C   UNL d   1     -39.185  15.787  22.800  0.00  0.00     0.200 A 
ATOM     15  N   UNL d   1     -39.399  15.653  22.013  0.00  0.00    -0.217 NA
ENDBRANCH   5   6
ENDBRANCH   4   5
ENDBRANCH   1   4
BRANCH   2  16
ATOM     16  C   UNL d   1     -40.170  15.681  18.313  0.00  0.00     0.087 A 
ATOM     17  C   UNL d   1     -40.947  15.808  18.082  0.00  0.00     0.045 A 
ATOM     18  C   UNL d   1     -41.168  15.672  17.298  0.00  0.00     0.121 A 
ATOM     19  O   UNL d   1     -41.896  15.750  16.912  0.00  0.00    -0.299 OA
ATOM     20  C   UNL d   1     -40.610  15.411  16.754  0.00  0.00     0.119 A 
ATOM     21  C   UNL d   1     -41.778  15.535  16.128  0.00  0.00     0.304 A 
ATOM     22  O   UNL d   1     -40.986  15.325  16.025  0.00  0.00    -0.300 OA
ATOM     23  C   UNL d   1     -39.832  15.287  16.996  0.00  0.00     0.028 A 
ATOM     24  C   UNL d   1     -39.611  15.420  17.770  0.00  0.00     0.021 A 
ENDBRANCH   2  16
TORSDOF 4
ENDMDL
MODEL 5
REMARK VINA RESULT:      -5.3      8.734      9.544
REMARK  4 active torsions:
REMARK  status: ('A' for Active; 'I' for Inactive)
REMARK    1  A    between atoms: S_6  and  C_1 
REMARK    2  A    between atoms: C_19  and  S_6 
REMARK    3  A    between atoms: C_7  and  C_19 
REMARK       I    between atoms: N_10  and  C_7 
REMARK    4  A    between atoms: C_14  and  N_10 
ROOT
ATOM      1  C   UNL d   1     -39.389  14.792  20.219  0.00  0.00     0.286 C 
ATOM      2  N   UNL d   1     -39.783  14.426  20.838  0.00  0.00    -0.207 NA
ATOM      3  O   UNL d   1     -38.615  15.061  20.334  0.00  0.00    -0.265 OA
ENDROOT
BRANCH   1   4
ATOM      4  C   UNL d   1     -39.755  14.892  19.494  0.00  0.00     0.099 C 
BRANCH   4   5
ATOM      5  S   UNL d   1     -39.387  14.640  18.807  0.00  0.00    -0.062 SA
BRANCH   5   6
ATOM      6  C   UNL d   1     -39.700  14.839  18.069  0.00  0.00     0.114 A 
ATOM      7  C   UNL d   1     -39.299  14.634  17.381  0.00  0.00     0.042 A 
ATOM      8  C   UNL d   1     -39.612  14.834  16.642  0.00  0.00     0.085 A 
ATOM      9  C   UNL d   1     -38.583  14.228  17.432  0.00  0.00     0.004 A 
ATOM     10  C   UNL d   1     -39.208  14.626  15.953  0.00  0.00     0.019 A 
ATOM     11  N   UNL d   1     -40.325  15.238  16.590  0.00  0.00    -0.224 NA
ATOM     12  C   UNL d   1     -38.492  14.220  16.003  0.00  0.00     0.002 A 
ATOM     13  C   UNL d   1     -38.179  14.021  16.742  0.00  0.00     0.000 A 
ATOM     14  C   UNL d   1     -40.729  15.445  17.279  0.00  0.00     0.200 A 
ATOM     15  N   UNL d   1     -40.416  15.246  18.018  0.00  0.00    -0.217 NA
ENDBRANCH   5   6
ENDBRANCH   4   5
ENDBRANCH   1   4
BRANCH   2  16
ATOM     16  C   UNL d   1     -39.417  14.325  21.568  0.00  0.00     0.087 A 
ATOM     17  C   UNL d   1     -39.078  13.601  21.754  0.00  0.00     0.045 A 
ATOM     18  C   UNL d   1     -38.710  13.498  22.486  0.00  0.00     0.121 A 
ATOM     19  O   UNL d   1     -38.328  12.844  22.821  0.00  0.00    -0.299 OA
ATOM     20  C   UNL d   1     -38.685  14.120  23.024  0.00  0.00     0.119 A 
ATOM     21  C   UNL d   1     -38.070  13.071  23.567  0.00  0.00     0.304 A 
ATOM     22  O   UNL d   1     -38.287  13.857  23.698  0.00  0.00    -0.300 OA
ATOM     23  C   UNL d   1     -39.028  14.842  22.827  0.00  0.00     0.028 A 
ATOM     24  C   UNL d   1     -39.392  14.947  22.105  0.00  0.00     0.021 A 
ENDBRANCH   2  16
TORSDOF 4
ENDMDL
MODEL 6
REMARK VINA RESULT:      -5.1      9.086     10.551
REMARK  4 active torsions:
REMARK  status: ('A' for Active; 'I' for Inactive)
REMARK    1  A    between atoms: S_6  and  C_1 
REMARK    2  A    between atoms: C_19  and  S_6 
REMARK    3  A    between atoms: C_7  and  C_19 
REMARK       I    between atoms: N_10  and  C_7 
REMARK    4  A    between atoms: C_14  and  N_10 
ROOT
ATOM      1  C   UNL d   1     -38.772  15.138  18.647  0.00  0.00     0.286 C 
ATOM      2  N   UNL d   1     -39.248  15.016  17.990  0.00  0.00    -0.207 NA
ATOM      3  O   UNL d   1     -37.952  15.193  18.550  0.00  0.00    -0.265 OA
ENDROOT
BRANCH   1   4
ATOM      4  C   UNL d   1     -39.103  15.203  19.393  0.00  0.00     0.099 C 
BRANCH   4   5
ATOM      5  S   UNL d   1     -38.735  14.861  20.039  0.00  0.00    -0.062 SA
BRANCH   5   6
ATOM      6  C   UNL d   1     -38.991  15.035  20.806  0.00  0.00     0.114 A 
ATOM      7  C   UNL d   1     -38.849  14.506  21.419  0.00  0.00     0.042 A 
ATOM      8  C   UNL d   1     -39.105  14.680  22.186  0.00  0.00     0.085 A 
ATOM      9  C   UNL d   1     -38.449  13.801  21.266  0.00  0.00     0.004 A 
ATOM     10  C   UNL d   1     -38.961  14.148  22.800  0.00  0.00     0.019 A 
ATOM     11  N   UNL d   1     -39.503  15.382  22.340  0.00  0.00    -0.224 NA
ATOM     12  C   UNL d   1     -38.561  13.443  22.647  0.00  0.00     0.002 A 
ATOM     13  C   UNL d   1     -38.306  13.269  21.880  0.00  0.00     0.000 A 
ATOM     14  C   UNL d   1     -39.647  15.914  21.726  0.00  0.00     0.200 A 
ATOM     15  N   UNL d   1     -39.391  15.740  20.959  0.00  0.00    -0.217 NA
ENDBRANCH   5   6
ENDBRANCH   4   5
ENDBRANCH   1   4
BRANCH   2  16
ATOM     16  C   UNL d   1     -38.917  14.950  17.239  0.00  0.00     0.087 A 
ATOM     17  C   UNL d   1     -38.782  14.206  16.920  0.00  0.00     0.045 A 
ATOM     18  C   UNL d   1     -38.450  14.138  16.167  0.00  0.00     0.121 A 
ATOM     19  O   UNL d   1     -38.254  13.474  15.712  0.00  0.00    -0.299 OA
ATOM     20  C   UNL d   1     -38.257  14.814  15.741  0.00  0.00     0.119 A 
ATOM     21  C   UNL d   1     -37.940  13.751  15.005  0.00  0.00     0.304 A 
ATOM     22  O   UNL d   1     -37.940  14.577  15.017  0.00  0.00    -0.300 OA
ATOM     23  C   UNL d   1     -38.397  15.556  16.070  0.00  0.00     0.028 A 
ATOM     24  C   UNL d   1     -38.724  15.627  16.813  0.00  0.00     0.021 A 
ENDBRANCH   2  16
TORSDOF 4
ENDMDL
MODEL 7
REMARK VINA RESULT:      -5.0      8.896     10.527
REMARK  4 active torsions:
REMARK  status: ('A' for Active; 'I' for Inactive)
REMARK    1  A    between atoms: S_6  and  C_1 
REMARK    2  A    between atoms: C_19  and  S_6 
REMARK    3  A    between atoms: C_7  and  C_19 
REMARK       I    between atoms: N_10  and  C_7 
REMARK    4  A    between atoms: C_14  and  N_10 
ROOT
ATOM      1  C   UNL d   1     -38.708  14.341  17.729  0.00  0.00     0.286 C 
ATOM      2  N   UNL d   1     -37.998  14.346  17.318  0.00  0.00    -0.207 NA
ATOM      3  O   UNL d   1     -39.420  14.316  17.309  0.00  0.00    -0.265 OA
ENDROOT
BRANCH   1   4
ATOM      4  C   UNL d   1     -38.714  14.360  18.548  0.00  0.00     0.099 C 
BRANCH   4   5
ATOM      5  S   UNL d   1     -39.402  14.543  18.951  0.00  0.00    -0.062 SA
BRANCH   5   6
ATOM      6  C   UNL d   1     -39.415  14.541  19.777  0.00  0.00     0.114 A 
ATOM      7  C   UNL d   1     -39.971  14.990  20.184  0.00  0.00     0.042 A 
ATOM      8  C   UNL d   1     -39.984  14.988  21.010  0.00  0.00     0.085 A 
ATOM      9  C   UNL d   1     -40.516  15.443  19.762  0.00  0.00     0.004 A 
ATOM     10  C   UNL d   1     -40.543  15.439  21.416  0.00  0.00     0.019 A 
ATOM     11  N   UNL d   1     -39.442  14.537  21.431  0.00  0.00    -0.224 NA
ATOM     12  C   UNL d   1     -41.088  15.893  20.995  0.00  0.00     0.002 A 
ATOM     13  C   UNL d   1     -41.075  15.895  20.168  0.00  0.00     0.000 A 
ATOM     14  C   UNL d   1     -38.883  14.085  21.026  0.00  0.00     0.200 A 
ATOM     15  N   UNL d   1     -38.870  14.087  20.199  0.00  0.00    -0.217 NA
ENDBRANCH   5   6
ENDBRANCH   4   5
ENDBRANCH   1   4
BRANCH   2  16
ATOM     16  C   UNL d   1     -37.989  14.327  16.495  0.00  0.00     0.087 A 
ATOM     17  C   UNL d   1     -37.969  13.605  16.107  0.00  0.00     0.045 A 
ATOM     18  C   UNL d   1     -37.960  13.584  15.282  0.00  0.00     0.121 A 
ATOM     19  O   UNL d   1     -37.940  12.951  14.749  0.00  0.00    -0.299 OA
ATOM     20  C   UNL d   1     -37.972  14.286  14.854  0.00  0.00     0.119 A 
ATOM     21  C   UNL d   1     -37.940  13.271  13.993  0.00  0.00     0.304 A 
ATOM     22  O   UNL d   1     -37.959  14.095  14.051  0.00  0.00    -0.300 OA
ATOM     23  C   UNL d   1     -37.992  15.006  15.253  0.00  0.00     0.028 A 
ATOM     24  C   UNL d   1     -38.001  15.030  16.068  0.00  0.00     0.021 A 
ENDBRANCH   2  16
TORSDOF 4
ENDMDL
MODEL 8
REMARK VINA RESULT:      -4.1      8.224      9.923
REMARK  4 active torsions:
REMARK  status: ('A' for Active; 'I' for Inactive)
REMARK    1  A    between atoms: S_6  and  C_1 
REMARK    2  A    between atoms: C_19  and  S_6 
REMARK    3  A    between atoms: C_7  and  C_19 
REMARK       I    between atoms: N_10  and  C_7 
REMARK    4  A    between atoms: C_14  and  N_10 
ROOT
ATOM      1  C   UNL d   1     -40.258  14.423  18.863  0.00  0.00     0.286 C 
ATOM      2  N   UNL d   1     -40.004  14.945  19.443  0.00  0.00    -0.207 NA
ATOM      3  O   UNL d   1     -40.510  13.666  19.081  0.00  0.00    -0.265 OA
ENDROOT
BRANCH   1   4
ATOM      4  C   UNL d   1     -40.263  14.648  18.076  0.00  0.00     0.099 C 
BRANCH   4   5
ATOM      5  S   UNL d   1     -39.768  14.279  17.538  0.00  0.00    -0.062 SA
BRANCH   5   6
ATOM      6  C   UNL d   1     -39.455  14.700  16.901  0.00  0.00     0.114 A 
ATOM      7  C   UNL d   1     -38.951  14.331  16.367  0.00  0.00     0.042 A 
ATOM      8  C   UNL d   1     -38.638  14.753  15.729  0.00  0.00     0.085 A 
ATOM      9  C   UNL d   1     -38.759  13.535  16.471  0.00  0.00     0.004 A 
ATOM     10  C   UNL d   1     -38.132  14.379  15.195  0.00  0.00     0.019 A 
ATOM     11  N   UNL d   1     -38.828  15.545  15.625  0.00  0.00    -0.224 NA
ATOM     12  C   UNL d   1     -37.940  13.584  15.298  0.00  0.00     0.002 A 
ATOM     13  C   UNL d   1     -38.254  13.161  15.936  0.00  0.00     0.000 A 
ATOM     14  C   UNL d   1     -39.333  15.919  16.159  0.00  0.00     0.200 A 
ATOM     15  N   UNL d   1     -39.647  15.496  16.797  0.00  0.00    -0.217 NA
ENDBRANCH   5   6
ENDBRANCH   4   5
ENDBRANCH   1   4
BRANCH   2  16
ATOM     16  C   UNL d   1     -39.999  14.722  20.235  0.00  0.00     0.087 A 
ATOM     17  C   UNL d   1     -39.289  14.523  20.595  0.00  0.00     0.045 A 
ATOM     18  C   UNL d   1     -39.281  14.299  21.389  0.00  0.00     0.121 A 
ATOM     19  O   UNL d   1     -38.661  14.072  21.890  0.00  0.00    -0.299 OA
ATOM     20  C   UNL d   1     -39.984  14.276  21.816  0.00  0.00     0.119 A 
ATOM     21  C   UNL d   1     -38.991  13.911  22.625  0.00  0.00     0.304 A 
ATOM     22  O   UNL d   1     -39.806  14.036  22.585  0.00  0.00    -0.300 OA
ATOM     23  C   UNL d   1     -40.691  14.479  21.446  0.00  0.00     0.028 A 
ATOM     24  C   UNL d   1     -40.701  14.700  20.661  0.00  0.00     0.021 A 
ENDBRANCH   2  16
TORSDOF 4
ENDMDL
