MODEL 1
REMARK VINA RESULT:      60.0      0.000      0.000
REMARK  6 active torsions:
REMARK  status: ('A' for Active; 'I' for Inactive)
REMARK    1  A    between atoms: C_8  and  C_1 
REMARK    2  A    between atoms: S_10  and  C_2 
REMARK    3  A    between atoms: C_7  and  C_4 
REMARK    4  A    between atoms: C_23  and  S_10 
REMARK    5  A    between atoms: C_16  and  C_23 
REMARK    6  A    between atoms: O_25  and  C_16 
ROOT
ATOM      1  C   UNL d   1      45.188 -16.223  38.095  0.00  0.00     0.045 A 
ATOM      2  C   UNL d   1      44.706 -16.872  38.388  0.00  0.00     0.112 A 
ATOM      3  C   UNL d   1      44.117 -15.846  37.218  0.00  0.00     0.057 A 
ATOM      4  C   UNL d   1      44.881 -15.724  37.515  0.00  0.00     0.008 A 
ATOM      5  C   UNL d   1      43.653 -16.469  37.500  0.00  0.00     0.085 A 
ATOM      6  N   UNL d   1      43.948 -16.979  38.083  0.00  0.00    -0.239 NA
ATOM      7  C   UNL d   1      43.828 -15.337  36.639  0.00  0.00     0.197 A 
ATOM      8  O   UNL d   1      44.294 -14.709  36.355  0.00  0.00    -0.286 OA
ATOM      9  C   UNL d   1      42.894 -16.592  37.206  0.00  0.00     0.019 A 
ATOM     10  C   UNL d   1      43.069 -15.444  36.332  0.00  0.00     0.042 A 
ATOM     11  C   UNL d   1      42.586 -16.093  36.626  0.00  0.00     0.005 A 
ENDROOT
BRANCH   4  12
ATOM     12  C   UNL d   1      45.348 -15.096  37.231  0.00  0.00     0.002 A 
ATOM     13  C   UNL d   1      45.265 -14.339  37.542  0.00  0.00     0.026 A 
ATOM     14  C   UNL d   1      45.729 -13.716  37.261  0.00  0.00     0.119 A 
ATOM     15  O   UNL d   1      45.770 -12.908  37.462  0.00  0.00    -0.300 OA
ATOM     16  C   UNL d   1      46.278 -13.846  36.665  0.00  0.00     0.119 A 
ATOM     17  C   UNL d   1      46.334 -12.560  36.995  0.00  0.00     0.304 A 
ATOM     18  O   UNL d   1      46.647 -13.125  36.509  0.00  0.00    -0.300 OA
ATOM     19  C   UNL d   1      46.372 -14.644  36.330  0.00  0.00     0.026 A 
ATOM     20  C   UNL d   1      45.901 -15.249  36.624  0.00  0.00     0.002 A 
ENDBRANCH   4  12
BRANCH   1  21
ATOM     21  C   UNL d   1      45.979 -16.079  38.387  0.00  0.00     0.124 C 
ATOM     22  N   UNL d   1      46.552 -16.656  38.313  0.00  0.00    -0.146 N 
ENDBRANCH   1  21
BRANCH   2  23
ATOM     23  S   UNL d   1      44.989 -17.411  38.990  0.00  0.00    -0.062 SA
BRANCH  23  24
ATOM     24  C   UNL d   1      44.955 -17.196  39.777  0.00  0.00     0.105 C 
BRANCH  24  25
ATOM     25  C   UNL d   1      45.149 -17.744  40.361  0.00  0.00     0.303 C 
ATOM     26  O   UNL d   1      44.562 -18.203  40.707  0.00  0.00    -0.259 OA
BRANCH  25  27
ATOM     27  O   UNL d   1      45.931 -17.832  40.597  0.00  0.00    -0.295 OA
ATOM     28  C   UNL d   1      46.171 -18.485  41.041  0.00  0.00     0.185 C 
ENDBRANCH  25  27
ENDBRANCH  24  25
ENDBRANCH  23  24
ENDBRANCH   2  23
TORSDOF 6
ENDMDL
