MODEL 1
REMARK VINA RESULT:      11.2      0.000      0.000
REMARK  2 active torsions:
REMARK  status: ('A' for Active; 'I' for Inactive)
REMARK    1  A    between atoms: C_2  and  C_1 
REMARK    2  A    between atoms: C_6  and  C_2 
ROOT
ATOM      1  C   UNL d   1      45.388 -12.640  43.631  0.00  0.00     0.059 A 
ATOM      2  C   UNL d   1      44.645 -12.314  43.536  0.00  0.00     0.106 A 
ATOM      3  C   UNL d   1      45.887 -12.736  42.993  0.00  0.00     0.011 A 
ATOM      4  C   UNL d   1      44.392 -12.080  42.801  0.00  0.00     0.021 A 
ATOM      5  C   UNL d   1      45.632 -12.496  42.225  0.00  0.00     0.035 A 
ATOM      6  N   UNL d   1      44.157 -12.226  44.195  0.00  0.00    -0.148 N 
ATOM      7  C   UNL d   1      44.891 -12.174  42.150  0.00  0.00     0.008 A 
ATOM      8 BR   UNL d   1      46.125 -12.588  41.582  0.00  0.00    -0.049 Br
ENDROOT
BRANCH   1   9
ATOM      9  C   UNL d   1      45.643 -12.878  44.386  0.00  0.00     0.197 C 
ATOM     10  O   UNL d   1      45.953 -12.362  44.952  0.00  0.00    -0.286 OA
BRANCH   9  11
ATOM     11  C   UNL d   1      45.581 -13.672  44.575  0.00  0.00     0.039 A 
ATOM     12  C   UNL d   1      44.856 -13.999  44.758  0.00  0.00     0.003 A 
ATOM     13  C   UNL d   1      44.790 -14.805  44.951  0.00  0.00     0.000 A 
ATOM     14  C   UNL d   1      45.479 -15.283  44.955  0.00  0.00     0.000 A 
ATOM     15  C   UNL d   1      46.217 -14.952  44.769  0.00  0.00     0.000 A 
ATOM     16  C   UNL d   1      46.253 -14.137  44.579  0.00  0.00     0.003 A 
ENDBRANCH   9  11
ENDBRANCH   1   9
TORSDOF 2
ENDMDL
