MODEL 1
REMARK VINA RESULT:      35.3      0.000      0.000
REMARK  6 active torsions:
REMARK  status: ('A' for Active; 'I' for Inactive)
REMARK    1  A    between atoms: C_2  and  S_1 
REMARK    2  A    between atoms: N_8  and  S_1 
REMARK    3  A    between atoms: C_13  and  N_8 
REMARK    4  A    between atoms: N_9  and  C_14 
REMARK    5  A    between atoms: O_15  and  C_10 
REMARK    6  A    between atoms: C_14  and  C_13 
ROOT
ATOM      1  C   UNL d   1      14.015  13.012  -1.751  0.00  0.00     0.105 A 
ATOM      2  C   UNL d   1      14.549  12.790  -1.175  0.00  0.00     0.014 A 
ATOM      3  C   UNL d   1      14.824  13.341  -0.627  0.00  0.00     0.023 A 
ATOM      4  C   UNL d   1      13.747  13.796  -1.785  0.00  0.00     0.015 A 
ATOM      5  C   UNL d   1      14.564  14.115  -0.655  0.00  0.00     0.094 A 
ATOM      6  C   UNL d   1      14.022  14.347  -1.237  0.00  0.00     0.025 A 
ATOM      7  C   UNL d   1      14.814  12.010  -1.143  0.00  0.00     0.001 A 
ATOM      8  C   UNL d   1      15.363  13.112  -0.047  0.00  0.00     0.002 A 
ATOM      9  C   UNL d   1      15.353  11.780  -0.563  0.00  0.00     0.000 A 
ATOM     10  C   UNL d   1      15.628  12.331  -0.014  0.00  0.00     0.000 A 
ENDROOT
BRANCH   1  11
ATOM     11  S   UNL d   1      13.740  12.461  -2.300  0.00  0.00     0.285 S 
ATOM     12  O   UNL d   1      12.974  12.526  -1.982  0.00  0.00    -0.198 OA
ATOM     13  O   UNL d   1      14.491  12.397  -2.611  0.00  0.00    -0.198 OA
BRANCH  11  14
ATOM     14  N   UNL d   1      13.466  11.909  -2.849  0.00  0.00    -0.155 NA
BRANCH  14  15
ATOM     15  C   UNL d   1      12.823  12.083  -3.323  0.00  0.00     0.131 C 
BRANCH  15  16
ATOM     16  C   UNL d   1      12.776  11.780  -4.089  0.00  0.00     0.102 C 
BRANCH  16  17
ATOM     17  N   UNL d   1      13.114  12.193  -4.717  0.00  0.00    -0.298 N 
ATOM     18  C   UNL d   1      12.806  12.924  -4.945  0.00  0.00     0.107 A 
ATOM     19  C   UNL d   1      13.144  13.341  -5.576  0.00  0.00     0.142 A 
ATOM     20  O   UNL d   1      13.791  13.024  -5.978  0.00  0.00    -0.300 OA
ATOM     21  C   UNL d   1      14.101  12.290  -5.747  0.00  0.00     0.142 A 
ATOM     22  C   UNL d   1      13.762  11.876  -5.118  0.00  0.00     0.107 A 
ENDBRANCH  16  17
ENDBRANCH  15  16
ENDBRANCH  14  15
ENDBRANCH  11  14
ENDBRANCH   1  11
BRANCH   5  23
ATOM     23  O   UNL d   1      14.835  14.672  -0.108  0.00  0.00    -0.328 OA
ATOM     24  C   UNL d   1      15.378  15.247  -0.333  0.00  0.00     0.181 C 
ENDBRANCH   5  23
TORSDOF 6
ENDMDL
MODEL 2
REMARK VINA RESULT:      38.0      2.079      4.671
REMARK  6 active torsions:
REMARK  status: ('A' for Active; 'I' for Inactive)
REMARK    1  A    between atoms: C_2  and  S_1 
REMARK    2  A    between atoms: N_8  and  S_1 
REMARK    3  A    between atoms: C_13  and  N_8 
REMARK    4  A    between atoms: N_9  and  C_14 
REMARK    5  A    between atoms: O_15  and  C_10 
REMARK    6  A    between atoms: C_14  and  C_13 
ROOT
ATOM      1  C   UNL d   1      13.497  13.915  -4.112  0.00  0.00     0.105 A 
ATOM      2  C   UNL d   1      13.457  13.210  -3.702  0.00  0.00     0.014 A 
ATOM      3  C   UNL d   1      13.323  12.502  -4.103  0.00  0.00     0.023 A 
ATOM      4  C   UNL d   1      13.402  13.919  -4.936  0.00  0.00     0.015 A 
ATOM      5  C   UNL d   1      13.228  12.499  -4.914  0.00  0.00     0.094 A 
ATOM      6  C   UNL d   1      13.267  13.211  -5.337  0.00  0.00     0.025 A 
ATOM      7  C   UNL d   1      13.552  13.208  -2.883  0.00  0.00     0.001 A 
ATOM      8  C   UNL d   1      13.283  11.792  -3.685  0.00  0.00     0.002 A 
ATOM      9  C   UNL d   1      13.513  12.498  -2.464  0.00  0.00     0.000 A 
ATOM     10  C   UNL d   1      13.378  11.790  -2.865  0.00  0.00     0.000 A 
ENDROOT
BRANCH   1  11
ATOM     11  S   UNL d   1      13.631  14.623  -3.711  0.00  0.00     0.285 S 
ATOM     12  O   UNL d   1      14.452  14.519  -3.803  0.00  0.00    -0.198 OA
ATOM     13  O   UNL d   1      12.828  14.725  -3.622  0.00  0.00    -0.198 OA
BRANCH  11  14
ATOM     14  N   UNL d   1      13.766  15.331  -3.310  0.00  0.00    -0.155 NA
BRANCH  14  15
ATOM     15  C   UNL d   1      14.385  15.395  -2.781  0.00  0.00     0.131 C 
BRANCH  15  16
ATOM     16  C   UNL d   1      14.750  16.123  -2.651  0.00  0.00     0.102 C 
BRANCH  16  17
ATOM     17  N   UNL d   1      15.019  16.321  -1.898  0.00  0.00    -0.298 N 
ATOM     18  C   UNL d   1      15.226  15.728  -1.364  0.00  0.00     0.107 A 
ATOM     19  C   UNL d   1      15.497  15.924  -0.605  0.00  0.00     0.142 A 
ATOM     20  O   UNL d   1      15.559  16.717  -0.385  0.00  0.00    -0.300 OA
ATOM     21  C   UNL d   1      15.351  17.313  -0.923  0.00  0.00     0.142 A 
ATOM     22  C   UNL d   1      15.082  17.114  -1.678  0.00  0.00     0.107 A 
ENDBRANCH  16  17
ENDBRANCH  15  16
ENDBRANCH  14  15
ENDBRANCH  11  14
ENDBRANCH   1  11
BRANCH   5  23
ATOM     23  O   UNL d   1      13.093  11.793  -5.322  0.00  0.00    -0.328 OA
ATOM     24  C   UNL d   1      13.092  11.780  -6.145  0.00  0.00     0.181 C 
ENDBRANCH   5  23
TORSDOF 6
ENDMDL
