MODEL 1
REMARK VINA RESULT:      -3.2      0.000      0.000
REMARK  3 active torsions:
REMARK  status: ('A' for Active; 'I' for Inactive)
REMARK    1  A    between atoms: N_2  and  C_1 
REMARK    2  A    between atoms: N_3  and  C_1 
REMARK       I    between atoms: C_4  and  N_3 
REMARK    3  A    between atoms: C_5  and  C_4 
ROOT
ATOM      1  C   UNL d   1      31.285  16.784 -24.218  0.00  0.00     0.209 C 
ATOM      2  S   UNL d   1      31.206  17.616 -24.217  0.00  0.00    -0.038 SA
ENDROOT
BRANCH   1   3
ATOM      3  N   UNL d   1      30.756  16.322 -23.772  0.00  0.00    -0.282 N 
ATOM      4  C   UNL d   1      29.938  16.332 -23.844  0.00  0.00     0.066 A 
ATOM      5  C   UNL d   1      29.635  15.791 -23.298  0.00  0.00     0.018 A 
ATOM      6  C   UNL d   1      29.424  16.756 -24.330  0.00  0.00     0.018 A 
ATOM      7  C   UNL d   1      28.818  15.674 -23.237  0.00  0.00     0.002 A 
ATOM      8  C   UNL d   1      30.269  15.453 -22.893  0.00  0.00     0.021 A 
ATOM      9  C   UNL d   1      28.303  16.103 -23.728  0.00  0.00     0.000 A 
ATOM     10  C   UNL d   1      28.606  16.644 -24.274  0.00  0.00     0.002 A 
ATOM     11  C   UNL d   1      30.963  15.785 -23.190  0.00  0.00     0.082 A 
ENDBRANCH   1   3
BRANCH   1  12
ATOM     12  N   UNL d   1      31.879  16.426 -24.654  0.00  0.00    -0.178 NA
ATOM     13  C   UNL d   1      32.640  16.753 -24.656  0.00  0.00     0.304 C 
ATOM     14  O   UNL d   1      33.239  16.392 -25.097  0.00  0.00    -0.263 OA
BRANCH  13  15
ATOM     15  C   UNL d   1      32.810  17.435 -24.225  0.00  0.00     0.158 A 
ATOM     16  O   UNL d   1      32.931  17.566 -23.428  0.00  0.00    -0.296 OA
ATOM     17  C   UNL d   1      33.083  18.376 -23.321  0.00  0.00     0.134 A 
ATOM     18 BR   UNL d   1      33.241  18.784 -22.607  0.00  0.00    -0.022 Br
ATOM     19  C   UNL d   1      33.052  18.734 -24.061  0.00  0.00     0.034 A 
ATOM     20  C   UNL d   1      32.884  18.151 -24.617  0.00  0.00     0.032 A 
ENDBRANCH  13  15
ENDBRANCH   1  12
TORSDOF 3
ENDMDL
MODEL 2
REMARK VINA RESULT:      -2.6      2.113      3.910
REMARK  3 active torsions:
REMARK  status: ('A' for Active; 'I' for Inactive)
REMARK    1  A    between atoms: N_2  and  C_1 
REMARK    2  A    between atoms: N_3  and  C_1 
REMARK       I    between atoms: C_4  and  N_3 
REMARK    3  A    between atoms: C_5  and  C_4 
ROOT
ATOM      1  C   UNL d   1      30.744  17.181 -24.627  0.00  0.00     0.209 C 
ATOM      2  S   UNL d   1      30.613  16.376 -24.808  0.00  0.00    -0.038 SA
ENDROOT
BRANCH   1   3
ATOM      3  N   UNL d   1      31.408  17.396 -24.174  0.00  0.00    -0.282 N 
ATOM      4  C   UNL d   1      31.962  17.967 -24.382  0.00  0.00     0.066 A 
ATOM      5  C   UNL d   1      32.523  17.999 -23.777  0.00  0.00     0.018 A 
ATOM      6  C   UNL d   1      32.036  18.462 -25.037  0.00  0.00     0.018 A 
ATOM      7  C   UNL d   1      33.159  18.527 -23.826  0.00  0.00     0.002 A 
ATOM      8  C   UNL d   1      32.311  17.448 -23.202  0.00  0.00     0.021 A 
ATOM      9  C   UNL d   1      33.230  19.025 -24.487  0.00  0.00     0.000 A 
ATOM     10  C   UNL d   1      32.669  18.993 -25.093  0.00  0.00     0.002 A 
ATOM     11  C   UNL d   1      31.620  17.076 -23.451  0.00  0.00     0.082 A 
ENDBRANCH   1   3
BRANCH   1  12
ATOM     12  N   UNL d   1      30.223  17.755 -24.893  0.00  0.00    -0.178 NA
ATOM     13  C   UNL d   1      29.407  17.632 -24.819  0.00  0.00     0.304 C 
ATOM     14  O   UNL d   1      28.881  18.211 -25.088  0.00  0.00    -0.263 OA
BRANCH  13  15
ATOM     15  C   UNL d   1      29.110  16.940 -24.482  0.00  0.00     0.158 A 
ATOM     16  O   UNL d   1      29.000  16.710 -23.706  0.00  0.00    -0.296 OA
ATOM     17  C   UNL d   1      28.678  15.943 -23.710  0.00  0.00     0.134 A 
ATOM     18 BR   UNL d   1      28.467  15.467 -23.054  0.00  0.00    -0.022 Br
ATOM     19  C   UNL d   1      28.595  15.713 -24.495  0.00  0.00     0.034 A 
ATOM     20  C   UNL d   1      28.862  16.329 -24.969  0.00  0.00     0.032 A 
ENDBRANCH  13  15
ENDBRANCH   1  12
TORSDOF 3
ENDMDL
MODEL 3
REMARK VINA RESULT:      -2.3      1.789      3.867
REMARK  3 active torsions:
REMARK  status: ('A' for Active; 'I' for Inactive)
REMARK    1  A    between atoms: N_2  and  C_1 
REMARK    2  A    between atoms: N_3  and  C_1 
REMARK       I    between atoms: C_4  and  N_3 
REMARK    3  A    between atoms: C_5  and  C_4 
ROOT
ATOM      1  C   UNL d   1      32.531  17.382 -24.015  0.00  0.00     0.209 C 
ATOM      2  S   UNL d   1      31.855  17.228 -23.547  0.00  0.00    -0.038 SA
ENDROOT
BRANCH   1   3
ATOM      3  N   UNL d   1      32.739  18.168 -24.188  0.00  0.00    -0.282 N 
ATOM      4  C   UNL d   1      32.880  18.757 -23.633  0.00  0.00     0.066 A 
ATOM      5  C   UNL d   1      33.068  19.447 -24.046  0.00  0.00     0.018 A 
ATOM      6  C   UNL d   1      32.864  18.763 -22.809  0.00  0.00     0.018 A 
ATOM      7  C   UNL d   1      33.241  20.144 -23.635  0.00  0.00     0.002 A 
ATOM      8  C   UNL d   1      33.041  19.278 -24.852  0.00  0.00     0.021 A 
ATOM      9  C   UNL d   1      33.224  20.147 -22.804  0.00  0.00     0.000 A 
ATOM     10  C   UNL d   1      33.036  19.457 -22.391  0.00  0.00     0.002 A 
ATOM     11  C   UNL d   1      32.837  18.484 -24.937  0.00  0.00     0.082 A 
ENDBRANCH   1   3
BRANCH   1  12
ATOM     12  N   UNL d   1      32.984  16.762 -24.301  0.00  0.00    -0.178 NA
ATOM     13  C   UNL d   1      32.611  16.078 -24.583  0.00  0.00     0.304 C 
ATOM     14  O   UNL d   1      33.069  15.453 -24.871  0.00  0.00    -0.263 OA
BRANCH  13  15
ATOM     15  C   UNL d   1      31.790  16.010 -24.580  0.00  0.00     0.158 A 
ATOM     16  O   UNL d   1      31.210  16.328 -25.060  0.00  0.00    -0.296 OA
ATOM     17  C   UNL d   1      30.473  16.060 -24.784  0.00  0.00     0.134 A 
ATOM     18 BR   UNL d   1      29.712  16.231 -25.089  0.00  0.00    -0.022 Br
ATOM     19  C   UNL d   1      30.613  15.577 -24.133  0.00  0.00     0.034 A 
ATOM     20  C   UNL d   1      31.426  15.548 -24.009  0.00  0.00     0.032 A 
ENDBRANCH  13  15
ENDBRANCH   1  12
TORSDOF 3
ENDMDL
MODEL 4
REMARK VINA RESULT:      -0.6      2.227      4.078
REMARK  3 active torsions:
REMARK  status: ('A' for Active; 'I' for Inactive)
REMARK    1  A    between atoms: N_2  and  C_1 
REMARK    2  A    between atoms: N_3  and  C_1 
REMARK       I    between atoms: C_4  and  N_3 
REMARK    3  A    between atoms: C_5  and  C_4 
ROOT
ATOM      1  C   UNL d   1      32.743  18.548 -23.612  0.00  0.00     0.209 C 
ATOM      2  S   UNL d   1      33.193  17.868 -23.795  0.00  0.00    -0.038 SA
ENDROOT
BRANCH   1   3
ATOM      3  N   UNL d   1      32.880  18.949 -22.896  0.00  0.00    -0.282 N 
ATOM      4  C   UNL d   1      32.989  19.760 -22.818  0.00  0.00     0.066 A 
ATOM      5  C   UNL d   1      33.107  19.917 -22.016  0.00  0.00     0.018 A 
ATOM      6  C   UNL d   1      32.997  20.378 -23.362  0.00  0.00     0.018 A 
ATOM      7  C   UNL d   1      33.234  20.693 -21.757  0.00  0.00     0.002 A 
ATOM      8  C   UNL d   1      33.071  19.201 -21.607  0.00  0.00     0.021 A 
ATOM      9  C   UNL d   1      33.241  21.314 -22.309  0.00  0.00     0.000 A 
ATOM     10  C   UNL d   1      33.122  21.157 -23.111  0.00  0.00     0.002 A 
ATOM     11  C   UNL d   1      32.930  18.604 -22.156  0.00  0.00     0.082 A 
ENDBRANCH   1   3
BRANCH   1  12
ATOM     12  N   UNL d   1      32.171  18.818 -24.134  0.00  0.00    -0.178 NA
ATOM     13  C   UNL d   1      31.708  18.272 -24.551  0.00  0.00     0.304 C 
ATOM     14  O   UNL d   1      31.131  18.545 -25.077  0.00  0.00    -0.263 OA
BRANCH  13  15
ATOM     15  C   UNL d   1      31.813  17.461 -24.451  0.00  0.00     0.158 A 
ATOM     16  O   UNL d   1      31.618  16.953 -23.842  0.00  0.00    -0.296 OA
ATOM     17  C   UNL d   1      31.865  16.188 -24.057  0.00  0.00     0.134 A 
ATOM     18 BR   UNL d   1      31.790  15.477 -23.621  0.00  0.00    -0.022 Br
ATOM     19  C   UNL d   1      32.211  16.241 -24.802  0.00  0.00     0.034 A 
ATOM     20  C   UNL d   1      32.178  17.026 -25.042  0.00  0.00     0.032 A 
ENDBRANCH  13  15
ENDBRANCH   1  12
TORSDOF 3
ENDMDL
MODEL 5
REMARK VINA RESULT:      -0.4      1.318      1.592
REMARK  3 active torsions:
REMARK  status: ('A' for Active; 'I' for Inactive)
REMARK    1  A    between atoms: N_2  and  C_1 
REMARK    2  A    between atoms: N_3  and  C_1 
REMARK       I    between atoms: C_4  and  N_3 
REMARK    3  A    between atoms: C_5  and  C_4 
ROOT
ATOM      1  C   UNL d   1      31.829  17.743 -23.980  0.00  0.00     0.209 C 
ATOM      2  S   UNL d   1      31.681  18.198 -23.295  0.00  0.00    -0.038 SA
ENDROOT
BRANCH   1   3
ATOM      3  N   UNL d   1      31.521  16.972 -24.034  0.00  0.00    -0.282 N 
ATOM      4  C   UNL d   1      30.788  16.773 -24.348  0.00  0.00     0.066 A 
ATOM      5  C   UNL d   1      30.710  15.953 -24.291  0.00  0.00     0.018 A 
ATOM      6  C   UNL d   1      30.180  17.222 -24.678  0.00  0.00     0.018 A 
ATOM      7  C   UNL d   1      30.023  15.580 -24.564  0.00  0.00     0.002 A 
ATOM      8  C   UNL d   1      31.395  15.653 -23.943  0.00  0.00     0.021 A 
ATOM      9  C   UNL d   1      29.412  16.035 -24.896  0.00  0.00     0.000 A 
ATOM     10  C   UNL d   1      29.491  16.856 -24.953  0.00  0.00     0.002 A 
ATOM     11  C   UNL d   1      31.895  16.288 -23.785  0.00  0.00     0.082 A 
ENDBRANCH   1   3
BRANCH   1  12
ATOM     12  N   UNL d   1      32.274  18.054 -24.594  0.00  0.00    -0.178 NA
ATOM     13  C   UNL d   1      32.793  18.683 -24.446  0.00  0.00     0.304 C 
ATOM     14  O   UNL d   1      33.241  18.997 -25.066  0.00  0.00    -0.263 OA
BRANCH  13  15
ATOM     15  C   UNL d   1      32.869  19.001 -23.690  0.00  0.00     0.158 A 
ATOM     16  O   UNL d   1      32.638  19.715 -23.368  0.00  0.00    -0.296 OA
ATOM     17  C   UNL d   1      32.868  19.723 -22.569  0.00  0.00     0.134 A 
ATOM     18 BR   UNL d   1      32.757  20.330 -22.003  0.00  0.00    -0.022 Br
ATOM     19  C   UNL d   1      33.241  19.006 -22.412  0.00  0.00     0.034 A 
ATOM     20  C   UNL d   1      33.240  18.564 -23.105  0.00  0.00     0.032 A 
ENDBRANCH  13  15
ENDBRANCH   1  12
TORSDOF 3
ENDMDL
