MODEL 1
REMARK VINA RESULT:      57.6      0.000      0.000
REMARK  3 active torsions:
REMARK  status: ('A' for Active; 'I' for Inactive)
REMARK    1  A    between atoms: C_8  and  C_6 
REMARK    2  A    between atoms: C_9  and  C_8 
REMARK       I    between atoms: N_10  and  C_9 
REMARK    3  A    between atoms: C_14  and  N_10 
ROOT
ATOM      1  C   UNL d   1     -54.737-100.613 -43.346  0.00  0.00     0.085 A 
ATOM      2  C   UNL d   1     -54.784-101.527 -41.978  0.00  0.00     0.094 A 
ATOM      3  C   UNL d   1     -54.782-100.248 -42.610  0.00  0.00     0.021 A 
ATOM      4  C   UNL d   1     -54.715-101.432 -43.402  0.00  0.00     0.021 A 
ATOM      5  C   UNL d   1     -54.738-101.893 -42.722  0.00  0.00     0.026 A 
ATOM      6  C   UNL d   1     -54.806-100.704 -41.926  0.00  0.00     0.026 A 
ATOM      7  O   UNL d   1     -54.807-101.976 -41.306  0.00  0.00    -0.328 OA
ATOM      8  C   UNL d   1     -54.830-102.433 -40.626  0.00  0.00     0.181 C 
ENDROOT
BRANCH   1   9
ATOM      9  N   UNL d   1     -54.713-100.156 -44.034  0.00  0.00    -0.208 NA
ATOM     10  C   UNL d   1     -55.286 -99.575 -44.167  0.00  0.00     0.281 C 
ATOM     11  O   UNL d   1     -55.257 -99.121 -44.857  0.00  0.00    -0.265 OA
BRANCH  10  12
ATOM     12  C   UNL d   1     -55.887 -99.449 -43.606  0.00  0.00     0.086 C 
BRANCH  12  13
ATOM     13  C   UNL d   1     -56.657 -99.313 -43.863  0.00  0.00     0.144 A 
ATOM     14  N   UNL d   1     -57.195 -99.227 -43.248  0.00  0.00    -0.240 NA
ATOM     15  C   UNL d   1     -58.001 -99.087 -43.298  0.00  0.00     0.083 A 
ATOM     16  C   UNL d   1     -58.476 -98.998 -43.969  0.00  0.00     0.035 A 
ATOM     17  C   UNL d   1     -58.339 -99.037 -42.547  0.00  0.00     0.019 A 
ATOM     18  C   UNL d   1     -58.134 -99.049 -44.728  0.00  0.00     0.086 A 
ATOM     19  C   UNL d   1     -59.287 -98.859 -43.900  0.00  0.00     0.003 A 
ATOM     20  N   UNL d   1     -57.343 -99.184 -44.917  0.00  0.00    -0.207 NA
ATOM     21  C   UNL d   1     -58.606 -98.961 -45.401  0.00  0.00     0.019 A 
ATOM     22  C   UNL d   1     -56.705 -99.299 -44.428  0.00  0.00     0.297 A 
ATOM     23  O   UNL d   1     -55.986 -99.419 -44.810  0.00  0.00    -0.264 OA
ATOM     24  C   UNL d   1     -59.417 -98.822 -45.323  0.00  0.00     0.002 A 
ATOM     25  C   UNL d   1     -59.755 -98.771 -44.572  0.00  0.00     0.000 A 
ATOM     26  C   UNL d   1     -59.629 -98.808 -43.140  0.00  0.00     0.000 A 
ATOM     27  C   UNL d   1     -59.161 -98.896 -42.467  0.00  0.00     0.002 A 
ENDBRANCH  12  13
ENDBRANCH  10  12
ENDBRANCH   1   9
TORSDOF 3
ENDMDL
