MODEL 1
REMARK VINA RESULT:       1.5      0.000      0.000
REMARK  8 active torsions:
REMARK  status: ('A' for Active; 'I' for Inactive)
REMARK    1  A    between atoms: N_3  and  C_1 
REMARK    2  A    between atoms: C_20  and  N_2 
REMARK       I    between atoms: C_7  and  N_3 
REMARK    3  A    between atoms: C_10  and  C_7 
REMARK    4  A    between atoms: C_9  and  C_10 
REMARK    5  A    between atoms: C_15  and  C_9 
REMARK       I    between atoms: C_12  and  N_13 
REMARK    6  A    between atoms: N_13  and  C_14 
REMARK    7  A    between atoms: C_26  and  C_20 
REMARK    8  A    between atoms: O_22  and  C_26 
ROOT
ATOM      1  C   UNL d   1     -41.793-122.441 -51.693  0.00  0.00     0.182 A 
ATOM      2  N   UNL d   1     -41.558-121.944 -51.083  0.00  0.00    -0.283 N 
ATOM      3  S   UNL d   1     -42.178-123.089 -51.357  0.00  0.00    -0.048 SA
ATOM      4  C   UNL d   1     -42.179-122.989 -50.535  0.00  0.00     0.050 A 
ATOM      5  C   UNL d   1     -41.794-122.278 -50.365  0.00  0.00     0.072 A 
ATOM      6  C   UNL d   1     -42.480-123.452 -49.923  0.00  0.00     0.027 A 
ATOM      7  C   UNL d   1     -41.711-122.030 -49.583  0.00  0.00     0.020 A 
ATOM      8  C   UNL d   1     -42.396-123.204 -49.142  0.00  0.00     0.085 A 
ATOM      9  C   UNL d   1     -42.012-122.493 -48.972  0.00  0.00     0.021 A 
ENDROOT
BRANCH   1  10
ATOM     10  N   UNL d   1     -41.663-122.309 -52.498  0.00  0.00    -0.184 NA
ATOM     11  C   UNL d   1     -41.571-122.952 -53.005  0.00  0.00     0.281 C 
ATOM     12  O   UNL d   1     -41.609-123.720 -52.706  0.00  0.00    -0.265 OA
BRANCH  11  13
ATOM     13  C   UNL d   1     -41.441-122.828 -53.811  0.00  0.00     0.063 C 
BRANCH  13  14
ATOM     14  C   UNL d   1     -42.075-122.690 -54.315  0.00  0.00     0.006 C 
BRANCH  14  15
ATOM     15  C   UNL d   1     -41.969-122.309 -55.031  0.00  0.00     0.011 A 
ATOM     16  C   UNL d   1     -42.617-122.185 -55.534  0.00  0.00     0.058 A 
ATOM     17 CL   UNL d   1     -43.374-122.452 -55.305  0.00  0.00    -0.082 Cl
ATOM     18  C   UNL d   1     -42.509-121.794 -56.269  0.00  0.00     0.011 A 
ATOM     19  C   UNL d   1     -41.772-121.531 -56.499  0.00  0.00     0.001 A 
ATOM     20  C   UNL d   1     -41.123-121.653 -55.999  0.00  0.00     0.000 A 
ATOM     21  C   UNL d   1     -41.227-122.040 -55.271  0.00  0.00     0.001 A 
ENDBRANCH  14  15
ENDBRANCH  13  14
ENDBRANCH  11  13
ENDBRANCH   1  10
BRANCH   2  22
ATOM     22  C   UNL d   1     -41.152-121.227 -51.165  0.00  0.00     0.108 C 
BRANCH  22  23
ATOM     23  C   UNL d   1     -41.559-120.534 -51.346  0.00  0.00     0.135 C 
BRANCH  23  24
ATOM     24  O   UNL d   1     -41.164-119.813 -51.358  0.00  0.00    -0.325 OA
ATOM     25  C   UNL d   1     -41.131-119.361 -52.053  0.00  0.00     0.182 C 
ENDBRANCH  23  24
ENDBRANCH  22  23
ENDBRANCH   2  22
BRANCH   8  26
ATOM     26  N   UNL d   1     -42.702-123.674 -48.519  0.00  0.00    -0.208 NA
ATOM     27  C   UNL d   1     -42.881-123.327 -47.801  0.00  0.00     0.279 C 
ATOM     28  O   UNL d   1     -43.181-123.791 -47.188  0.00  0.00    -0.265 OA
ATOM     29  C   UNL d   1     -42.766-122.518 -47.678  0.00  0.00     0.068 C 
ENDBRANCH   8  26
TORSDOF 8
ENDMDL
