MODEL 1
REMARK VINA RESULT:      55.0      0.000      0.000
REMARK  6 active torsions:
REMARK  status: ('A' for Active; 'I' for Inactive)
REMARK    1  A    between atoms: N_6  and  C_1 
REMARK    2  A    between atoms: C_3  and  N_6 
REMARK    3  A    between atoms: N_4  and  C_3 
REMARK       I    between atoms: C_9  and  N_4 
REMARK    4  A    between atoms: C_12  and  C_9 
REMARK    5  A    between atoms: C_10  and  C_13 
REMARK    6  A    between atoms: C_16  and  C_10 
ROOT
ATOM      1  N   UNL d   1      13.748  13.144  -3.853  0.00  0.00    -0.179 NA
ATOM      2  C   UNL d   1      13.540  13.732  -4.354  0.00  0.00     0.281 C 
ATOM      3  O   UNL d   1      12.953  13.584  -4.942  0.00  0.00    -0.265 OA
ENDROOT
BRANCH   2   4
ATOM      4  C   UNL d   1      13.872  14.481  -4.327  0.00  0.00     0.058 A 
ATOM      5  C   UNL d   1      13.814  14.956  -3.655  0.00  0.00     0.005 A 
ATOM      6  C   UNL d   1      14.131  15.672  -3.629  0.00  0.00     0.003 A 
ATOM      7  C   UNL d   1      14.537  15.986  -4.272  0.00  0.00     0.039 A 
ATOM      8  C   UNL d   1      14.598  15.514  -4.949  0.00  0.00     0.003 A 
ATOM      9  C   UNL d   1      14.281  14.798  -4.975  0.00  0.00     0.005 A 
BRANCH   7  10
ATOM     10  C   UNL d   1      14.869  16.736  -4.245  0.00  0.00     0.196 C 
ATOM     11  O   UNL d   1      15.453  16.936  -3.694  0.00  0.00    -0.287 OA
BRANCH  10  12
ATOM     12  C   UNL d   1      14.636  17.337  -4.770  0.00  0.00     0.039 A 
ATOM     13  C   UNL d   1      14.608  17.220  -5.543  0.00  0.00     0.003 A 
ATOM     14  C   UNL d   1      14.376  17.817  -6.060  0.00  0.00     0.000 A 
ATOM     15  C   UNL d   1      14.174  18.546  -5.729  0.00  0.00     0.000 A 
ATOM     16  C   UNL d   1      14.201  18.663  -4.955  0.00  0.00     0.000 A 
ATOM     17  C   UNL d   1      14.434  18.064  -4.430  0.00  0.00     0.003 A 
ENDBRANCH  10  12
ENDBRANCH   7  10
ENDBRANCH   2   4
BRANCH   1  18
ATOM     18  C   UNL d   1      13.405  12.440  -3.914  0.00  0.00     0.225 C 
ATOM     19  S   UNL d   1      12.769  12.309  -4.389  0.00  0.00    -0.037 SA
BRANCH  18  20
ATOM     20  N   UNL d   1      13.702  11.783  -3.471  0.00  0.00    -0.192 NA
BRANCH  20  21
ATOM     21  C   UNL d   1      13.875  11.897  -2.669  0.00  0.00     0.196 A 
ATOM     22  N   UNL d   1      14.566  12.125  -2.347  0.00  0.00    -0.221 NA
ATOM     23  C   UNL d   1      14.441  12.153  -1.540  0.00  0.00     0.090 A 
ATOM     24  C   UNL d   1      14.937  12.348  -0.908  0.00  0.00     0.020 A 
ATOM     25  C   UNL d   1      13.652  11.932  -1.415  0.00  0.00     0.050 A 
ATOM     26  C   UNL d   1      14.616  12.315  -0.143  0.00  0.00     0.002 A 
ATOM     27  C   UNL d   1      13.827  12.094  -0.018  0.00  0.00     0.001 A 
ATOM     28  C   UNL d   1      13.366  11.908  -0.660  0.00  0.00     0.008 A 
ATOM     29  S   UNL d   1      13.333  11.780  -2.153  0.00  0.00    -0.047 SA
ENDBRANCH  20  21
ENDBRANCH  18  20
ENDBRANCH   1  18
TORSDOF 6
ENDMDL
MODEL 2
REMARK VINA RESULT:      56.2      1.114      1.664
REMARK  6 active torsions:
REMARK  status: ('A' for Active; 'I' for Inactive)
REMARK    1  A    between atoms: N_6  and  C_1 
REMARK    2  A    between atoms: C_3  and  N_6 
REMARK    3  A    between atoms: N_4  and  C_3 
REMARK       I    between atoms: C_9  and  N_4 
REMARK    4  A    between atoms: C_12  and  C_9 
REMARK    5  A    between atoms: C_10  and  C_13 
REMARK    6  A    between atoms: C_16  and  C_10 
ROOT
ATOM      1  N   UNL d   1      13.373  12.946  -3.635  0.00  0.00    -0.179 NA
ATOM      2  C   UNL d   1      13.317  13.482  -4.226  0.00  0.00     0.281 C 
ATOM      3  O   UNL d   1      12.937  13.261  -4.947  0.00  0.00    -0.265 OA
ENDROOT
BRANCH   2   4
ATOM      4  C   UNL d   1      13.612  14.244  -4.170  0.00  0.00     0.058 A 
ATOM      5  C   UNL d   1      13.118  14.904  -4.210  0.00  0.00     0.005 A 
ATOM      6  C   UNL d   1      13.401  15.633  -4.156  0.00  0.00     0.003 A 
ATOM      7  C   UNL d   1      14.205  15.776  -4.056  0.00  0.00     0.039 A 
ATOM      8  C   UNL d   1      14.704  15.118  -4.014  0.00  0.00     0.003 A 
ATOM      9  C   UNL d   1      14.422  14.389  -4.068  0.00  0.00     0.005 A 
BRANCH   7  10
ATOM     10  C   UNL d   1      14.500  16.540  -3.999  0.00  0.00     0.196 C 
ATOM     11  O   UNL d   1      14.624  17.011  -4.667  0.00  0.00    -0.287 OA
BRANCH  10  12
ATOM     12  C   UNL d   1      14.692  16.881  -3.266  0.00  0.00     0.039 A 
ATOM     13  C   UNL d   1      14.589  17.645  -3.127  0.00  0.00     0.003 A 
ATOM     14  C   UNL d   1      14.780  17.978  -2.400  0.00  0.00     0.000 A 
ATOM     15  C   UNL d   1      15.085  17.475  -1.821  0.00  0.00     0.000 A 
ATOM     16  C   UNL d   1      15.188  16.711  -1.959  0.00  0.00     0.000 A 
ATOM     17  C   UNL d   1      14.997  16.370  -2.691  0.00  0.00     0.003 A 
ENDBRANCH  10  12
ENDBRANCH   7  10
ENDBRANCH   2   4
BRANCH   1  18
ATOM     18  C   UNL d   1      13.076  12.225  -3.731  0.00  0.00     0.225 C 
ATOM     19  S   UNL d   1      13.007  11.880  -4.453  0.00  0.00    -0.037 SA
BRANCH  18  20
ATOM     20  N   UNL d   1      12.814  11.781  -3.059  0.00  0.00    -0.192 NA
BRANCH  20  21
ATOM     21  C   UNL d   1      13.274  11.802  -2.372  0.00  0.00     0.196 A 
ATOM     22  N   UNL d   1      13.024  11.779  -1.617  0.00  0.00    -0.221 NA
ATOM     23  C   UNL d   1      13.697  11.816  -1.154  0.00  0.00     0.090 A 
ATOM     24  C   UNL d   1      13.807  11.814  -0.335  0.00  0.00     0.020 A 
ATOM     25  C   UNL d   1      14.340  11.861  -1.675  0.00  0.00     0.050 A 
ATOM     26  C   UNL d   1      14.587  11.859  -0.052  0.00  0.00     0.002 A 
ATOM     27  C   UNL d   1      15.230  11.904  -0.573  0.00  0.00     0.001 A 
ATOM     28  C   UNL d   1      15.088  11.904  -1.372  0.00  0.00     0.008 A 
ATOM     29  S   UNL d   1      14.029  11.849  -2.431  0.00  0.00    -0.047 SA
ENDBRANCH  20  21
ENDBRANCH  18  20
ENDBRANCH   1  18
TORSDOF 6
ENDMDL
MODEL 3
REMARK VINA RESULT:      57.7      2.222      3.491
REMARK  6 active torsions:
REMARK  status: ('A' for Active; 'I' for Inactive)
REMARK    1  A    between atoms: N_6  and  C_1 
REMARK    2  A    between atoms: C_3  and  N_6 
REMARK    3  A    between atoms: N_4  and  C_3 
REMARK       I    between atoms: C_9  and  N_4 
REMARK    4  A    between atoms: C_12  and  C_9 
REMARK    5  A    between atoms: C_10  and  C_13 
REMARK    6  A    between atoms: C_16  and  C_10 
ROOT
ATOM      1  N   UNL d   1      14.542  13.027  -1.176  0.00  0.00    -0.179 NA
ATOM      2  C   UNL d   1      15.067  13.401  -0.702  0.00  0.00     0.281 C 
ATOM      3  O   UNL d   1      15.530  12.947  -0.162  0.00  0.00    -0.265 OA
ENDROOT
BRANCH   2   4
ATOM      4  C   UNL d   1      15.180  14.213  -0.712  0.00  0.00     0.058 A 
ATOM      5  C   UNL d   1      15.286  14.644  -0.016  0.00  0.00     0.005 A 
ATOM      6  C   UNL d   1      15.394  15.421  -0.026  0.00  0.00     0.003 A 
ATOM      7  C   UNL d   1      15.407  15.843  -0.732  0.00  0.00     0.039 A 
ATOM      8  C   UNL d   1      15.302  15.416  -1.432  0.00  0.00     0.003 A 
ATOM      9  C   UNL d   1      15.194  14.640  -1.422  0.00  0.00     0.005 A 
BRANCH   7  10
ATOM     10  C   UNL d   1      15.520  16.657  -0.742  0.00  0.00     0.196 C 
ATOM     11  O   UNL d   1      15.844  17.061  -0.097  0.00  0.00    -0.287 OA
BRANCH  10  12
ATOM     12  C   UNL d   1      15.316  17.118  -1.402  0.00  0.00     0.039 A 
ATOM     13  C   UNL d   1      15.189  17.889  -1.342  0.00  0.00     0.003 A 
ATOM     14  C   UNL d   1      14.987  18.342  -1.998  0.00  0.00     0.000 A 
ATOM     15  C   UNL d   1      14.922  17.952  -2.723  0.00  0.00     0.000 A 
ATOM     16  C   UNL d   1      15.049  17.181  -2.783  0.00  0.00     0.000 A 
ATOM     17  C   UNL d   1      15.253  16.720  -2.124  0.00  0.00     0.003 A 
ENDBRANCH  10  12
ENDBRANCH   7  10
ENDBRANCH   2   4
BRANCH   1  18
ATOM     18  C   UNL d   1      14.465  12.247  -1.134  0.00  0.00     0.225 C 
ATOM     19  S   UNL d   1      14.539  11.842  -0.443  0.00  0.00    -0.037 SA
BRANCH  18  20
ATOM     20  N   UNL d   1      14.298  11.799  -1.833  0.00  0.00    -0.192 NA
BRANCH  20  21
ATOM     21  C   UNL d   1      13.958  12.190  -2.477  0.00  0.00     0.196 A 
ATOM     22  N   UNL d   1      13.882  12.975  -2.586  0.00  0.00    -0.221 NA
ATOM     23  C   UNL d   1      13.509  13.068  -3.308  0.00  0.00     0.090 A 
ATOM     24  C   UNL d   1      13.277  13.740  -3.729  0.00  0.00     0.020 A 
ATOM     25  C   UNL d   1      13.375  12.306  -3.605  0.00  0.00     0.050 A 
ATOM     26  C   UNL d   1      12.903  13.624  -4.462  0.00  0.00     0.002 A 
ATOM     27  C   UNL d   1      12.769  12.862  -4.759  0.00  0.00     0.001 A 
ATOM     28  C   UNL d   1      13.010  12.223  -4.321  0.00  0.00     0.008 A 
ATOM     29  S   UNL d   1      13.673  11.784  -3.050  0.00  0.00    -0.047 SA
ENDBRANCH  20  21
ENDBRANCH  18  20
ENDBRANCH   1  18
TORSDOF 6
ENDMDL
