MODEL 1
REMARK VINA RESULT:      39.4      0.000      0.000
REMARK  3 active torsions:
REMARK  status: ('A' for Active; 'I' for Inactive)
REMARK       I    between atoms: C_4  and  N_1 
REMARK    1  A    between atoms: C_7  and  C_3 
REMARK    2  A    between atoms: C_8  and  C_4 
REMARK    3  A    between atoms: C_13  and  C_5 
ROOT
ATOM      1  N   UNL d   1      14.295  13.601  -2.497  0.00  0.00    -0.194 N 
ATOM      2  N   UNL d   1      14.024  13.663  -3.263  0.00  0.00    -0.163 NA
ATOM      3  C   UNL d   1      14.208  12.814  -2.255  0.00  0.00     0.091 A 
ATOM      4  C   UNL d   1      14.614  14.226  -2.015  0.00  0.00     0.286 C 
ATOM      5  C   UNL d   1      13.768  12.914  -3.500  0.00  0.00     0.103 A 
ATOM      6  C   UNL d   1      13.883  12.396  -2.878  0.00  0.00     0.040 A 
ATOM      7  O   UNL d   1      14.663  14.986  -2.341  0.00  0.00    -0.265 OA
ENDROOT
BRANCH   3   8
ATOM      8  C   UNL d   1      14.417  12.511  -1.511  0.00  0.00     0.057 A 
ATOM      9  C   UNL d   1      15.105  12.085  -1.427  0.00  0.00     0.197 A 
ATOM     10  O   UNL d   1      15.590  11.952  -2.064  0.00  0.00    -0.286 OA
ATOM     11  C   UNL d   1      15.313  11.781  -0.682  0.00  0.00     0.042 A 
ATOM     12  C   UNL d   1      14.837  11.902  -0.021  0.00  0.00     0.003 A 
ATOM     13  C   UNL d   1      14.145  12.336  -0.127  0.00  0.00     0.000 A 
ATOM     14  C   UNL d   1      13.939  12.632  -0.848  0.00  0.00     0.005 A 
ENDBRANCH   3   8
BRANCH   4  15
ATOM     15  C   UNL d   1      14.861  14.081  -1.264  0.00  0.00     0.087 A 
ATOM     16  S   UNL d   1      14.448  13.671  -0.713  0.00  0.00    -0.082 SA
ATOM     17  C   UNL d   1      14.908  13.655  -0.014  0.00  0.00     0.036 A 
ATOM     18  C   UNL d   1      15.613  14.070  -0.163  0.00  0.00     0.008 A 
ATOM     19  C   UNL d   1      15.583  14.333  -0.935  0.00  0.00     0.012 A 
ENDBRANCH   4  15
BRANCH   5  20
ATOM     20  C   UNL d   1      13.451  12.728  -4.239  0.00  0.00     0.019 A 
ATOM     21  C   UNL d   1      13.087  11.988  -4.357  0.00  0.00     0.002 A 
ATOM     22  C   UNL d   1      12.769  11.797  -5.095  0.00  0.00     0.000 A 
ATOM     23  C   UNL d   1      12.811  12.340  -5.718  0.00  0.00     0.000 A 
ATOM     24  C   UNL d   1      13.175  13.080  -5.600  0.00  0.00     0.000 A 
ATOM     25  C   UNL d   1      13.492  13.267  -4.861  0.00  0.00     0.002 A 
ENDBRANCH   5  20
TORSDOF 3
ENDMDL
