MODEL 1
REMARK VINA RESULT:     -11.0      0.000      0.000
REMARK  0 active torsions:
REMARK  status: ('A' for Active; 'I' for Inactive)
ROOT
ATOM      1  C   UNL d   1      53.624  32.378  54.069  0.00  0.00     0.267 A 
ATOM      2  N   UNL d   1      53.469  33.164  54.060  0.00  0.00    -0.270 N 
ATOM      3  C   UNL d   1      53.329  31.902  53.680  0.00  0.00     0.081 A 
ATOM      4  C   UNL d   1      52.753  31.916  53.097  0.00  0.00     0.105 A 
ATOM      5  O   UNL d   1      52.365  32.430  52.800  0.00  0.00    -0.305 OA
ATOM      6  C   UNL d   1      52.915  33.546  53.570  0.00  0.00     0.090 A 
ATOM      7  C   UNL d   1      52.403  33.207  52.985  0.00  0.00     0.116 A 
ATOM      8  C   UNL d   1      53.674  31.194  53.896  0.00  0.00     0.028 A 
ATOM      9  O   UNL d   1      54.194  32.118  54.599  0.00  0.00    -0.267 OA
ATOM     10  C   UNL d   1      52.522  31.223  52.731  0.00  0.00     0.026 A 
ATOM     11  C   UNL d   1      53.445  30.492  53.531  0.00  0.00     0.103 A 
ATOM     12  C   UNL d   1      53.892  33.633  54.579  0.00  0.00     0.102 C 
ATOM     13  N   UNL d   1      53.793  29.783  53.751  0.00  0.00    -0.148 N 
ATOM     14  C   UNL d   1      52.868  30.506  52.947  0.00  0.00     0.023 A 
ATOM     15  C   UNL d   1      52.899  34.382  53.711  0.00  0.00     0.020 A 
ATOM     16  C   UNL d   1      51.883  33.699  52.550  0.00  0.00     0.026 A 
ATOM     17  C   UNL d   1      52.374  34.874  53.271  0.00  0.00     0.002 A 
ATOM     18  C   UNL d   1      51.862  34.531  52.686  0.00  0.00     0.002 A 
ENDROOT
TORSDOF 0
ENDMDL
MODEL 2
REMARK VINA RESULT:     -10.9      0.762      1.961
REMARK  0 active torsions:
REMARK  status: ('A' for Active; 'I' for Inactive)
ROOT
ATOM      1  C   UNL d   1      52.752  32.296  53.094  0.00  0.00     0.267 A 
ATOM      2  N   UNL d   1      52.890  33.031  53.379  0.00  0.00    -0.270 N 
ATOM      3  C   UNL d   1      53.034  31.715  53.316  0.00  0.00     0.081 A 
ATOM      4  C   UNL d   1      53.576  31.531  53.904  0.00  0.00     0.105 A 
ATOM      5  O   UNL d   1      53.934  31.912  54.381  0.00  0.00    -0.305 OA
ATOM      6  C   UNL d   1      53.406  33.224  54.004  0.00  0.00     0.090 A 
ATOM      7  C   UNL d   1      53.890  32.706  54.469  0.00  0.00     0.116 A 
ATOM      8  C   UNL d   1      52.718  31.123  52.851  0.00  0.00     0.028 A 
ATOM      9  O   UNL d   1      52.220  32.231  52.473  0.00  0.00    -0.267 OA
ATOM     10  C   UNL d   1      53.800  30.754  54.026  0.00  0.00     0.026 A 
ATOM     11  C   UNL d   1      52.941  30.338  52.969  0.00  0.00     0.103 A 
ATOM     12  C   UNL d   1      52.487  33.649  53.026  0.00  0.00     0.102 C 
ATOM     13  N   UNL d   1      52.621  29.747  52.500  0.00  0.00    -0.148 N 
ATOM     14  C   UNL d   1      53.482  30.154  53.557  0.00  0.00     0.023 A 
ATOM     15  C   UNL d   1      53.412  34.058  54.156  0.00  0.00     0.020 A 
ATOM     16  C   UNL d   1      54.373  33.021  55.077  0.00  0.00     0.026 A 
ATOM     17  C   UNL d   1      53.900  34.371  54.769  0.00  0.00     0.002 A 
ATOM     18  C   UNL d   1      54.384  33.849  55.234  0.00  0.00     0.002 A 
ENDROOT
TORSDOF 0
ENDMDL
MODEL 3
REMARK VINA RESULT:     -10.5      1.202      3.081
REMARK  0 active torsions:
REMARK  status: ('A' for Active; 'I' for Inactive)
ROOT
ATOM      1  C   UNL d   1      52.629  32.830  53.083  0.00  0.00     0.267 A 
ATOM      2  N   UNL d   1      53.243  32.597  53.541  0.00  0.00    -0.270 N 
ATOM      3  C   UNL d   1      52.313  33.434  53.105  0.00  0.00     0.081 A 
ATOM      4  C   UNL d   1      52.408  34.113  53.555  0.00  0.00     0.105 A 
ATOM      5  O   UNL d   1      52.851  34.302  54.074  0.00  0.00    -0.305 OA
ATOM      6  C   UNL d   1      53.613  33.054  54.132  0.00  0.00     0.090 A 
ATOM      7  C   UNL d   1      53.432  33.844  54.380  0.00  0.00     0.116 A 
ATOM      8  C   UNL d   1      51.729  33.400  52.535  0.00  0.00     0.028 A 
ATOM      9  O   UNL d   1      52.349  32.289  52.533  0.00  0.00    -0.267 OA
ATOM     10  C   UNL d   1      51.919  34.757  53.434  0.00  0.00     0.026 A 
ATOM     11  C   UNL d   1      51.233  34.046  52.409  0.00  0.00     0.103 A 
ATOM     12  C   UNL d   1      53.535  31.844  53.417  0.00  0.00     0.102 C 
ATOM     13  N   UNL d   1      50.648  34.008  51.836  0.00  0.00    -0.148 N 
ATOM     14  C   UNL d   1      51.328  34.725  52.859  0.00  0.00     0.023 A 
ATOM     15  C   UNL d   1      54.245  32.628  54.503  0.00  0.00     0.020 A 
ATOM     16  C   UNL d   1      53.878  34.202  54.991  0.00  0.00     0.026 A 
ATOM     17  C   UNL d   1      54.693  32.992  55.119  0.00  0.00     0.002 A 
ATOM     18  C   UNL d   1      54.509  33.785  55.366  0.00  0.00     0.002 A 
ENDROOT
TORSDOF 0
ENDMDL
MODEL 4
REMARK VINA RESULT:     -10.5      1.149      3.254
REMARK  0 active torsions:
REMARK  status: ('A' for Active; 'I' for Inactive)
ROOT
ATOM      1  C   UNL d   1      52.725  33.107  53.589  0.00  0.00     0.267 A 
ATOM      2  N   UNL d   1      52.522  32.432  53.210  0.00  0.00    -0.270 N 
ATOM      3  C   UNL d   1      53.224  33.180  54.049  0.00  0.00     0.081 A 
ATOM      4  C   UNL d   1      53.775  32.671  54.381  0.00  0.00     0.105 A 
ATOM      5  O   UNL d   1      53.918  31.982  54.303  0.00  0.00    -0.305 OA
ATOM      6  C   UNL d   1      52.886  31.688  53.308  0.00  0.00     0.090 A 
ATOM      7  C   UNL d   1      53.533  31.479  53.815  0.00  0.00     0.116 A 
ATOM      8  C   UNL d   1      53.208  33.966  54.269  0.00  0.00     0.028 A 
ATOM      9  O   UNL d   1      52.291  33.780  53.408  0.00  0.00    -0.267 OA
ATOM     10  C   UNL d   1      54.309  32.949  54.934  0.00  0.00     0.026 A 
ATOM     11  C   UNL d   1      53.745  34.252  54.826  0.00  0.00     0.103 A 
ATOM     12  C   UNL d   1      51.903  32.475  52.679  0.00  0.00     0.102 C 
ATOM     13  N   UNL d   1      53.727  35.042  55.045  0.00  0.00    -0.148 N 
ATOM     14  C   UNL d   1      54.296  33.743  55.158  0.00  0.00     0.023 A 
ATOM     15  C   UNL d   1      52.526  31.099  52.817  0.00  0.00     0.020 A 
ATOM     16  C   UNL d   1      53.815  30.691  53.827  0.00  0.00     0.026 A 
ATOM     17  C   UNL d   1      52.812  30.305  52.832  0.00  0.00     0.002 A 
ATOM     18  C   UNL d   1      53.461  30.099  53.341  0.00  0.00     0.002 A 
ENDROOT
TORSDOF 0
ENDMDL
MODEL 5
REMARK VINA RESULT:     -10.4      0.956      3.048
REMARK  0 active torsions:
REMARK  status: ('A' for Active; 'I' for Inactive)
ROOT
ATOM      1  C   UNL d   1      53.601  33.349  54.569  0.00  0.00     0.267 A 
ATOM      2  N   UNL d   1      53.727  32.562  54.503  0.00  0.00    -0.270 N 
ATOM      3  C   UNL d   1      53.212  33.734  54.161  0.00  0.00     0.081 A 
ATOM      4  C   UNL d   1      52.753  33.581  53.498  0.00  0.00     0.105 A 
ATOM      5  O   UNL d   1      52.606  32.998  53.125  0.00  0.00    -0.305 OA
ATOM      6  C   UNL d   1      53.405  32.063  53.919  0.00  0.00     0.090 A 
ATOM      7  C   UNL d   1      52.885  32.264  53.280  0.00  0.00     0.116 A 
ATOM      8  C   UNL d   1      53.263  34.493  54.457  0.00  0.00     0.028 A 
ATOM      9  O   UNL d   1      53.976  33.735  55.189  0.00  0.00    -0.267 OA
ATOM     10  C   UNL d   1      52.346  34.189  53.133  0.00  0.00     0.026 A 
ATOM     11  C   UNL d   1      52.854  35.109  54.092  0.00  0.00     0.103 A 
ATOM     12  C   UNL d   1      54.217  32.215  55.058  0.00  0.00     0.102 C 
ATOM     13  N   UNL d   1      52.908  35.871  54.392  0.00  0.00    -0.148 N 
ATOM     14  C   UNL d   1      52.396  34.957  53.429  0.00  0.00     0.023 A 
ATOM     15  C   UNL d   1      53.659  31.261  54.020  0.00  0.00     0.020 A 
ATOM     16  C   UNL d   1      52.624  31.669  52.751  0.00  0.00     0.026 A 
ATOM     17  C   UNL d   1      53.394  30.664  53.486  0.00  0.00     0.002 A 
ATOM     18  C   UNL d   1      52.873  30.869  52.846  0.00  0.00     0.002 A 
ENDROOT
TORSDOF 0
ENDMDL
MODEL 6
REMARK VINA RESULT:      -9.8      1.256      2.499
REMARK  0 active torsions:
REMARK  status: ('A' for Active; 'I' for Inactive)
ROOT
ATOM      1  C   UNL d   1      53.351  32.752  53.783  0.00  0.00     0.267 A 
ATOM      2  N   UNL d   1      52.712  32.665  53.309  0.00  0.00    -0.270 N 
ATOM      3  C   UNL d   1      53.516  33.307  54.144  0.00  0.00     0.081 A 
ATOM      4  C   UNL d   1      53.174  34.046  54.246  0.00  0.00     0.105 A 
ATOM      5  O   UNL d   1      52.592  34.358  53.991  0.00  0.00    -0.305 OA
ATOM      6  C   UNL d   1      52.125  33.240  53.170  0.00  0.00     0.090 A 
ATOM      7  C   UNL d   1      52.069  34.026  53.486  0.00  0.00     0.116 A 
ATOM      8  C   UNL d   1      54.210  33.121  54.532  0.00  0.00     0.028 A 
ATOM      9  O   UNL d   1      53.861  32.112  53.841  0.00  0.00    -0.267 OA
ATOM     10  C   UNL d   1      53.528  34.597  54.734  0.00  0.00     0.026 A 
ATOM     11  C   UNL d   1      54.571  33.673  55.026  0.00  0.00     0.103 A 
ATOM     12  C   UNL d   1      52.626  31.947  52.927  0.00  0.00     0.102 C 
ATOM     13  N   UNL d   1      55.268  33.483  55.414  0.00  0.00    -0.148 N 
ATOM     14  C   UNL d   1      54.229  34.412  55.127  0.00  0.00     0.023 A 
ATOM     15  C   UNL d   1      51.530  32.955  52.638  0.00  0.00     0.020 A 
ATOM     16  C   UNL d   1      51.426  34.516  53.270  0.00  0.00     0.026 A 
ATOM     17  C   UNL d   1      50.883  33.453  52.423  0.00  0.00     0.002 A 
ATOM     18  C   UNL d   1      50.830  34.239  52.741  0.00  0.00     0.002 A 
ENDROOT
TORSDOF 0
ENDMDL
