MODEL 1
REMARK VINA RESULT:     101.1      0.000      0.000
REMARK  6 active torsions:
REMARK  status: ('A' for Active; 'I' for Inactive)
REMARK    1  A    between atoms: C_12  and  C_3 
REMARK    2  A    between atoms: O_11  and  C_5 
REMARK    3  A    between atoms: O_16  and  C_10 
REMARK    4  A    between atoms: C_13  and  O_11 
REMARK    5  A    between atoms: C_15  and  O_16 
REMARK    6  A    between atoms: O_24  and  C_21 
ROOT
ATOM      1  C   UNL d   1      61.144  46.985  50.361  0.00  0.00     0.201 A 
ATOM      2  C   UNL d   1      60.817  47.615  50.785  0.00  0.00     0.085 A 
ATOM      3  C   UNL d   1      61.053  46.219  50.624  0.00  0.00     0.064 A 
ATOM      4  C   UNL d   1      60.396  47.459  51.478  0.00  0.00     0.107 A 
ATOM      5  C   UNL d   1      60.902  48.389  50.530  0.00  0.00     0.110 A 
ATOM      6  C   UNL d   1      60.632  46.063  51.316  0.00  0.00     0.126 A 
ATOM      7  O   UNL d   1      60.302  46.683  51.747  0.00  0.00    -0.305 OA
ATOM      8  C   UNL d   1      60.066  48.079  51.909  0.00  0.00     0.050 A 
ATOM      9  C   UNL d   1      60.578  49.001  50.952  0.00  0.00     0.050 A 
ATOM     10  C   UNL d   1      60.158  48.846  51.645  0.00  0.00     0.107 A 
ATOM     11  O   UNL d   1      61.564  47.141  49.668  0.00  0.00    -0.286 OA
ENDROOT
BRANCH   3  12
ATOM     12  C   UNL d   1      61.384  45.591  50.193  0.00  0.00     0.005 A 
ATOM     13  C   UNL d   1      61.427  45.629  49.372  0.00  0.00     0.002 A 
ATOM     14  C   UNL d   1      61.755  45.008  48.946  0.00  0.00     0.024 A 
ATOM     15  C   UNL d   1      62.042  44.341  49.346  0.00  0.00     0.094 A 
ATOM     16  C   UNL d   1      62.001  44.301  50.165  0.00  0.00     0.024 A 
ATOM     17  C   UNL d   1      61.670  44.927  50.591  0.00  0.00     0.002 A 
BRANCH  15  18
ATOM     18  O   UNL d   1      62.373  43.715  48.920  0.00  0.00    -0.328 OA
ATOM     19  C   UNL d   1      62.622  43.027  49.314  0.00  0.00     0.181 C 
ENDBRANCH  15  18
ENDBRANCH   3  12
BRANCH   5  20
ATOM     20  O   UNL d   1      61.322  48.545  49.837  0.00  0.00    -0.273 OA
BRANCH  20  21
ATOM     21  C   UNL d   1      61.345  49.308  49.531  0.00  0.00     0.300 C 
ATOM     22  O   UNL d   1      60.643  49.705  49.356  0.00  0.00    -0.259 OA
ATOM     23  C   UNL d   1      62.070  49.675  49.398  0.00  0.00     0.074 C 
ENDBRANCH  20  21
ENDBRANCH   5  20
BRANCH  10  24
ATOM     24  O   UNL d   1      59.826  49.473  52.077  0.00  0.00    -0.273 OA
BRANCH  24  25
ATOM     25  C   UNL d   1      59.017  49.621  52.028  0.00  0.00     0.300 C 
ATOM     26  O   UNL d   1      58.567  49.685  52.715  0.00  0.00    -0.259 OA
ATOM     27  C   UNL d   1      58.648  49.707  51.293  0.00  0.00     0.074 C 
ENDBRANCH  24  25
ENDBRANCH  10  24
TORSDOF 6
ENDMDL
