MODEL 1
REMARK VINA RESULT:     -11.6      0.000      0.000
REMARK  2 active torsions:
REMARK  status: ('A' for Active; 'I' for Inactive)
REMARK    1  A    between atoms: C_10  and  N_1 
REMARK    2  A    between atoms: N_11  and  C_10 
ROOT
ATOM      1  N   UNL d   1      52.199  33.878  53.202  0.00  0.00    -0.175 N 
ATOM      2  N   UNL d   1      52.134  32.783  52.926  0.00  0.00    -0.161 NA
ATOM      3  C   UNL d   1      52.736  32.369  53.304  0.00  0.00     0.102 A 
ATOM      4  C   UNL d   1      53.266  32.761  53.794  0.00  0.00     0.024 A 
ATOM      5  C   UNL d   1      52.801  34.105  53.712  0.00  0.00     0.282 A 
ATOM      6  C   UNL d   1      53.332  33.549  54.007  0.00  0.00     0.059 A 
ATOM      7  C   UNL d   1      53.804  32.199  54.092  0.00  0.00     0.002 A 
ATOM      8  C   UNL d   1      52.942  31.572  53.299  0.00  0.00     0.019 A 
ATOM      9  C   UNL d   1      53.599  31.466  53.783  0.00  0.00     0.002 A 
ATOM     10  O   UNL d   1      52.865  34.911  53.927  0.00  0.00    -0.265 OA
ATOM     11  C   UNL d   1      53.937  33.789  54.522  0.00  0.00     0.005 A 
ATOM     12  C   UNL d   1      54.399  32.433  54.599  0.00  0.00     0.000 A 
ATOM     13  C   UNL d   1      52.613  30.921  52.911  0.00  0.00     0.002 A 
ATOM     14  C   UNL d   1      53.922  30.715  53.877  0.00  0.00     0.000 A 
ATOM     15  C   UNL d   1      54.474  33.227  54.821  0.00  0.00     0.000 A 
ATOM     16  C   UNL d   1      52.942  30.165  53.009  0.00  0.00     0.000 A 
ATOM     17  C   UNL d   1      53.594  30.064  53.490  0.00  0.00     0.000 A 
ENDROOT
BRANCH   1  18
ATOM     18  C   UNL d   1      51.767  34.560  53.009  0.00  0.00     0.188 C 
BRANCH  18  19
ATOM     19  N   UNL d   1      51.043  34.489  52.612  0.00  0.00    -0.283 N 
ATOM     20  C   UNL d   1      51.035  34.363  51.800  0.00  0.00     0.108 A 
ATOM     21  C   UNL d   1      50.313  34.292  51.400  0.00  0.00     0.142 A 
ATOM     22  O   UNL d   1      49.602  34.349  51.826  0.00  0.00    -0.300 OA
ATOM     23  C   UNL d   1      49.615  34.475  52.641  0.00  0.00     0.142 A 
ATOM     24  C   UNL d   1      50.348  34.546  53.041  0.00  0.00     0.108 A 
ENDBRANCH  18  19
ENDBRANCH   1  18
TORSDOF 2
ENDMDL
MODEL 2
REMARK VINA RESULT:     -10.4      1.605      3.792
REMARK  2 active torsions:
REMARK  status: ('A' for Active; 'I' for Inactive)
REMARK    1  A    between atoms: C_10  and  N_1 
REMARK    2  A    between atoms: N_11  and  C_10 
ROOT
ATOM      1  N   UNL d   1      53.325  32.106  53.607  0.00  0.00    -0.175 N 
ATOM      2  N   UNL d   1      52.292  32.313  53.200  0.00  0.00    -0.161 NA
ATOM      3  C   UNL d   1      52.117  33.112  53.287  0.00  0.00     0.102 A 
ATOM      4  C   UNL d   1      52.664  33.622  53.628  0.00  0.00     0.024 A 
ATOM      5  C   UNL d   1      53.744  32.740  53.919  0.00  0.00     0.282 A 
ATOM      6  C   UNL d   1      53.415  33.495  53.929  0.00  0.00     0.059 A 
ATOM      7  C   UNL d   1      52.330  34.385  53.639  0.00  0.00     0.002 A 
ATOM      8  C   UNL d   1      51.452  33.554  53.087  0.00  0.00     0.019 A 
ATOM      9  C   UNL d   1      51.582  34.338  53.303  0.00  0.00     0.002 A 
ATOM     10  O   UNL d   1      54.511  32.606  54.225  0.00  0.00    -0.265 OA
ATOM     11  C   UNL d   1      53.846  34.129  54.246  0.00  0.00     0.005 A 
ATOM     12  C   UNL d   1      52.753  35.011  53.950  0.00  0.00     0.000 A 
ATOM     13  C   UNL d   1      50.736  33.344  52.733  0.00  0.00     0.002 A 
ATOM     14  C   UNL d   1      51.000  34.903  53.165  0.00  0.00     0.000 A 
ATOM     15  C   UNL d   1      53.513  34.893  54.256  0.00  0.00     0.000 A 
ATOM     16  C   UNL d   1      50.152  33.917  52.596  0.00  0.00     0.000 A 
ATOM     17  C   UNL d   1      50.284  34.693  52.811  0.00  0.00     0.000 A 
ENDROOT
BRANCH   1  18
ATOM     18  C   UNL d   1      53.806  31.433  53.680  0.00  0.00     0.188 C 
BRANCH  18  19
ATOM     19  N   UNL d   1      53.467  30.679  53.627  0.00  0.00    -0.283 N 
ATOM     20  C   UNL d   1      53.229  30.389  52.896  0.00  0.00     0.108 A 
ATOM     21  C   UNL d   1      52.890  29.635  52.840  0.00  0.00     0.142 A 
ATOM     22  O   UNL d   1      52.794  29.179  53.526  0.00  0.00    -0.300 OA
ATOM     23  C   UNL d   1      53.033  29.473  54.259  0.00  0.00     0.142 A 
ATOM     24  C   UNL d   1      53.376  30.236  54.310  0.00  0.00     0.108 A 
ENDBRANCH  18  19
ENDBRANCH   1  18
TORSDOF 2
ENDMDL
MODEL 3
REMARK VINA RESULT:      -9.7      1.690      3.839
REMARK  2 active torsions:
REMARK  status: ('A' for Active; 'I' for Inactive)
REMARK    1  A    between atoms: C_10  and  N_1 
REMARK    2  A    between atoms: N_11  and  C_10 
ROOT
ATOM      1  N   UNL d   1      52.876  31.839  53.177  0.00  0.00    -0.175 N 
ATOM      2  N   UNL d   1      53.646  32.089  53.965  0.00  0.00    -0.161 NA
ATOM      3  C   UNL d   1      53.640  32.899  54.108  0.00  0.00     0.102 A 
ATOM      4  C   UNL d   1      53.122  33.389  53.699  0.00  0.00     0.024 A 
ATOM      5  C   UNL d   1      52.436  32.459  52.866  0.00  0.00     0.282 A 
ATOM      6  C   UNL d   1      52.559  33.231  53.127  0.00  0.00     0.059 A 
ATOM      7  C   UNL d   1      53.246  34.170  53.962  0.00  0.00     0.002 A 
ATOM      8  C   UNL d   1      54.080  33.371  54.620  0.00  0.00     0.019 A 
ATOM      9  C   UNL d   1      53.839  34.153  54.531  0.00  0.00     0.002 A 
ATOM     10  O   UNL d   1      51.861  32.293  52.282  0.00  0.00    -0.265 OA
ATOM     11  C   UNL d   1      52.109  33.851  52.807  0.00  0.00     0.005 A 
ATOM     12  C   UNL d   1      52.805  34.781  53.649  0.00  0.00     0.000 A 
ATOM     13  C   UNL d   1      54.677  33.189  55.161  0.00  0.00     0.002 A 
ATOM     14  C   UNL d   1      54.192  34.744  54.981  0.00  0.00     0.000 A 
ATOM     15  C   UNL d   1      52.233  34.631  53.070  0.00  0.00     0.000 A 
ATOM     16  C   UNL d   1      55.031  33.788  55.613  0.00  0.00     0.000 A 
ATOM     17  C   UNL d   1      54.789  34.562  55.522  0.00  0.00     0.000 A 
ENDROOT
BRANCH   1  18
ATOM     18  C   UNL d   1      52.621  31.144  52.803  0.00  0.00     0.188 C 
BRANCH  18  19
ATOM     19  N   UNL d   1      52.735  30.412  53.175  0.00  0.00    -0.283 N 
ATOM     20  C   UNL d   1      53.481  30.068  53.178  0.00  0.00     0.108 A 
ATOM     21  C   UNL d   1      53.598  29.337  53.549  0.00  0.00     0.142 A 
ATOM     22  O   UNL d   1      52.957  28.957  53.915  0.00  0.00    -0.300 OA
ATOM     23  C   UNL d   1      52.209  29.305  53.910  0.00  0.00     0.142 A 
ATOM     24  C   UNL d   1      52.096  30.045  53.533  0.00  0.00     0.108 A 
ENDBRANCH  18  19
ENDBRANCH   1  18
TORSDOF 2
ENDMDL
