MODEL 1
REMARK VINA RESULT:      -3.2      0.000      0.000
REMARK  5 active torsions:
REMARK  status: ('A' for Active; 'I' for Inactive)
REMARK    1  A    between atoms: C_6  and  N_1 
REMARK    2  A    between atoms: O_9  and  C_6 
REMARK    3  A    between atoms: C_8  and  O_9 
REMARK    4  A    between atoms: C_12  and  C_8 
REMARK    5  A    between atoms: C_14  and  C_12 
ROOT
ATOM      1  N   UNL d   1      33.232  19.924 -22.409  0.00  0.00    -0.150 N 
ATOM      2  N   UNL d   1      33.241  20.475 -23.023  0.00  0.00    -0.055 NA
ATOM      3  C   UNL d   1      33.223  20.171 -21.617  0.00  0.00     0.285 A 
ATOM      4  N   UNL d   1      33.241  21.277 -22.852  0.00  0.00    -0.130 NA
ATOM      5  C   UNL d   1      33.224  20.982 -21.461  0.00  0.00     0.077 A 
ATOM      6  C   UNL d   1      33.233  21.533 -22.076  0.00  0.00     0.109 A 
ATOM      7  O   UNL d   1      33.214  19.626 -21.009  0.00  0.00    -0.265 OA
ATOM      8  C   UNL d   1      33.215  21.237 -20.678  0.00  0.00     0.006 A 
ATOM      9  C   UNL d   1      33.233  22.336 -21.904  0.00  0.00     0.021 A 
ATOM     10  C   UNL d   1      33.216  22.041 -20.507  0.00  0.00     0.000 A 
ATOM     11  C   UNL d   1      33.225  22.594 -21.125  0.00  0.00     0.002 A 
ENDROOT
BRANCH   1  12
ATOM     12  C   UNL d   1      33.231  19.115 -22.580  0.00  0.00     0.233 C 
BRANCH  12  13
ATOM     13  O   UNL d   1      32.754  18.822 -23.184  0.00  0.00    -0.251 OA
BRANCH  13  14
ATOM     14  C   UNL d   1      32.779  18.021 -23.373  0.00  0.00     0.302 C 
ATOM     15  O   UNL d   1      33.103  17.480 -22.842  0.00  0.00    -0.259 OA
BRANCH  14  16
ATOM     16  C   UNL d   1      32.479  17.761 -24.096  0.00  0.00     0.069 C 
BRANCH  16  17
ATOM     17  C   UNL d   1      31.851  17.321 -24.108  0.00  0.00     0.005 A 
ATOM     18  C   UNL d   1      31.888  16.524 -23.898  0.00  0.00     0.000 A 
ATOM     19  C   UNL d   1      31.208  16.045 -23.911  0.00  0.00     0.000 A 
ATOM     20  C   UNL d   1      30.479  16.375 -24.140  0.00  0.00     0.000 A 
ATOM     21  C   UNL d   1      30.434  17.175 -24.353  0.00  0.00     0.000 A 
ATOM     22  C   UNL d   1      31.118  17.658 -24.340  0.00  0.00     0.000 A 
ENDBRANCH  16  17
ENDBRANCH  14  16
ENDBRANCH  13  14
ENDBRANCH  12  13
ENDBRANCH   1  12
TORSDOF 5
ENDMDL
MODEL 2
REMARK VINA RESULT:      -3.0      1.294      5.081
REMARK  5 active torsions:
REMARK  status: ('A' for Active; 'I' for Inactive)
REMARK    1  A    between atoms: C_6  and  N_1 
REMARK    2  A    between atoms: O_9  and  C_6 
REMARK    3  A    between atoms: C_8  and  O_9 
REMARK    4  A    between atoms: C_12  and  C_8 
REMARK    5  A    between atoms: C_14  and  C_12 
ROOT
ATOM      1  N   UNL d   1      32.989  19.020 -22.878  0.00  0.00    -0.150 N 
ATOM      2  N   UNL d   1      33.218  18.478 -22.300  0.00  0.00    -0.055 NA
ATOM      3  C   UNL d   1      32.730  18.764 -23.623  0.00  0.00     0.285 A 
ATOM      4  N   UNL d   1      33.189  17.674 -22.461  0.00  0.00    -0.130 NA
ATOM      5  C   UNL d   1      32.707  17.952 -23.769  0.00  0.00     0.077 A 
ATOM      6  C   UNL d   1      32.935  17.409 -23.192  0.00  0.00     0.109 A 
ATOM      7  O   UNL d   1      32.504  19.302 -24.195  0.00  0.00    -0.265 OA
ATOM      8  C   UNL d   1      32.451  17.687 -24.506  0.00  0.00     0.006 A 
ATOM      9  C   UNL d   1      32.906  16.604 -23.353  0.00  0.00     0.021 A 
ATOM     10  C   UNL d   1      32.422  16.882 -24.667  0.00  0.00     0.000 A 
ATOM     11  C   UNL d   1      32.652  16.337 -24.086  0.00  0.00     0.002 A 
ENDROOT
BRANCH   1  12
ATOM     12  C   UNL d   1      33.017  19.832 -22.717  0.00  0.00     0.233 C 
BRANCH  12  13
ATOM     13  O   UNL d   1      32.997  20.098 -21.938  0.00  0.00    -0.251 OA
BRANCH  13  14
ATOM     14  C   UNL d   1      32.845  20.891 -21.780  0.00  0.00     0.302 C 
ATOM     15  O   UNL d   1      33.193  21.479 -22.243  0.00  0.00    -0.259 OA
BRANCH  14  16
ATOM     16  C   UNL d   1      32.345  21.097 -21.158  0.00  0.00     0.069 C 
BRANCH  16  17
ATOM     17  C   UNL d   1      32.430  21.777 -20.813  0.00  0.00     0.005 A 
ATOM     18  C   UNL d   1      32.794  21.836 -20.075  0.00  0.00     0.000 A 
ATOM     19  C   UNL d   1      32.887  22.572 -19.700  0.00  0.00     0.000 A 
ATOM     20  C   UNL d   1      32.608  23.261 -20.076  0.00  0.00     0.000 A 
ATOM     21  C   UNL d   1      32.242  23.210 -20.818  0.00  0.00     0.000 A 
ATOM     22  C   UNL d   1      32.148  22.470 -21.196  0.00  0.00     0.000 A 
ENDBRANCH  16  17
ENDBRANCH  14  16
ENDBRANCH  13  14
ENDBRANCH  12  13
ENDBRANCH   1  12
TORSDOF 5
ENDMDL
MODEL 3
REMARK VINA RESULT:      -2.9      2.319      5.316
REMARK  5 active torsions:
REMARK  status: ('A' for Active; 'I' for Inactive)
REMARK    1  A    between atoms: C_6  and  N_1 
REMARK    2  A    between atoms: O_9  and  C_6 
REMARK    3  A    between atoms: C_8  and  O_9 
REMARK    4  A    between atoms: C_12  and  C_8 
REMARK    5  A    between atoms: C_14  and  C_12 
ROOT
ATOM      1  N   UNL d   1      30.658  17.059 -24.271  0.00  0.00    -0.150 N 
ATOM      2  N   UNL d   1      30.873  16.464 -23.742  0.00  0.00    -0.055 NA
ATOM      3  C   UNL d   1      29.868  17.156 -24.504  0.00  0.00     0.285 A 
ATOM      4  N   UNL d   1      30.299  15.960 -23.441  0.00  0.00    -0.130 NA
ATOM      5  C   UNL d   1      29.303  16.641 -24.192  0.00  0.00     0.077 A 
ATOM      6  C   UNL d   1      29.518  16.046 -23.663  0.00  0.00     0.109 A 
ATOM      7  O   UNL d   1      29.656  17.746 -25.028  0.00  0.00    -0.265 OA
ATOM      8  C   UNL d   1      28.516  16.730 -24.417  0.00  0.00     0.006 A 
ATOM      9  C   UNL d   1      28.943  15.542 -23.361  0.00  0.00     0.021 A 
ATOM     10  C   UNL d   1      27.943  16.225 -24.115  0.00  0.00     0.000 A 
ATOM     11  C   UNL d   1      28.158  15.627 -23.583  0.00  0.00     0.002 A 
ENDROOT
BRANCH   1  12
ATOM     12  C   UNL d   1      31.235  17.568 -24.576  0.00  0.00     0.233 C 
BRANCH  12  13
ATOM     13  O   UNL d   1      31.830  17.857 -24.085  0.00  0.00    -0.251 OA
BRANCH  13  14
ATOM     14  C   UNL d   1      32.394  18.375 -24.387  0.00  0.00     0.302 C 
ATOM     15  O   UNL d   1      32.250  18.777 -25.093  0.00  0.00    -0.259 OA
BRANCH  14  16
ATOM     16  C   UNL d   1      33.102  18.491 -23.982  0.00  0.00     0.069 C 
BRANCH  16  17
ATOM     17  C   UNL d   1      33.146  19.039 -23.447  0.00  0.00     0.005 A 
ATOM     18  C   UNL d   1      33.187  19.836 -23.656  0.00  0.00     0.000 A 
ATOM     19  C   UNL d   1      33.235  20.430 -23.077  0.00  0.00     0.000 A 
ATOM     20  C   UNL d   1      33.241  20.217 -22.271  0.00  0.00     0.000 A 
ATOM     21  C   UNL d   1      33.200  19.419 -22.052  0.00  0.00     0.000 A 
ATOM     22  C   UNL d   1      33.152  18.820 -22.635  0.00  0.00     0.000 A 
ENDBRANCH  16  17
ENDBRANCH  14  16
ENDBRANCH  13  14
ENDBRANCH  12  13
ENDBRANCH   1  12
TORSDOF 5
ENDMDL
MODEL 4
REMARK VINA RESULT:      -1.6      2.457      5.889
REMARK  5 active torsions:
REMARK  status: ('A' for Active; 'I' for Inactive)
REMARK    1  A    between atoms: C_6  and  N_1 
REMARK    2  A    between atoms: O_9  and  C_6 
REMARK    3  A    between atoms: C_8  and  O_9 
REMARK    4  A    between atoms: C_12  and  C_8 
REMARK    5  A    between atoms: C_14  and  C_12 
ROOT
ATOM      1  N   UNL d   1      32.585  21.641 -21.193  0.00  0.00    -0.150 N 
ATOM      2  N   UNL d   1      32.401  20.991 -20.719  0.00  0.00    -0.055 NA
ATOM      3  C   UNL d   1      32.831  21.539 -21.978  0.00  0.00     0.285 A 
ATOM      4  N   UNL d   1      32.461  20.233 -21.026  0.00  0.00    -0.130 NA
ATOM      5  C   UNL d   1      32.887  20.769 -22.272  0.00  0.00     0.077 A 
ATOM      6  C   UNL d   1      32.703  20.119 -21.798  0.00  0.00     0.109 A 
ATOM      7  O   UNL d   1      33.014  22.182 -22.447  0.00  0.00    -0.265 OA
ATOM      8  C   UNL d   1      33.131  20.657 -23.051  0.00  0.00     0.006 A 
ATOM      9  C   UNL d   1      32.764  19.360 -22.106  0.00  0.00     0.021 A 
ATOM     10  C   UNL d   1      33.191  19.897 -23.357  0.00  0.00     0.000 A 
ATOM     11  C   UNL d   1      33.006  19.244 -22.881  0.00  0.00     0.002 A 
ENDROOT
BRANCH   1  12
ATOM     12  C   UNL d   1      32.524  22.407 -20.885  0.00  0.00     0.233 C 
BRANCH  12  13
ATOM     13  O   UNL d   1      33.018  22.643 -20.269  0.00  0.00    -0.251 OA
BRANCH  13  14
ATOM     14  C   UNL d   1      32.764  23.220 -19.739  0.00  0.00     0.302 C 
ATOM     15  O   UNL d   1      32.056  23.622 -19.873  0.00  0.00    -0.259 OA
BRANCH  14  16
ATOM     16  C   UNL d   1      33.219  23.395 -19.075  0.00  0.00     0.069 C 
BRANCH  16  17
ATOM     17  C   UNL d   1      32.950  23.227 -18.377  0.00  0.00     0.005 A 
ATOM     18  C   UNL d   1      32.380  23.702 -18.015  0.00  0.00     0.000 A 
ATOM     19  C   UNL d   1      32.088  23.521 -17.259  0.00  0.00     0.000 A 
ATOM     20  C   UNL d   1      32.374  22.849 -16.859  0.00  0.00     0.000 A 
ATOM     21  C   UNL d   1      32.946  22.366 -17.215  0.00  0.00     0.000 A 
ATOM     22  C   UNL d   1      33.241  22.548 -17.977  0.00  0.00     0.000 A 
ENDBRANCH  16  17
ENDBRANCH  14  16
ENDBRANCH  13  14
ENDBRANCH  12  13
ENDBRANCH   1  12
TORSDOF 5
ENDMDL
MODEL 5
REMARK VINA RESULT:      -0.7      0.861      1.301
REMARK  5 active torsions:
REMARK  status: ('A' for Active; 'I' for Inactive)
REMARK    1  A    between atoms: C_6  and  N_1 
REMARK    2  A    between atoms: O_9  and  C_6 
REMARK    3  A    between atoms: C_8  and  O_9 
REMARK    4  A    between atoms: C_12  and  C_8 
REMARK    5  A    between atoms: C_14  and  C_12 
ROOT
ATOM      1  N   UNL d   1      32.992  20.864 -21.979  0.00  0.00    -0.150 N 
ATOM      2  N   UNL d   1      33.241  21.331 -22.612  0.00  0.00    -0.055 NA
ATOM      3  C   UNL d   1      32.647  21.208 -21.308  0.00  0.00     0.285 A 
ATOM      4  N   UNL d   1      33.148  22.146 -22.580  0.00  0.00    -0.130 NA
ATOM      5  C   UNL d   1      32.561  22.029 -21.291  0.00  0.00     0.077 A 
ATOM      6  C   UNL d   1      32.810  22.496 -21.924  0.00  0.00     0.109 A 
ATOM      7  O   UNL d   1      32.400  20.746 -20.681  0.00  0.00    -0.265 OA
ATOM      8  C   UNL d   1      32.219  22.381 -20.628  0.00  0.00     0.006 A 
ATOM      9  C   UNL d   1      32.717  23.311 -21.891  0.00  0.00     0.021 A 
ATOM     10  C   UNL d   1      32.127  23.196 -20.597  0.00  0.00     0.000 A 
ATOM     11  C   UNL d   1      32.378  23.665 -21.233  0.00  0.00     0.002 A 
ENDROOT
BRANCH   1  12
ATOM     12  C   UNL d   1      33.084  20.043 -22.010  0.00  0.00     0.233 C 
BRANCH  12  13
ATOM     13  O   UNL d   1      32.901  19.633 -22.701  0.00  0.00    -0.251 OA
BRANCH  13  14
ATOM     14  C   UNL d   1      33.079  18.832 -22.761  0.00  0.00     0.302 C 
ATOM     15  O   UNL d   1      33.241  18.392 -22.082  0.00  0.00    -0.259 OA
BRANCH  14  16
ATOM     16  C   UNL d   1      33.095  18.470 -23.501  0.00  0.00     0.069 C 
BRANCH  16  17
ATOM     17  C   UNL d   1      32.552  17.960 -23.685  0.00  0.00     0.005 A 
ATOM     18  C   UNL d   1      31.923  18.168 -24.178  0.00  0.00     0.000 A 
ATOM     19  C   UNL d   1      31.335  17.616 -24.377  0.00  0.00     0.000 A 
ATOM     20  C   UNL d   1      31.380  16.841 -24.075  0.00  0.00     0.000 A 
ATOM     21  C   UNL d   1      32.008  16.625 -23.579  0.00  0.00     0.000 A 
ATOM     22  C   UNL d   1      32.601  17.180 -23.378  0.00  0.00     0.000 A 
ENDBRANCH  16  17
ENDBRANCH  14  16
ENDBRANCH  13  14
ENDBRANCH  12  13
ENDBRANCH   1  12
TORSDOF 5
ENDMDL
