MODEL 1
REMARK VINA RESULT:      -2.9      0.000      0.000
REMARK  3 active torsions:
REMARK  status: ('A' for Active; 'I' for Inactive)
REMARK       I    between atoms: N_2  and  C_1 
REMARK    1  A    between atoms: C_4  and  C_1 
REMARK    2  A    between atoms: C_3  and  N_2 
REMARK    3  A    between atoms: C_5  and  C_6 
ROOT
ATOM      1  C   UNL d   1      32.633  16.760 -24.171  0.00  0.00     0.058 A 
ATOM      2  C   UNL d   1      32.925  18.267 -23.667  0.00  0.00    -0.023 A 
ATOM      3  C   UNL d   1      32.794  17.318 -24.713  0.00  0.00     0.004 A 
ATOM      4  C   UNL d   1      32.606  16.902 -23.357  0.00  0.00     0.004 A 
ATOM      5  C   UNL d   1      32.756  17.674 -23.113  0.00  0.00    -0.004 A 
ATOM      6  C   UNL d   1      32.943  18.087 -24.457  0.00  0.00    -0.004 A 
ENDROOT
BRANCH   1   7
ATOM      7  C   UNL d   1      32.484  15.982 -24.444  0.00  0.00     0.279 C 
ATOM      8  N   UNL d   1      31.716  15.730 -24.624  0.00  0.00    -0.207 NA
ATOM      9  O   UNL d   1      33.100  15.457 -24.537  0.00  0.00    -0.265 OA
BRANCH   8  10
ATOM     10  C   UNL d   1      31.095  16.256 -24.531  0.00  0.00     0.095 A 
ATOM     11  C   UNL d   1      30.567  16.162 -23.941  0.00  0.00     0.075 A 
ATOM     12 CL   UNL d   1      30.629  15.524 -23.400  0.00  0.00    -0.081 Cl
ATOM     13  C   UNL d   1      29.929  16.694 -23.838  0.00  0.00     0.013 A 
ATOM     14  C   UNL d   1      29.866  17.332 -24.380  0.00  0.00     0.001 A 
ATOM     15  C   UNL d   1      30.414  17.416 -24.979  0.00  0.00     0.002 A 
ATOM     16  C   UNL d   1      31.017  16.899 -25.063  0.00  0.00     0.020 A 
ENDBRANCH   8  10
ENDBRANCH   1   7
BRANCH   2  17
ATOM     17  C   UNL d   1      33.073  19.033 -23.411  0.00  0.00     0.019 C 
ATOM     18  C   UNL d   1      33.241  19.260 -24.187  0.00  0.00     0.004 C 
ATOM     19  C   UNL d   1      32.906  18.808 -22.639  0.00  0.00     0.004 C 
ATOM     20  C   UNL d   1      33.222  19.803 -23.154  0.00  0.00     0.004 C 
ENDBRANCH   2  17
TORSDOF 3
ENDMDL
MODEL 2
REMARK VINA RESULT:      -2.1      1.290      1.768
REMARK  3 active torsions:
REMARK  status: ('A' for Active; 'I' for Inactive)
REMARK       I    between atoms: N_2  and  C_1 
REMARK    1  A    between atoms: C_4  and  C_1 
REMARK    2  A    between atoms: C_3  and  N_2 
REMARK    3  A    between atoms: C_5  and  C_6 
ROOT
ATOM      1  C   UNL d   1      30.883  16.774 -24.577  0.00  0.00     0.058 A 
ATOM      2  C   UNL d   1      31.856  17.975 -24.109  0.00  0.00    -0.023 A 
ATOM      3  C   UNL d   1      31.044  17.357 -25.093  0.00  0.00     0.004 A 
ATOM      4  C   UNL d   1      31.185  16.743 -23.809  0.00  0.00     0.004 A 
ATOM      5  C   UNL d   1      31.680  17.361 -23.582  0.00  0.00    -0.004 A 
ATOM      6  C   UNL d   1      31.540  17.970 -24.855  0.00  0.00    -0.004 A 
ENDROOT
BRANCH   1   7
ATOM      7  C   UNL d   1      30.377  16.157 -24.832  0.00  0.00     0.279 C 
ATOM      8  N   UNL d   1      29.554  16.244 -24.823  0.00  0.00    -0.207 NA
ATOM      9  O   UNL d   1      30.693  15.453 -25.095  0.00  0.00    -0.265 OA
BRANCH   8  10
ATOM     10  C   UNL d   1      29.234  16.951 -24.559  0.00  0.00     0.095 A 
ATOM     11  C   UNL d   1      28.810  16.979 -23.885  0.00  0.00     0.075 A 
ATOM     12 CL   UNL d   1      28.677  16.289 -23.426  0.00  0.00    -0.081 Cl
ATOM     13  C   UNL d   1      28.479  17.696 -23.607  0.00  0.00     0.013 A 
ATOM     14  C   UNL d   1      28.612  18.386 -24.066  0.00  0.00     0.001 A 
ATOM     15  C   UNL d   1      29.048  18.342 -24.754  0.00  0.00     0.002 A 
ATOM     16  C   UNL d   1      29.356  17.650 -25.005  0.00  0.00     0.020 A 
ENDBRANCH   8  10
ENDBRANCH   1   7
BRANCH   2  17
ATOM     17  C   UNL d   1      32.351  18.587 -23.871  0.00  0.00     0.019 C 
ATOM     18  C   UNL d   1      32.223  18.383 -23.082  0.00  0.00     0.004 C 
ATOM     19  C   UNL d   1      32.479  18.790 -24.658  0.00  0.00     0.004 C 
ATOM     20  C   UNL d   1      32.848  19.200 -23.632  0.00  0.00     0.004 C 
ENDBRANCH   2  17
TORSDOF 3
ENDMDL
MODEL 3
REMARK VINA RESULT:      -2.0      0.571      1.069
REMARK  3 active torsions:
REMARK  status: ('A' for Active; 'I' for Inactive)
REMARK       I    between atoms: N_2  and  C_1 
REMARK    1  A    between atoms: C_4  and  C_1 
REMARK    2  A    between atoms: C_3  and  N_2 
REMARK    3  A    between atoms: C_5  and  C_6 
ROOT
ATOM      1  C   UNL d   1      32.755  17.377 -23.936  0.00  0.00     0.058 A 
ATOM      2  C   UNL d   1      32.994  18.960 -23.723  0.00  0.00    -0.023 A 
ATOM      3  C   UNL d   1      32.632  17.687 -23.214  0.00  0.00     0.004 A 
ATOM      4  C   UNL d   1      32.999  17.817 -24.591  0.00  0.00     0.004 A 
ATOM      5  C   UNL d   1      33.118  18.623 -24.470  0.00  0.00    -0.004 A 
ATOM      6  C   UNL d   1      32.754  18.495 -23.105  0.00  0.00    -0.004 A 
ENDROOT
BRANCH   1   7
ATOM      7  C   UNL d   1      32.627  16.555 -24.034  0.00  0.00     0.279 C 
ATOM      8  N   UNL d   1      31.883  16.257 -24.243  0.00  0.00    -0.207 NA
ATOM      9  O   UNL d   1      33.241  16.030 -23.923  0.00  0.00    -0.265 OA
BRANCH   8  10
ATOM     10  C   UNL d   1      31.265  16.782 -24.355  0.00  0.00     0.095 A 
ATOM     11  C   UNL d   1      30.627  16.769 -23.876  0.00  0.00     0.075 A 
ATOM     12 CL   UNL d   1      30.571  16.220 -23.244  0.00  0.00    -0.081 Cl
ATOM     13  C   UNL d   1      29.991  17.301 -23.982  0.00  0.00     0.013 A 
ATOM     14  C   UNL d   1      30.047  17.850 -24.614  0.00  0.00     0.001 A 
ATOM     15  C   UNL d   1      30.705  17.852 -25.097  0.00  0.00     0.002 A 
ATOM     16  C   UNL d   1      31.304  17.338 -24.982  0.00  0.00     0.020 A 
ENDBRANCH   8  10
ENDBRANCH   1   7
BRANCH   2  17
ATOM     17  C   UNL d   1      33.116  19.766 -23.615  0.00  0.00     0.019 C 
ATOM     18  C   UNL d   1      32.992  19.675 -22.804  0.00  0.00     0.004 C 
ATOM     19  C   UNL d   1      33.239  19.856 -24.422  0.00  0.00     0.004 C 
ATOM     20  C   UNL d   1      33.238  20.574 -23.506  0.00  0.00     0.004 C 
ENDBRANCH   2  17
TORSDOF 3
ENDMDL
MODEL 4
REMARK VINA RESULT:      -2.0      1.646      3.461
REMARK  3 active torsions:
REMARK  status: ('A' for Active; 'I' for Inactive)
REMARK       I    between atoms: N_2  and  C_1 
REMARK    1  A    between atoms: C_4  and  C_1 
REMARK    2  A    between atoms: C_3  and  N_2 
REMARK    3  A    between atoms: C_5  and  C_6 
ROOT
ATOM      1  C   UNL d   1      31.109  17.510 -24.543  0.00  0.00     0.058 A 
ATOM      2  C   UNL d   1      29.884  16.492 -24.277  0.00  0.00    -0.023 A 
ATOM      3  C   UNL d   1      30.943  16.962 -25.094  0.00  0.00     0.004 A 
ATOM      4  C   UNL d   1      30.691  17.594 -23.835  0.00  0.00     0.004 A 
ATOM      5  C   UNL d   1      30.068  17.068 -23.711  0.00  0.00    -0.004 A 
ATOM      6  C   UNL d   1      30.318  16.442 -24.958  0.00  0.00    -0.004 A 
ENDROOT
BRANCH   1   7
ATOM      7  C   UNL d   1      31.747  18.033 -24.693  0.00  0.00     0.279 C 
ATOM      8  N   UNL d   1      32.520  17.844 -24.466  0.00  0.00    -0.207 NA
ATOM      9  O   UNL d   1      31.612  18.744 -25.068  0.00  0.00    -0.265 OA
BRANCH   8  10
ATOM     10  C   UNL d   1      32.657  17.130 -24.088  0.00  0.00     0.095 A 
ATOM     11  C   UNL d   1      32.831  17.107 -23.310  0.00  0.00     0.075 A 
ATOM     12 CL   UNL d   1      32.878  17.811 -22.856  0.00  0.00    -0.081 Cl
ATOM     13  C   UNL d   1      32.973  16.383 -22.916  0.00  0.00     0.013 A 
ATOM     14  C   UNL d   1      32.926  15.680 -23.370  0.00  0.00     0.001 A 
ATOM     15  C   UNL d   1      32.748  15.717 -24.166  0.00  0.00     0.002 A 
ATOM     16  C   UNL d   1      32.615  16.417 -24.527  0.00  0.00     0.020 A 
ENDBRANCH   8  10
ENDBRANCH   1   7
BRANCH   2  17
ATOM     17  C   UNL d   1      29.261  15.973 -24.141  0.00  0.00     0.019 C 
ATOM     18  C   UNL d   1      29.227  16.219 -23.354  0.00  0.00     0.004 C 
ATOM     19  C   UNL d   1      29.294  15.729 -24.925  0.00  0.00     0.004 C 
ATOM     20  C   UNL d   1      28.635  15.453 -24.005  0.00  0.00     0.004 C 
ENDBRANCH   2  17
TORSDOF 3
ENDMDL
MODEL 5
REMARK VINA RESULT:      -1.5      2.139      2.933
REMARK  3 active torsions:
REMARK  status: ('A' for Active; 'I' for Inactive)
REMARK       I    between atoms: N_2  and  C_1 
REMARK    1  A    between atoms: C_4  and  C_1 
REMARK    2  A    between atoms: C_3  and  N_2 
REMARK    3  A    between atoms: C_5  and  C_6 
ROOT
ATOM      1  C   UNL d   1      30.346  17.416 -24.560  0.00  0.00     0.058 A 
ATOM      2  C   UNL d   1      31.548  16.446 -24.087  0.00  0.00    -0.023 A 
ATOM      3  C   UNL d   1      30.675  17.537 -23.846  0.00  0.00     0.004 A 
ATOM      4  C   UNL d   1      30.582  16.819 -25.081  0.00  0.00     0.004 A 
ATOM      5  C   UNL d   1      31.196  16.331 -24.828  0.00  0.00    -0.004 A 
ATOM      6  C   UNL d   1      31.288  17.042 -23.605  0.00  0.00    -0.004 A 
ENDROOT
BRANCH   1   7
ATOM      7  C   UNL d   1      29.724  17.925 -24.795  0.00  0.00     0.279 C 
ATOM      8  N   UNL d   1      28.931  17.696 -24.726  0.00  0.00    -0.207 NA
ATOM      9  O   UNL d   1      29.892  18.663 -25.097  0.00  0.00    -0.265 OA
BRANCH   8  10
ATOM     10  C   UNL d   1      28.759  16.955 -24.423  0.00  0.00     0.095 A 
ATOM     11  C   UNL d   1      28.421  16.877 -23.704  0.00  0.00     0.075 A 
ATOM     12 CL   UNL d   1      28.232  17.549 -23.239  0.00  0.00    -0.081 Cl
ATOM     13  C   UNL d   1      28.241  16.125 -23.386  0.00  0.00     0.013 A 
ATOM     14  C   UNL d   1      28.431  15.453 -23.851  0.00  0.00     0.001 A 
ATOM     15  C   UNL d   1      28.777  15.547 -24.584  0.00  0.00     0.002 A 
ATOM     16  C   UNL d   1      28.942  16.272 -24.874  0.00  0.00     0.020 A 
ENDBRANCH   8  10
ENDBRANCH   1   7
BRANCH   2  17
ATOM     17  C   UNL d   1      32.159  15.952 -23.845  0.00  0.00     0.019 C 
ATOM     18  C   UNL d   1      32.695  16.402 -24.282  0.00  0.00     0.004 C 
ATOM     19  C   UNL d   1      31.625  15.503 -23.410  0.00  0.00     0.004 C 
ATOM     20  C   UNL d   1      32.773  15.456 -23.604  0.00  0.00     0.004 C 
ENDBRANCH   2  17
TORSDOF 3
ENDMDL
MODEL 6
REMARK VINA RESULT:      -0.9      1.757      2.582
REMARK  3 active torsions:
REMARK  status: ('A' for Active; 'I' for Inactive)
REMARK       I    between atoms: N_2  and  C_1 
REMARK    1  A    between atoms: C_4  and  C_1 
REMARK    2  A    between atoms: C_3  and  N_2 
REMARK    3  A    between atoms: C_5  and  C_6 
ROOT
ATOM      1  C   UNL d   1      30.393  16.141 -23.211  0.00  0.00     0.058 A 
ATOM      2  C   UNL d   1      31.718  16.571 -24.027  0.00  0.00    -0.023 A 
ATOM      3  C   UNL d   1      30.678  15.644 -23.762  0.00  0.00     0.004 A 
ATOM      4  C   UNL d   1      30.733  16.871 -23.027  0.00  0.00     0.004 A 
ATOM      5  C   UNL d   1      31.409  17.079 -23.450  0.00  0.00    -0.004 A 
ATOM      6  C   UNL d   1      31.355  15.864 -24.179  0.00  0.00    -0.004 A 
ENDROOT
BRANCH   1   7
ATOM      7  C   UNL d   1      29.704  15.907 -22.794  0.00  0.00     0.279 C 
ATOM      8  N   UNL d   1      28.949  16.127 -23.052  0.00  0.00    -0.207 NA
ATOM      9  O   UNL d   1      29.770  15.453 -22.121  0.00  0.00    -0.265 OA
BRANCH   8  10
ATOM     10  C   UNL d   1      28.881  16.584 -23.729  0.00  0.00     0.095 A 
ATOM     11  C   UNL d   1      28.582  16.274 -24.401  0.00  0.00     0.075 A 
ATOM     12 CL   UNL d   1      28.329  15.475 -24.435  0.00  0.00    -0.081 Cl
ATOM     13  C   UNL d   1      28.508  16.732 -25.097  0.00  0.00     0.013 A 
ATOM     14  C   UNL d   1      28.760  17.531 -25.063  0.00  0.00     0.001 A 
ATOM     15  C   UNL d   1      29.064  17.835 -24.369  0.00  0.00     0.002 A 
ATOM     16  C   UNL d   1      29.128  17.384 -23.713  0.00  0.00     0.020 A 
ENDBRANCH   8  10
ENDBRANCH   1   7
BRANCH   2  17
ATOM     17  C   UNL d   1      32.393  16.790 -24.443  0.00  0.00     0.019 C 
ATOM     18  C   UNL d   1      32.418  17.502 -24.026  0.00  0.00     0.004 C 
ATOM     19  C   UNL d   1      32.367  16.081 -24.858  0.00  0.00     0.004 C 
ATOM     20  C   UNL d   1      33.070  17.010 -24.860  0.00  0.00     0.004 C 
ENDBRANCH   2  17
TORSDOF 3
ENDMDL
