MODEL 1
REMARK VINA RESULT:      -9.4      0.000      0.000
REMARK  5 active torsions:
REMARK  status: ('A' for Active; 'I' for Inactive)
REMARK    1  A    between atoms: C_6  and  C_1 
REMARK    2  A    between atoms: C_7  and  C_6 
REMARK    3  A    between atoms: C_10  and  O_14 
REMARK    4  A    between atoms: C_20  and  C_10 
REMARK    5  A    between atoms: O_14  and  C_12 
ROOT
ATOM      1  C   UNL d   1      52.501  33.545  53.008  0.00  0.00     0.141 A 
ATOM      2  C   UNL d   1      53.310  32.657  53.582  0.00  0.00     0.064 A 
ATOM      3  C   UNL d   1      53.106  33.450  53.558  0.00  0.00     0.220 A 
ATOM      4  C   UNL d   1      52.831  32.253  53.046  0.00  0.00     0.105 A 
ATOM      5  O   UNL d   1      52.326  32.802  52.686  0.00  0.00    -0.304 OA
ATOM      6  C   UNL d   1      52.914  31.445  52.953  0.00  0.00     0.050 A 
ATOM      7  C   UNL d   1      53.871  32.247  54.024  0.00  0.00     0.007 A 
ATOM      8  C   UNL d   1      53.476  31.035  53.394  0.00  0.00     0.105 A 
ATOM      9  O   UNL d   1      53.447  34.058  54.007  0.00  0.00    -0.284 OA
ATOM     10  C   UNL d   1      53.952  31.437  53.928  0.00  0.00     0.025 A 
ENDROOT
BRANCH   1  11
ATOM     11  C   UNL d   1      52.129  34.253  52.807  0.00  0.00     0.053 C 
BRANCH  11  12
ATOM     12  C   UNL d   1      51.319  34.268  52.635  0.00  0.00     0.102 A 
ATOM     13  O   UNL d   1      50.703  34.272  53.177  0.00  0.00    -0.305 OA
ATOM     14  C   UNL d   1      49.992  34.289  52.761  0.00  0.00     0.123 A 
ATOM     15  C   UNL d   1      50.164  34.296  51.953  0.00  0.00     0.029 A 
ATOM     16  C   UNL d   1      50.987  34.283  51.871  0.00  0.00     0.027 A 
ENDBRANCH  11  12
ENDBRANCH   1  11
BRANCH   8  17
ATOM     17  O   UNL d   1      53.558  30.222  53.300  0.00  0.00    -0.273 OA
BRANCH  17  18
ATOM     18  C   UNL d   1      53.142  29.706  53.784  0.00  0.00     0.300 C 
ATOM     19  O   UNL d   1      52.348  29.547  53.628  0.00  0.00    -0.259 OA
BRANCH  18  20
ATOM     20  C   UNL d   1      53.524  29.350  54.426  0.00  0.00     0.069 C 
ATOM     21  C   UNL d   1      53.282  28.600  54.678  0.00  0.00     0.006 C 
ENDBRANCH  18  20
ENDBRANCH  17  18
ENDBRANCH   8  17
TORSDOF 5
ENDMDL
MODEL 2
REMARK VINA RESULT:      -8.4      0.822      4.227
REMARK  5 active torsions:
REMARK  status: ('A' for Active; 'I' for Inactive)
REMARK    1  A    between atoms: C_6  and  C_1 
REMARK    2  A    between atoms: C_7  and  C_6 
REMARK    3  A    between atoms: C_10  and  O_14 
REMARK    4  A    between atoms: C_20  and  C_10 
REMARK    5  A    between atoms: O_14  and  C_12 
ROOT
ATOM      1  C   UNL d   1      53.540  32.025  53.576  0.00  0.00     0.141 A 
ATOM      2  C   UNL d   1      53.306  33.329  53.446  0.00  0.00     0.064 A 
ATOM      3  C   UNL d   1      53.893  32.767  53.548  0.00  0.00     0.220 A 
ATOM      4  C   UNL d   1      52.581  32.937  53.410  0.00  0.00     0.105 A 
ATOM      5  O   UNL d   1      52.722  32.125  53.491  0.00  0.00    -0.304 OA
ATOM      6  C   UNL d   1      51.891  33.364  53.310  0.00  0.00     0.050 A 
ATOM      7  C   UNL d   1      53.334  34.150  53.380  0.00  0.00     0.007 A 
ATOM      8  C   UNL d   1      51.919  34.184  53.244  0.00  0.00     0.105 A 
ATOM      9  O   UNL d   1      54.707  32.916  53.612  0.00  0.00    -0.284 OA
ATOM     10  C   UNL d   1      52.641  34.574  53.279  0.00  0.00     0.025 A 
ENDROOT
BRANCH   1  11
ATOM     11  C   UNL d   1      53.926  31.303  53.673  0.00  0.00     0.053 C 
BRANCH  11  12
ATOM     12  C   UNL d   1      53.518  30.590  53.566  0.00  0.00     0.102 A 
ATOM     13  O   UNL d   1      53.194  30.311  52.865  0.00  0.00    -0.305 OA
ATOM     14  C   UNL d   1      52.841  29.582  53.015  0.00  0.00     0.123 A 
ATOM     15  C   UNL d   1      52.944  29.403  53.816  0.00  0.00     0.029 A 
ATOM     16  C   UNL d   1      53.364  30.026  54.161  0.00  0.00     0.027 A 
ENDBRANCH  11  12
ENDBRANCH   1  11
BRANCH   8  17
ATOM     17  O   UNL d   1      51.224  34.612  53.143  0.00  0.00    -0.273 OA
BRANCH  17  18
ATOM     18  C   UNL d   1      50.726  34.448  52.511  0.00  0.00     0.300 C 
ATOM     19  O   UNL d   1      51.037  34.388  51.749  0.00  0.00    -0.259 OA
BRANCH  18  20
ATOM     20  C   UNL d   1      49.917  34.343  52.644  0.00  0.00     0.069 C 
ATOM     21  C   UNL d   1      49.371  34.664  52.112  0.00  0.00     0.006 C 
ENDBRANCH  18  20
ENDBRANCH  17  18
ENDBRANCH   8  17
TORSDOF 5
ENDMDL
MODEL 3
REMARK VINA RESULT:      -8.2      1.273      1.993
REMARK  5 active torsions:
REMARK  status: ('A' for Active; 'I' for Inactive)
REMARK    1  A    between atoms: C_6  and  C_1 
REMARK    2  A    between atoms: C_7  and  C_6 
REMARK    3  A    between atoms: C_10  and  O_14 
REMARK    4  A    between atoms: C_20  and  C_10 
REMARK    5  A    between atoms: O_14  and  C_12 
ROOT
ATOM      1  C   UNL d   1      53.115  33.416  53.222  0.00  0.00     0.141 A 
ATOM      2  C   UNL d   1      52.766  32.162  52.943  0.00  0.00     0.064 A 
ATOM      3  C   UNL d   1      52.580  32.949  52.807  0.00  0.00     0.220 A 
ATOM      4  C   UNL d   1      53.420  32.136  53.445  0.00  0.00     0.105 A 
ATOM      5  O   UNL d   1      53.641  32.915  53.621  0.00  0.00    -0.304 OA
ATOM      6  C   UNL d   1      53.729  31.416  53.675  0.00  0.00     0.050 A 
ATOM      7  C   UNL d   1      52.424  31.462  52.674  0.00  0.00     0.007 A 
ATOM      8  C   UNL d   1      53.388  30.716  53.407  0.00  0.00     0.105 A 
ATOM      9  O   UNL d   1      51.961  33.231  52.334  0.00  0.00    -0.284 OA
ATOM     10  C   UNL d   1      52.737  30.742  52.908  0.00  0.00     0.025 A 
ENDROOT
BRANCH   1  11
ATOM     11  C   UNL d   1      53.132  34.240  53.242  0.00  0.00     0.053 C 
BRANCH  11  12
ATOM     12  C   UNL d   1      53.139  34.644  53.965  0.00  0.00     0.102 A 
ATOM     13  O   UNL d   1      53.703  34.578  54.558  0.00  0.00    -0.305 OA
ATOM     14  C   UNL d   1      53.490  35.078  55.176  0.00  0.00     0.123 A 
ATOM     15  C   UNL d   1      52.787  35.460  54.969  0.00  0.00     0.029 A 
ATOM     16  C   UNL d   1      52.566  35.193  54.219  0.00  0.00     0.027 A 
ENDBRANCH  11  12
ENDBRANCH   1  11
BRANCH   8  17
ATOM     17  O   UNL d   1      53.700  29.992  53.640  0.00  0.00    -0.273 OA
BRANCH  17  18
ATOM     18  C   UNL d   1      53.229  29.448  54.038  0.00  0.00     0.300 C 
ATOM     19  O   UNL d   1      52.605  29.080  53.642  0.00  0.00    -0.259 OA
BRANCH  18  20
ATOM     20  C   UNL d   1      53.386  29.275  54.831  0.00  0.00     0.069 C 
ATOM     21  C   UNL d   1      53.401  28.486  55.080  0.00  0.00     0.006 C 
ENDBRANCH  18  20
ENDBRANCH  17  18
ENDBRANCH   8  17
TORSDOF 5
ENDMDL
MODEL 4
REMARK VINA RESULT:      -8.0      1.609      4.525
REMARK  5 active torsions:
REMARK  status: ('A' for Active; 'I' for Inactive)
REMARK    1  A    between atoms: C_6  and  C_1 
REMARK    2  A    between atoms: C_7  and  C_6 
REMARK    3  A    between atoms: C_10  and  O_14 
REMARK    4  A    between atoms: C_20  and  C_10 
REMARK    5  A    between atoms: O_14  and  C_12 
ROOT
ATOM      1  C   UNL d   1      53.285  30.645  53.414  0.00  0.00     0.141 A 
ATOM      2  C   UNL d   1      53.074  31.928  53.126  0.00  0.00     0.064 A 
ATOM      3  C   UNL d   1      52.893  31.160  52.906  0.00  0.00     0.220 A 
ATOM      4  C   UNL d   1      53.583  31.895  53.774  0.00  0.00     0.105 A 
ATOM      5  O   UNL d   1      53.717  31.098  53.957  0.00  0.00    -0.304 OA
ATOM      6  C   UNL d   1      53.857  32.586  54.113  0.00  0.00     0.050 A 
ATOM      7  C   UNL d   1      52.843  32.657  52.820  0.00  0.00     0.007 A 
ATOM      8  C   UNL d   1      53.626  33.315  53.808  0.00  0.00     0.105 A 
ATOM      9  O   UNL d   1      52.398  30.934  52.280  0.00  0.00    -0.284 OA
ATOM     10  C   UNL d   1      53.120  33.348  53.163  0.00  0.00     0.025 A 
ENDROOT
BRANCH   1  11
ATOM     11  C   UNL d   1      53.259  29.821  53.392  0.00  0.00     0.053 C 
BRANCH  11  12
ATOM     12  C   UNL d   1      53.268  29.381  54.094  0.00  0.00     0.102 A 
ATOM     13  O   UNL d   1      52.692  29.381  54.679  0.00  0.00    -0.305 OA
ATOM     14  C   UNL d   1      52.929  28.864  55.275  0.00  0.00     0.123 A 
ATOM     15  C   UNL d   1      53.657  28.537  55.060  0.00  0.00     0.029 A 
ATOM     16  C   UNL d   1      53.871  28.856  54.328  0.00  0.00     0.027 A 
ENDBRANCH  11  12
ENDBRANCH   1  11
BRANCH   8  17
ATOM     17  O   UNL d   1      53.903  34.009  54.151  0.00  0.00    -0.273 OA
BRANCH  17  18
ATOM     18  C   UNL d   1      53.391  34.496  54.570  0.00  0.00     0.300 C 
ATOM     19  O   UNL d   1      53.135  34.271  55.321  0.00  0.00    -0.259 OA
BRANCH  18  20
ATOM     20  C   UNL d   1      53.136  35.207  54.234  0.00  0.00     0.069 C 
ATOM     21  C   UNL d   1      52.980  35.856  54.723  0.00  0.00     0.006 C 
ENDBRANCH  18  20
ENDBRANCH  17  18
ENDBRANCH   8  17
TORSDOF 5
ENDMDL
MODEL 5
REMARK VINA RESULT:      -7.8      1.590      4.450
REMARK  5 active torsions:
REMARK  status: ('A' for Active; 'I' for Inactive)
REMARK    1  A    between atoms: C_6  and  C_1 
REMARK    2  A    between atoms: C_7  and  C_6 
REMARK    3  A    between atoms: C_10  and  O_14 
REMARK    4  A    between atoms: C_20  and  C_10 
REMARK    5  A    between atoms: O_14  and  C_12 
ROOT
ATOM      1  C   UNL d   1      53.399  32.936  53.560  0.00  0.00     0.141 A 
ATOM      2  C   UNL d   1      52.122  32.810  53.206  0.00  0.00     0.064 A 
ATOM      3  C   UNL d   1      52.808  32.395  53.375  0.00  0.00     0.220 A 
ATOM      4  C   UNL d   1      52.284  33.615  53.285  0.00  0.00     0.105 A 
ATOM      5  O   UNL d   1      53.079  33.698  53.505  0.00  0.00    -0.304 OA
ATOM      6  C   UNL d   1      51.696  34.166  53.148  0.00  0.00     0.050 A 
ATOM      7  C   UNL d   1      51.367  32.562  52.989  0.00  0.00     0.007 A 
ATOM      8  C   UNL d   1      50.942  33.917  52.931  0.00  0.00     0.105 A 
ATOM      9  O   UNL d   1      52.896  31.571  53.364  0.00  0.00    -0.284 OA
ATOM     10  C   UNL d   1      50.780  33.116  52.853  0.00  0.00     0.025 A 
ENDROOT
BRANCH   1  11
ATOM     11  C   UNL d   1      54.178  32.759  53.765  0.00  0.00     0.053 C 
BRANCH  11  12
ATOM     12  C   UNL d   1      54.530  33.111  54.427  0.00  0.00     0.102 A 
ATOM     13  O   UNL d   1      54.331  32.983  55.213  0.00  0.00    -0.305 OA
ATOM     14  C   UNL d   1      54.823  33.447  55.684  0.00  0.00     0.123 A 
ATOM     15  C   UNL d   1      55.333  33.868  55.188  0.00  0.00     0.029 A 
ATOM     16  C   UNL d   1      55.154  33.662  54.408  0.00  0.00     0.027 A 
ENDBRANCH  11  12
ENDBRANCH   1  11
BRANCH   8  17
ATOM     17  O   UNL d   1      50.350  34.472  52.793  0.00  0.00    -0.273 OA
BRANCH  17  18
ATOM     18  C   UNL d   1      49.953  34.482  52.074  0.00  0.00     0.300 C 
ATOM     19  O   UNL d   1      50.380  34.435  51.370  0.00  0.00    -0.259 OA
BRANCH  18  20
ATOM     20  C   UNL d   1      49.128  34.540  52.064  0.00  0.00     0.069 C 
ATOM     21  C   UNL d   1      48.751  34.862  51.401  0.00  0.00     0.006 C 
ENDBRANCH  18  20
ENDBRANCH  17  18
ENDBRANCH   8  17
TORSDOF 5
ENDMDL
