MODEL 1
REMARK VINA RESULT:      -7.9      0.000      0.000
REMARK  5 active torsions:
REMARK  status: ('A' for Active; 'I' for Inactive)
REMARK    1  A    between atoms: C_10  and  N_3 
REMARK    2  A    between atoms: C_14  and  N_6 
REMARK    3  A    between atoms: C_9  and  C_7 
REMARK    4  A    between atoms: O_23  and  C_20 
REMARK    5  A    between atoms: C_26  and  O_23 
ROOT
ATOM      1  C   UNL d   1      52.359  33.640  53.366  0.00  0.00     0.105 A 
ATOM      2  C   UNL d   1      52.288  34.442  53.605  0.00  0.00     0.186 A 
ATOM      3  N   UNL d   1      51.253  34.160  52.821  0.00  0.00    -0.240 N 
ATOM      4  C   UNL d   1      51.620  34.733  53.267  0.00  0.00     0.292 A 
ATOM      5  C   UNL d   1      51.722  33.467  52.884  0.00  0.00     0.271 A 
ATOM      6  N   UNL d   1      53.411  33.923  54.160  0.00  0.00    -0.212 N 
ATOM      7  C   UNL d   1      53.043  33.357  53.716  0.00  0.00     0.100 A 
ATOM      8  O   UNL d   1      52.931  34.627  54.095  0.00  0.00    -0.223 OA
ATOM      9  O   UNL d   1      51.588  32.728  52.532  0.00  0.00    -0.266 OA
ATOM     10  O   UNL d   1      51.343  35.506  53.360  0.00  0.00    -0.264 OA
ENDROOT
BRANCH   3  11
ATOM     11  C   UNL d   1      50.553  34.258  52.394  0.00  0.00     0.070 A 
ATOM     12  C   UNL d   1      49.846  34.351  52.799  0.00  0.00     0.020 A 
ATOM     13  C   UNL d   1      49.134  34.451  52.385  0.00  0.00     0.026 A 
ATOM     14  C   UNL d   1      49.149  34.455  51.551  0.00  0.00     0.100 A 
ATOM     15  C   UNL d   1      49.851  34.362  51.152  0.00  0.00     0.026 A 
ATOM     16  C   UNL d   1      50.542  34.266  51.582  0.00  0.00     0.020 A 
BRANCH  14  17
ATOM     17  O   UNL d   1      48.455  34.552  51.119  0.00  0.00    -0.305 OA
BRANCH  17  18
ATOM     18  C   UNL d   1      47.955  35.184  51.300  0.00  0.00     0.123 C 
ATOM     19  C   UNL d   1      47.230  35.261  50.932  0.00  0.00     0.029 C 
ENDBRANCH  17  18
ENDBRANCH  14  17
ENDBRANCH   3  11
BRANCH   7  20
ATOM     20  C   UNL d   1      53.320  32.584  53.624  0.00  0.00     0.048 A 
ATOM     21  S   UNL d   1      53.132  31.902  54.101  0.00  0.00    -0.085 SA
ATOM     22  C   UNL d   1      53.543  31.275  53.784  0.00  0.00     0.035 A 
ATOM     23  C   UNL d   1      53.976  31.503  53.146  0.00  0.00     0.007 A 
ATOM     24  C   UNL d   1      53.841  32.338  53.034  0.00  0.00     0.009 A 
ENDBRANCH   7  20
BRANCH   6  25
ATOM     25  C   UNL d   1      54.114  33.821  54.588  0.00  0.00     0.088 A 
ATOM     26  C   UNL d   1      54.843  33.965  54.238  0.00  0.00     0.020 A 
ATOM     27  C   UNL d   1      55.555  33.863  54.665  0.00  0.00     0.002 A 
ATOM     28  C   UNL d   1      55.515  33.613  55.454  0.00  0.00     0.000 A 
ATOM     29  C   UNL d   1      54.777  33.468  55.807  0.00  0.00     0.002 A 
ATOM     30  C   UNL d   1      54.082  33.575  55.365  0.00  0.00     0.020 A 
ENDBRANCH   6  25
TORSDOF 5
ENDMDL
MODEL 2
REMARK VINA RESULT:      -6.9      1.209      2.107
REMARK  5 active torsions:
REMARK  status: ('A' for Active; 'I' for Inactive)
REMARK    1  A    between atoms: C_10  and  N_3 
REMARK    2  A    between atoms: C_14  and  N_6 
REMARK    3  A    between atoms: C_9  and  C_7 
REMARK    4  A    between atoms: O_23  and  C_20 
REMARK    5  A    between atoms: C_26  and  O_23 
ROOT
ATOM      1  C   UNL d   1      51.560  34.219  53.260  0.00  0.00     0.105 A 
ATOM      2  C   UNL d   1      51.314  33.448  53.034  0.00  0.00     0.186 A 
ATOM      3  N   UNL d   1      50.349  34.296  52.697  0.00  0.00    -0.240 N 
ATOM      4  C   UNL d   1      50.588  33.519  52.699  0.00  0.00     0.292 A 
ATOM      5  C   UNL d   1      50.966  34.741  53.053  0.00  0.00     0.271 A 
ATOM      6  N   UNL d   1      52.541  33.361  53.604  0.00  0.00    -0.212 N 
ATOM      7  C   UNL d   1      52.301  34.132  53.599  0.00  0.00     0.100 A 
ATOM      8  O   UNL d   1      51.912  32.912  53.241  0.00  0.00    -0.223 OA
ATOM      9  O   UNL d   1      50.994  35.559  53.183  0.00  0.00    -0.266 OA
ATOM     10  O   UNL d   1      50.144  32.890  52.399  0.00  0.00    -0.264 OA
ENDROOT
BRANCH   3  11
ATOM     11  C   UNL d   1      49.633  34.578  52.398  0.00  0.00     0.070 A 
ATOM     12  C   UNL d   1      49.101  34.941  52.906  0.00  0.00     0.020 A 
ATOM     13  C   UNL d   1      48.377  35.230  52.620  0.00  0.00     0.026 A 
ATOM     14  C   UNL d   1      48.200  35.146  51.810  0.00  0.00     0.100 A 
ATOM     15  C   UNL d   1      48.729  34.786  51.309  0.00  0.00     0.026 A 
ATOM     16  C   UNL d   1      49.438  34.509  51.612  0.00  0.00     0.020 A 
BRANCH  14  17
ATOM     17  O   UNL d   1      47.488  35.425  51.505  0.00  0.00    -0.305 OA
BRANCH  17  18
ATOM     18  C   UNL d   1      47.020  35.922  51.970  0.00  0.00     0.123 C 
ATOM     19  C   UNL d   1      46.286  36.168  51.708  0.00  0.00     0.029 C 
ENDBRANCH  17  18
ENDBRANCH  14  17
ENDBRANCH   3  11
BRANCH   7  20
ATOM     20  C   UNL d   1      52.744  34.761  53.899  0.00  0.00     0.048 A 
ATOM     21  S   UNL d   1      52.733  35.077  54.693  0.00  0.00    -0.085 SA
ATOM     22  C   UNL d   1      53.267  35.690  54.707  0.00  0.00     0.035 A 
ATOM     23  C   UNL d   1      53.616  35.791  53.990  0.00  0.00     0.007 A 
ATOM     24  C   UNL d   1      53.290  35.202  53.465  0.00  0.00     0.009 A 
ENDBRANCH   7  20
BRANCH   6  25
ATOM     25  C   UNL d   1      53.262  33.081  53.905  0.00  0.00     0.088 A 
ATOM     26  C   UNL d   1      53.341  32.902  54.703  0.00  0.00     0.020 A 
ATOM     27  C   UNL d   1      54.066  32.619  55.011  0.00  0.00     0.002 A 
ATOM     28  C   UNL d   1      54.708  32.521  54.497  0.00  0.00     0.000 A 
ATOM     29  C   UNL d   1      54.626  32.703  53.691  0.00  0.00     0.002 A 
ATOM     30  C   UNL d   1      53.898  32.983  53.405  0.00  0.00     0.020 A 
ENDBRANCH   6  25
TORSDOF 5
ENDMDL
MODEL 3
REMARK VINA RESULT:      -6.4      0.859      1.070
REMARK  5 active torsions:
REMARK  status: ('A' for Active; 'I' for Inactive)
REMARK    1  A    between atoms: C_10  and  N_3 
REMARK    2  A    between atoms: C_14  and  N_6 
REMARK    3  A    between atoms: C_9  and  C_7 
REMARK    4  A    between atoms: O_23  and  C_20 
REMARK    5  A    between atoms: C_26  and  O_23 
ROOT
ATOM      1  C   UNL d   1      51.639  33.661  53.200  0.00  0.00     0.105 A 
ATOM      2  C   UNL d   1      51.746  34.434  53.510  0.00  0.00     0.186 A 
ATOM      3  N   UNL d   1      50.591  34.417  52.855  0.00  0.00    -0.240 N 
ATOM      4  C   UNL d   1      51.107  34.869  53.292  0.00  0.00     0.292 A 
ATOM      5  C   UNL d   1      50.929  33.651  52.797  0.00  0.00     0.271 A 
ATOM      6  N   UNL d   1      52.812  33.675  53.864  0.00  0.00    -0.212 N 
ATOM      7  C   UNL d   1      52.297  33.230  53.430  0.00  0.00     0.100 A 
ATOM      8  O   UNL d   1      52.466  34.454  53.922  0.00  0.00    -0.223 OA
ATOM      9  O   UNL d   1      50.620  32.987  52.408  0.00  0.00    -0.266 OA
ATOM     10  O   UNL d   1      50.991  35.664  53.484  0.00  0.00    -0.264 OA
ENDROOT
BRANCH   3  11
ATOM     11  C   UNL d   1      49.875  34.678  52.537  0.00  0.00     0.070 A 
ATOM     12  C   UNL d   1      49.710  34.531  51.747  0.00  0.00     0.020 A 
ATOM     13  C   UNL d   1      48.995  34.787  51.412  0.00  0.00     0.026 A 
ATOM     14  C   UNL d   1      48.448  35.194  51.891  0.00  0.00     0.100 A 
ATOM     15  C   UNL d   1      48.613  35.338  52.674  0.00  0.00     0.026 A 
ATOM     16  C   UNL d   1      49.326  35.077  52.984  0.00  0.00     0.020 A 
BRANCH  14  17
ATOM     17  O   UNL d   1      47.732  35.457  51.580  0.00  0.00    -0.305 OA
BRANCH  17  18
ATOM     18  C   UNL d   1      47.029  35.117  51.849  0.00  0.00     0.123 C 
ATOM     19  C   UNL d   1      46.305  35.397  51.591  0.00  0.00     0.029 C 
ENDBRANCH  17  18
ENDBRANCH  14  17
ENDBRANCH   3  11
BRANCH   7  20
ATOM     20  C   UNL d   1      52.413  32.434  53.238  0.00  0.00     0.048 A 
ATOM     21  S   UNL d   1      52.116  31.749  53.651  0.00  0.00    -0.085 SA
ATOM     22  C   UNL d   1      52.384  31.097  53.244  0.00  0.00     0.035 A 
ATOM     23  C   UNL d   1      52.826  31.312  52.608  0.00  0.00     0.007 A 
ATOM     24  C   UNL d   1      52.852  32.165  52.594  0.00  0.00     0.009 A 
ENDBRANCH   7  20
BRANCH   6  25
ATOM     25  C   UNL d   1      53.531  33.409  54.183  0.00  0.00     0.088 A 
ATOM     26  C   UNL d   1      54.210  33.384  53.721  0.00  0.00     0.020 A 
ATOM     27  C   UNL d   1      54.937  33.117  54.038  0.00  0.00     0.002 A 
ATOM     28  C   UNL d   1      54.963  32.876  54.831  0.00  0.00     0.000 A 
ATOM     29  C   UNL d   1      54.275  32.903  55.295  0.00  0.00     0.002 A 
ATOM     30  C   UNL d   1      53.563  33.171  54.962  0.00  0.00     0.020 A 
ENDBRANCH   6  25
TORSDOF 5
ENDMDL
MODEL 4
REMARK VINA RESULT:      -6.2      2.110      6.236
REMARK  5 active torsions:
REMARK  status: ('A' for Active; 'I' for Inactive)
REMARK    1  A    between atoms: C_10  and  N_3 
REMARK    2  A    between atoms: C_14  and  N_6 
REMARK    3  A    between atoms: C_9  and  C_7 
REMARK    4  A    between atoms: O_23  and  C_20 
REMARK    5  A    between atoms: C_26  and  O_23 
ROOT
ATOM      1  C   UNL d   1      48.828  35.108  52.676  0.00  0.00     0.105 A 
ATOM      2  C   UNL d   1      48.922  34.804  51.899  0.00  0.00     0.186 A 
ATOM      3  N   UNL d   1      50.036  34.542  52.573  0.00  0.00    -0.240 N 
ATOM      4  C   UNL d   1      49.651  34.470  51.860  0.00  0.00     0.292 A 
ATOM      5  C   UNL d   1      49.513  34.947  53.091  0.00  0.00     0.271 A 
ATOM      6  N   UNL d   1      47.696  35.376  51.995  0.00  0.00    -0.212 N 
ATOM      7  C   UNL d   1      48.082  35.445  52.701  0.00  0.00     0.100 A 
ATOM      8  O   UNL d   1      48.230  34.964  51.470  0.00  0.00    -0.223 OA
ATOM      9  O   UNL d   1      49.643  35.158  53.882  0.00  0.00    -0.266 OA
ATOM     10  O   UNL d   1      49.967  34.105  51.190  0.00  0.00    -0.264 OA
ENDROOT
BRANCH   3  11
ATOM     11  C   UNL d   1      50.795  34.264  52.740  0.00  0.00     0.070 A 
ATOM     12  C   UNL d   1      50.888  33.509  53.044  0.00  0.00     0.020 A 
ATOM     13  C   UNL d   1      51.645  33.215  53.217  0.00  0.00     0.026 A 
ATOM     14  C   UNL d   1      52.308  33.700  53.076  0.00  0.00     0.100 A 
ATOM     15  C   UNL d   1      52.214  34.448  52.774  0.00  0.00     0.026 A 
ATOM     16  C   UNL d   1      51.457  34.718  52.611  0.00  0.00     0.020 A 
BRANCH  14  17
ATOM     17  O   UNL d   1      53.068  33.429  53.240  0.00  0.00    -0.305 OA
BRANCH  17  18
ATOM     18  C   UNL d   1      53.271  33.249  54.020  0.00  0.00     0.123 C 
ATOM     19  C   UNL d   1      53.971  32.865  54.191  0.00  0.00     0.029 C 
ENDBRANCH  17  18
ENDBRANCH  14  17
ENDBRANCH   3  11
BRANCH   7  20
ATOM     20  C   UNL d   1      47.766  35.811  53.372  0.00  0.00     0.048 A 
ATOM     21  S   UNL d   1      47.848  36.627  53.608  0.00  0.00    -0.085 SA
ATOM     22  C   UNL d   1      47.436  36.709  54.305  0.00  0.00     0.035 A 
ATOM     23  C   UNL d   1      47.099  36.015  54.530  0.00  0.00     0.007 A 
ATOM     24  C   UNL d   1      47.303  35.433  53.941  0.00  0.00     0.009 A 
ENDBRANCH   7  20
BRANCH   6  25
ATOM     25  C   UNL d   1      46.933  35.657  51.831  0.00  0.00     0.088 A 
ATOM     26  C   UNL d   1      46.275  35.180  51.956  0.00  0.00     0.020 A 
ATOM     27  C   UNL d   1      45.504  35.459  51.792  0.00  0.00     0.002 A 
ATOM     28  C   UNL d   1      45.410  36.229  51.500  0.00  0.00     0.000 A 
ATOM     29  C   UNL d   1      46.076  36.709  51.375  0.00  0.00     0.002 A 
ATOM     30  C   UNL d   1      46.834  36.413  51.543  0.00  0.00     0.020 A 
ENDBRANCH   6  25
TORSDOF 5
ENDMDL
MODEL 5
REMARK VINA RESULT:      -5.4      1.273      2.398
REMARK  5 active torsions:
REMARK  status: ('A' for Active; 'I' for Inactive)
REMARK    1  A    between atoms: C_10  and  N_3 
REMARK    2  A    between atoms: C_14  and  N_6 
REMARK    3  A    between atoms: C_9  and  C_7 
REMARK    4  A    between atoms: O_23  and  C_20 
REMARK    5  A    between atoms: C_26  and  O_23 
ROOT
ATOM      1  C   UNL d   1      52.042  32.825  53.352  0.00  0.00     0.105 A 
ATOM      2  C   UNL d   1      51.424  32.301  53.130  0.00  0.00     0.186 A 
ATOM      3  N   UNL d   1      50.933  33.535  53.117  0.00  0.00    -0.240 N 
ATOM      4  C   UNL d   1      50.771  32.748  52.994  0.00  0.00     0.292 A 
ATOM      5  C   UNL d   1      51.740  33.584  53.344  0.00  0.00     0.271 A 
ATOM      6  N   UNL d   1      52.544  31.574  53.365  0.00  0.00    -0.212 N 
ATOM      7  C   UNL d   1      52.701  32.357  53.486  0.00  0.00     0.100 A 
ATOM      8  O   UNL d   1      51.723  31.527  53.135  0.00  0.00    -0.223 OA
ATOM      9  O   UNL d   1      52.176  34.264  53.531  0.00  0.00    -0.266 OA
ATOM     10  O   UNL d   1      50.036  32.449  52.763  0.00  0.00    -0.264 OA
ENDROOT
BRANCH   3  11
ATOM     11  C   UNL d   1      50.395  34.156  53.031  0.00  0.00     0.070 A 
ATOM     12  C   UNL d   1      50.145  34.565  53.697  0.00  0.00     0.020 A 
ATOM     13  C   UNL d   1      49.605  35.191  53.627  0.00  0.00     0.026 A 
ATOM     14  C   UNL d   1      49.322  35.398  52.870  0.00  0.00     0.100 A 
ATOM     15  C   UNL d   1      49.571  34.991  52.212  0.00  0.00     0.026 A 
ATOM     16  C   UNL d   1      50.105  34.376  52.304  0.00  0.00     0.020 A 
BRANCH  14  17
ATOM     17  O   UNL d   1      48.785  36.016  52.777  0.00  0.00    -0.305 OA
BRANCH  17  18
ATOM     18  C   UNL d   1      48.054  35.973  53.158  0.00  0.00     0.123 C 
ATOM     19  C   UNL d   1      47.495  36.560  53.055  0.00  0.00     0.029 C 
ENDBRANCH  17  18
ENDBRANCH  14  17
ENDBRANCH   3  11
BRANCH   7  20
ATOM     20  C   UNL d   1      53.436  32.656  53.718  0.00  0.00     0.048 A 
ATOM     21  S   UNL d   1      53.716  32.794  54.512  0.00  0.00    -0.085 SA
ATOM     22  C   UNL d   1      54.471  33.090  54.444  0.00  0.00     0.035 A 
ATOM     23  C   UNL d   1      54.693  33.151  53.674  0.00  0.00     0.007 A 
ATOM     24  C   UNL d   1      54.040  32.876  53.200  0.00  0.00     0.009 A 
ENDBRANCH   7  20
BRANCH   6  25
ATOM     25  C   UNL d   1      53.087  30.953  53.453  0.00  0.00     0.088 A 
ATOM     26  C   UNL d   1      53.585  30.740  52.835  0.00  0.00     0.020 A 
ATOM     27  C   UNL d   1      54.134  30.115  52.919  0.00  0.00     0.002 A 
ATOM     28  C   UNL d   1      54.169  29.708  53.640  0.00  0.00     0.000 A 
ATOM     29  C   UNL d   1      53.665  29.925  54.263  0.00  0.00     0.002 A 
ATOM     30  C   UNL d   1      53.127  30.549  54.160  0.00  0.00     0.020 A 
ENDBRANCH   6  25
TORSDOF 5
ENDMDL
