MODEL 1
REMARK VINA RESULT:      11.5      0.000      0.000
REMARK  8 active torsions:
REMARK  status: ('A' for Active; 'I' for Inactive)
REMARK    1  A    between atoms: C_6  and  C_1 
REMARK    2  A    between atoms: C_7  and  C_2 
REMARK    3  A    between atoms: C_14  and  N_4 
REMARK    4  A    between atoms: C_8  and  C_6 
REMARK    5  A    between atoms: C_9  and  C_8 
REMARK    6  A    between atoms: C_12  and  C_9 
REMARK    7  A    between atoms: C_10  and  C_11 
REMARK    8  A    between atoms: C_11  and  C_14 
ROOT
ATOM      1  C   UNL d   1     -41.608-121.903 -52.814  0.00  0.00     0.039 A 
ATOM      2  C   UNL d   1     -41.672-121.116 -52.988  0.00  0.00     0.103 A 
ATOM      3  N   UNL d   1     -41.919-120.884 -53.723  0.00  0.00    -0.165 NA
ATOM      4  N   UNL d   1     -42.036-122.232 -54.111  0.00  0.00    -0.227 N 
ATOM      5  C   UNL d   1     -41.789-122.465 -53.376  0.00  0.00     0.102 A 
ENDROOT
BRANCH   1   6
ATOM      6  C   UNL d   1     -41.357-122.148 -52.067  0.00  0.00     0.006 C 
BRANCH   6   7
ATOM      7  C   UNL d   1     -41.858-122.593 -51.582  0.00  0.00     0.042 C 
BRANCH   7   8
ATOM      8  C   UNL d   1     -41.635-123.358 -51.334  0.00  0.00     0.196 C 
ATOM      9  O   UNL d   1     -41.138-123.809 -51.813  0.00  0.00    -0.287 OA
BRANCH   8  10
ATOM     10  C   UNL d   1     -42.008-123.472 -50.605  0.00  0.00     0.039 A 
ATOM     11  C   UNL d   1     -42.827-123.387 -50.532  0.00  0.00     0.004 A 
ATOM     12  C   UNL d   1     -43.201-123.501 -49.803  0.00  0.00     0.011 A 
ATOM     13  C   UNL d   1     -42.753-123.702 -49.137  0.00  0.00     0.058 A 
ATOM     14  C   UNL d   1     -41.923-123.787 -49.216  0.00  0.00     0.011 A 
ATOM     15 CL   UNL d   1     -43.122-123.816 -48.407  0.00  0.00    -0.082 Cl
ATOM     16  C   UNL d   1     -41.548-123.674 -49.943  0.00  0.00     0.004 A 
ENDBRANCH   8  10
ENDBRANCH   7   8
ENDBRANCH   6   7
ENDBRANCH   1   6
BRANCH   2  17
ATOM     17  C   UNL d   1     -41.491-120.549 -52.428  0.00  0.00     0.020 A 
ATOM     18  C   UNL d   1     -41.400-119.773 -52.645  0.00  0.00     0.008 A 
ATOM     19  C   UNL d   1     -41.218-119.209 -52.077  0.00  0.00     0.035 A 
ATOM     20 BR   UNL d   1     -41.128-118.426 -52.305  0.00  0.00    -0.049 Br
ATOM     21  C   UNL d   1     -41.132-119.428 -51.308  0.00  0.00     0.007 A 
ATOM     22  C   UNL d   1     -41.225-120.211 -51.094  0.00  0.00     0.001 A 
ATOM     23  C   UNL d   1     -41.404-120.770 -51.652  0.00  0.00     0.002 A 
ENDBRANCH   2  17
BRANCH   4  24
ATOM     24  C   UNL d   1     -42.258-122.617 -54.792  0.00  0.00     0.107 C 
BRANCH  24  25
ATOM     25  C   UNL d   1     -42.895-122.171 -55.086  0.00  0.00     0.091 C 
BRANCH  25  26
ATOM     26  C   UNL d   1     -43.077-122.518 -55.815  0.00  0.00     0.213 C 
ATOM     27  O   UNL d   1     -43.355-123.310 -55.853  0.00  0.00    -0.644 OA
ATOM     28  O   UNL d   1     -42.987-122.086 -56.505  0.00  0.00    -0.644 OA
ENDBRANCH  25  26
ENDBRANCH  24  25
ENDBRANCH   4  24
TORSDOF 8
ENDMDL
