MODEL 1
REMARK VINA RESULT:      15.1      0.000      0.000
REMARK  2 active torsions:
REMARK  status: ('A' for Active; 'I' for Inactive)
REMARK    1  A    between atoms: C_5  and  C_1 
REMARK    2  A    between atoms: C_7  and  C_5 
ROOT
ATOM      1  C   UNL d   1     -51.706  25.156  33.375  0.00  0.00     0.061 A 
ATOM      2  C   UNL d   1     -51.010  24.746  33.427  0.00  0.00     0.102 A 
ATOM      3  N   UNL d   1     -51.181  23.934  33.447  0.00  0.00    -0.244 NA
ATOM      4  C   UNL d   1     -52.319  24.614  33.362  0.00  0.00     0.022 A 
ATOM      5  C   UNL d   1     -51.996  23.862  33.406  0.00  0.00     0.082 A 
ATOM      6  C   UNL d   1     -53.139  24.718  33.314  0.00  0.00     0.002 A 
ATOM      7  C   UNL d   1     -52.485  23.194  33.403  0.00  0.00     0.019 A 
ATOM      8  C   UNL d   1     -53.625  24.050  33.312  0.00  0.00     0.000 A 
ATOM      9  C   UNL d   1     -53.302  23.299  33.356  0.00  0.00     0.002 A 
ENDROOT
BRANCH   1  10
ATOM     10  C   UNL d   1     -51.772  26.002  33.342  0.00  0.00     0.215 C 
ATOM     11  O   UNL d   1     -52.512  26.353  33.317  0.00  0.00    -0.285 OA
BRANCH  10  12
ATOM     12  C   UNL d   1     -51.076  26.458  33.335  0.00  0.00     0.120 A 
ATOM     13  N   UNL d   1     -51.127  27.281  33.325  0.00  0.00    -0.241 NA
ATOM     14  C   UNL d   1     -50.429  27.721  33.319  0.00  0.00     0.099 A 
ATOM     15  C   UNL d   1     -49.695  27.341  33.322  0.00  0.00     0.021 A 
ATOM     16  C   UNL d   1     -49.658  26.524  33.332  0.00  0.00     0.003 A 
ATOM     17  C   UNL d   1     -50.341  26.082  33.338  0.00  0.00     0.022 A 
ENDBRANCH  10  12
ENDBRANCH   1  10
TORSDOF 2
ENDMDL
