MODEL 1
REMARK VINA RESULT:     101.9      0.000      0.000
REMARK  5 active torsions:
REMARK  status: ('A' for Active; 'I' for Inactive)
REMARK    1  A    between atoms: C_7  and  N_1 
REMARK    2  A    between atoms: C_10  and  C_2 
REMARK    3  A    between atoms: C_11  and  C_5 
REMARK    4  A    between atoms: C_9  and  C_7 
REMARK    5  A    between atoms: O_16  and  C_9 
ROOT
ATOM      1  N   UNL d   1     -47.990  30.615  34.613  0.00  0.00    -0.286 N 
ATOM      2  C   UNL d   1     -47.754  31.404  34.569  0.00  0.00     0.148 A 
ATOM      3  N   UNL d   1     -47.281  31.720  35.162  0.00  0.00    -0.228 NA
ATOM      4  C   UNL d   1     -47.284  30.473  35.833  0.00  0.00     0.035 A 
ATOM      5  C   UNL d   1     -47.749  30.156  35.251  0.00  0.00     0.067 A 
ATOM      6  C   UNL d   1     -47.048  31.262  35.788  0.00  0.00     0.084 A 
ATOM      7  C   UNL d   1     -47.048  30.014  36.462  0.00  0.00     0.014 A 
ATOM      8  C   UNL d   1     -46.580  31.578  36.374  0.00  0.00     0.020 A 
ATOM      9  C   UNL d   1     -46.576  30.330  37.056  0.00  0.00     0.058 A 
ATOM     10  C   UNL d   1     -46.340  31.119  37.012  0.00  0.00     0.013 A 
ATOM     11 CL   UNL d   1     -46.333  29.860  37.703  0.00  0.00    -0.082 Cl
ENDROOT
BRANCH   2  12
ATOM     12  C   UNL d   1     -47.758  32.165  34.150  0.00  0.00     0.035 A 
ATOM     13  C   UNL d   1     -48.494  32.630  34.088  0.00  0.00     0.003 A 
ATOM     14  C   UNL d   1     -48.492  33.391  33.668  0.00  0.00     0.000 A 
ATOM     15  C   UNL d   1     -47.748  33.688  33.307  0.00  0.00     0.000 A 
ATOM     16  C   UNL d   1     -47.016  33.215  33.374  0.00  0.00     0.000 A 
ATOM     17  C   UNL d   1     -47.020  32.460  33.792  0.00  0.00     0.003 A 
ENDBRANCH   2  12
BRANCH   1  18
ATOM     18  C   UNL d   1     -48.462  30.299  34.019  0.00  0.00     0.150 C 
BRANCH  18  19
ATOM     19  C   UNL d   1     -49.248  30.516  33.950  0.00  0.00     0.314 C 
ATOM     20  O   UNL d   1     -49.521  31.193  34.334  0.00  0.00    -0.257 OA
BRANCH  19  21
ATOM     21  O   UNL d   1     -49.761  30.068  33.504  0.00  0.00    -0.295 OA
ATOM     22  C   UNL d   1     -50.563  30.252  33.495  0.00  0.00     0.185 C 
ENDBRANCH  19  21
ENDBRANCH  18  19
ENDBRANCH   1  18
BRANCH   5  23
ATOM     23  C   UNL d   1     -47.985  29.366  35.295  0.00  0.00     0.016 A 
ATOM     24  C   UNL d   1     -47.671  28.819  34.787  0.00  0.00     0.001 A 
ATOM     25  C   UNL d   1     -47.907  28.030  34.832  0.00  0.00     0.000 A 
ATOM     26  C   UNL d   1     -48.453  27.801  35.384  0.00  0.00     0.000 A 
ATOM     27  C   UNL d   1     -48.786  28.354  35.914  0.00  0.00     0.000 A 
ATOM     28  C   UNL d   1     -48.541  29.140  35.859  0.00  0.00     0.001 A 
ENDBRANCH   5  23
TORSDOF 5
ENDMDL
