MODEL 1
REMARK VINA RESULT:      -3.2      0.000      0.000
REMARK  6 active torsions:
REMARK  status: ('A' for Active; 'I' for Inactive)
REMARK    1  A    between atoms: C_2  and  S_1 
REMARK    2  A    between atoms: N_5  and  S_1 
REMARK    3  A    between atoms: C_9  and  N_5 
REMARK    4  A    between atoms: C_11  and  C_9 
REMARK       I    between atoms: N_17  and  C_11 
REMARK    5  A    between atoms: C_16  and  C_21 
REMARK    6  A    between atoms: C_21  and  N_17 
ROOT
ATOM      1  C   UNL d   1      33.108  20.312 -22.402  0.00  0.00     0.299 C 
ATOM      2  N   UNL d   1      32.993  19.502 -22.460  0.00  0.00    -0.203 NA
ATOM      3  O   UNL d   1      33.240  20.769 -23.098  0.00  0.00    -0.263 OA
ENDROOT
BRANCH   1   4
ATOM      4  C   UNL d   1      33.094  20.680 -21.666  0.00  0.00     0.174 C 
BRANCH   4   5
ATOM      5  N   UNL d   1      32.437  21.148 -21.447  0.00  0.00    -0.151 NA
BRANCH   5   6
ATOM      6  S   UNL d   1      32.534  21.770 -20.903  0.00  0.00     0.291 S 
ATOM      7  O   UNL d   1      33.225  21.406 -20.605  0.00  0.00    -0.198 OA
ATOM      8  O   UNL d   1      31.857  22.133 -21.190  0.00  0.00    -0.198 OA
BRANCH   6   9
ATOM      9  C   UNL d   1      32.641  22.384 -20.356  0.00  0.00     0.135 A 
ATOM     10  S   UNL d   1      32.779  22.275 -19.571  0.00  0.00    -0.067 SA
ATOM     11  C   UNL d   1      32.853  23.033 -19.216  0.00  0.00     0.065 A 
ATOM     12 BR   UNL d   1      33.000  23.187 -18.404  0.00  0.00    -0.042 Br
ATOM     13  C   UNL d   1      32.758  23.590 -19.794  0.00  0.00     0.015 A 
ATOM     14  C   UNL d   1      32.625  23.195 -20.509  0.00  0.00     0.021 A 
ENDBRANCH   6   9
ENDBRANCH   5   6
ENDBRANCH   4   5
ENDBRANCH   1   4
BRANCH   2  15
ATOM     15  C   UNL d   1      33.007  19.129 -23.208  0.00  0.00     0.129 C 
BRANCH  15  16
ATOM     16  C   UNL d   1      32.756  18.336 -23.275  0.00  0.00     0.144 A 
ATOM     17  O   UNL d   1      32.050  18.145 -23.626  0.00  0.00    -0.301 OA
ATOM     18  C   UNL d   1      31.820  17.365 -23.683  0.00  0.00     0.123 A 
ATOM     19  C   UNL d   1      31.101  17.171 -24.039  0.00  0.00     0.027 A 
ATOM     20  C   UNL d   1      32.299  16.765 -23.387  0.00  0.00     0.123 A 
ATOM     21  C   UNL d   1      30.863  16.382 -24.100  0.00  0.00     0.002 A 
ATOM     22  C   UNL d   1      31.344  15.785 -23.803  0.00  0.00     0.002 A 
ATOM     23  C   UNL d   1      32.068  15.982 -23.444  0.00  0.00     0.027 A 
ATOM     24  O   UNL d   1      33.013  16.952 -23.032  0.00  0.00    -0.301 OA
ATOM     25  C   UNL d   1      33.238  17.738 -22.978  0.00  0.00     0.149 A 
ENDBRANCH  15  16
ENDBRANCH   2  15
TORSDOF 6
ENDMDL
MODEL 2
REMARK VINA RESULT:      -3.0      2.861      5.968
REMARK  6 active torsions:
REMARK  status: ('A' for Active; 'I' for Inactive)
REMARK    1  A    between atoms: C_2  and  S_1 
REMARK    2  A    between atoms: N_5  and  S_1 
REMARK    3  A    between atoms: C_9  and  N_5 
REMARK    4  A    between atoms: C_11  and  C_9 
REMARK       I    between atoms: N_17  and  C_11 
REMARK    5  A    between atoms: C_16  and  C_21 
REMARK    6  A    between atoms: C_21  and  N_17 
ROOT
ATOM      1  C   UNL d   1      32.786  18.745 -23.372  0.00  0.00     0.299 C 
ATOM      2  N   UNL d   1      32.787  19.200 -22.690  0.00  0.00    -0.203 NA
ATOM      3  O   UNL d   1      33.241  18.986 -24.040  0.00  0.00    -0.263 OA
ENDROOT
BRANCH   1   4
ATOM      4  C   UNL d   1      32.341  18.053 -23.407  0.00  0.00     0.174 C 
BRANCH   4   5
ATOM      5  N   UNL d   1      32.062  17.774 -24.144  0.00  0.00    -0.151 NA
BRANCH   5   6
ATOM      6  S   UNL d   1      31.458  17.203 -24.169  0.00  0.00     0.291 S 
ATOM      7  O   UNL d   1      32.009  16.606 -23.969  0.00  0.00    -0.198 OA
ATOM      8  O   UNL d   1      30.912  17.783 -24.366  0.00  0.00    -0.198 OA
BRANCH   6   9
ATOM      9  C   UNL d   1      30.863  16.626 -24.191  0.00  0.00     0.135 A 
ATOM     10  S   UNL d   1      30.397  16.430 -23.566  0.00  0.00    -0.067 SA
ATOM     11  C   UNL d   1      29.870  15.826 -23.818  0.00  0.00     0.065 A 
ATOM     12 BR   UNL d   1      29.283  15.453 -23.348  0.00  0.00    -0.042 Br
ATOM     13  C   UNL d   1      30.027  15.666 -24.595  0.00  0.00     0.015 A 
ATOM     14  C   UNL d   1      30.645  16.160 -24.836  0.00  0.00     0.021 A 
ENDBRANCH   6   9
ENDBRANCH   5   6
ENDBRANCH   4   5
ENDBRANCH   1   4
BRANCH   2  15
ATOM     15  C   UNL d   1      33.239  19.902 -22.655  0.00  0.00     0.129 C 
BRANCH  15  16
ATOM     16  C   UNL d   1      33.108  20.443 -22.033  0.00  0.00     0.144 A 
ATOM     17  O   UNL d   1      32.871  21.205 -22.180  0.00  0.00    -0.301 OA
ATOM     18  C   UNL d   1      32.747  21.721 -21.561  0.00  0.00     0.123 A 
ATOM     19  C   UNL d   1      32.506  22.496 -21.710  0.00  0.00     0.027 A 
ATOM     20  C   UNL d   1      32.860  21.476 -20.783  0.00  0.00     0.123 A 
ATOM     21  C   UNL d   1      32.379  23.023 -21.086  0.00  0.00     0.002 A 
ATOM     22  C   UNL d   1      32.493  22.774 -20.310  0.00  0.00     0.002 A 
ATOM     23  C   UNL d   1      32.736  21.992 -20.162  0.00  0.00     0.027 A 
ATOM     24  O   UNL d   1      33.100  20.707 -20.630  0.00  0.00    -0.301 OA
ATOM     25  C   UNL d   1      33.222  20.194 -21.257  0.00  0.00     0.149 A 
ENDBRANCH  15  16
ENDBRANCH   2  15
TORSDOF 6
ENDMDL
MODEL 3
REMARK VINA RESULT:      -3.0      1.078      1.531
REMARK  6 active torsions:
REMARK  status: ('A' for Active; 'I' for Inactive)
REMARK    1  A    between atoms: C_2  and  S_1 
REMARK    2  A    between atoms: N_5  and  S_1 
REMARK    3  A    between atoms: C_9  and  N_5 
REMARK    4  A    between atoms: C_11  and  C_9 
REMARK       I    between atoms: N_17  and  C_11 
REMARK    5  A    between atoms: C_16  and  C_21 
REMARK    6  A    between atoms: C_21  and  N_17 
ROOT
ATOM      1  C   UNL d   1      32.977  19.128 -22.314  0.00  0.00     0.299 C 
ATOM      2  N   UNL d   1      32.731  18.811 -23.029  0.00  0.00    -0.203 NA
ATOM      3  O   UNL d   1      33.239  18.619 -21.695  0.00  0.00    -0.263 OA
ENDROOT
BRANCH   1   4
ATOM      4  C   UNL d   1      32.969  19.943 -22.200  0.00  0.00     0.174 C 
BRANCH   4   5
ATOM      5  N   UNL d   1      32.701  20.259 -21.473  0.00  0.00    -0.151 NA
BRANCH   5   6
ATOM      6  S   UNL d   1      32.626  21.082 -21.382  0.00  0.00     0.291 S 
ATOM      7  O   UNL d   1      32.199  20.969 -20.673  0.00  0.00    -0.198 OA
ATOM      8  O   UNL d   1      33.044  21.202 -22.079  0.00  0.00    -0.198 OA
BRANCH   6   9
ATOM      9  C   UNL d   1      32.545  21.901 -21.282  0.00  0.00     0.135 A 
ATOM     10  S   UNL d   1      32.378  22.259 -20.581  0.00  0.00    -0.067 SA
ATOM     11  C   UNL d   1      32.344  23.088 -20.718  0.00  0.00     0.065 A 
ATOM     12 BR   UNL d   1      32.185  23.678 -20.142  0.00  0.00    -0.042 Br
ATOM     13  C   UNL d   1      32.491  23.218 -21.502  0.00  0.00     0.015 A 
ATOM     14  C   UNL d   1      32.617  22.483 -21.862  0.00  0.00     0.021 A 
ENDBRANCH   6   9
ENDBRANCH   5   6
ENDBRANCH   4   5
ENDBRANCH   1   4
BRANCH   2  15
ATOM     15  C   UNL d   1      32.739  17.983 -23.145  0.00  0.00     0.129 C 
BRANCH  15  16
ATOM     16  C   UNL d   1      32.156  17.631 -23.628  0.00  0.00     0.144 A 
ATOM     17  O   UNL d   1      31.653  17.064 -23.337  0.00  0.00    -0.301 OA
ATOM     18  C   UNL d   1      31.089  16.731 -23.823  0.00  0.00     0.123 A 
ATOM     19  C   UNL d   1      30.578  16.155 -23.528  0.00  0.00     0.027 A 
ATOM     20  C   UNL d   1      31.024  16.964 -24.609  0.00  0.00     0.123 A 
ATOM     21  C   UNL d   1      30.004  15.813 -24.015  0.00  0.00     0.002 A 
ATOM     22  C   UNL d   1      29.942  16.049 -24.801  0.00  0.00     0.002 A 
ATOM     23  C   UNL d   1      30.459  16.630 -25.097  0.00  0.00     0.027 A 
ATOM     24  O   UNL d   1      31.529  17.536 -24.908  0.00  0.00    -0.301 OA
ATOM     25  C   UNL d   1      32.094  17.867 -24.414  0.00  0.00     0.149 A 
ENDBRANCH  15  16
ENDBRANCH   2  15
TORSDOF 6
ENDMDL
MODEL 4
REMARK VINA RESULT:      -0.4      1.444      2.094
REMARK  6 active torsions:
REMARK  status: ('A' for Active; 'I' for Inactive)
REMARK    1  A    between atoms: C_2  and  S_1 
REMARK    2  A    between atoms: N_5  and  S_1 
REMARK    3  A    between atoms: C_9  and  N_5 
REMARK    4  A    between atoms: C_11  and  C_9 
REMARK       I    between atoms: N_17  and  C_11 
REMARK    5  A    between atoms: C_16  and  C_21 
REMARK    6  A    between atoms: C_21  and  N_17 
ROOT
ATOM      1  C   UNL d   1      32.441  21.585 -21.037  0.00  0.00     0.299 C 
ATOM      2  N   UNL d   1      32.840  20.987 -21.431  0.00  0.00    -0.203 NA
ATOM      3  O   UNL d   1      31.704  21.867 -21.335  0.00  0.00    -0.263 OA
ENDROOT
BRANCH   1   4
ATOM      4  C   UNL d   1      32.758  21.911 -20.351  0.00  0.00     0.174 C 
BRANCH   4   5
ATOM      5  N   UNL d   1      32.430  22.611 -20.032  0.00  0.00    -0.151 NA
BRANCH   5   6
ATOM      6  S   UNL d   1      32.594  22.824 -19.245  0.00  0.00     0.291 S 
ATOM      7  O   UNL d   1      33.144  23.395 -19.511  0.00  0.00    -0.198 OA
ATOM      8  O   UNL d   1      32.056  22.265 -18.976  0.00  0.00    -0.198 OA
BRANCH   6   9
ATOM      9  C   UNL d   1      32.766  23.044 -18.464  0.00  0.00     0.135 A 
ATOM     10  S   UNL d   1      32.515  22.643 -17.814  0.00  0.00    -0.067 SA
ATOM     11  C   UNL d   1      32.806  23.045 -17.136  0.00  0.00     0.065 A 
ATOM     12 BR   UNL d   1      32.680  22.823 -16.336  0.00  0.00    -0.042 Br
ATOM     13  C   UNL d   1      33.230  23.685 -17.388  0.00  0.00     0.015 A 
ATOM     14  C   UNL d   1      33.210  23.693 -18.216  0.00  0.00     0.021 A 
ENDBRANCH   6   9
ENDBRANCH   5   6
ENDBRANCH   4   5
ENDBRANCH   1   4
BRANCH   2  15
ATOM     15  C   UNL d   1      32.517  20.656 -22.128  0.00  0.00     0.129 C 
BRANCH  15  16
ATOM     16  C   UNL d   1      32.697  19.866 -22.328  0.00  0.00     0.144 A 
ATOM     17  O   UNL d   1      32.676  19.611 -23.098  0.00  0.00    -0.301 OA
ATOM     18  C   UNL d   1      32.855  18.836 -23.276  0.00  0.00     0.123 A 
ATOM     19  C   UNL d   1      32.833  18.575 -24.059  0.00  0.00     0.027 A 
ATOM     20  C   UNL d   1      33.058  18.306 -22.680  0.00  0.00     0.123 A 
ATOM     21  C   UNL d   1      33.013  17.791 -24.246  0.00  0.00     0.002 A 
ATOM     22  C   UNL d   1      33.216  17.264 -23.647  0.00  0.00     0.002 A 
ATOM     23  C   UNL d   1      33.238  17.528 -22.858  0.00  0.00     0.027 A 
ATOM     24  O   UNL d   1      33.082  18.559 -21.902  0.00  0.00    -0.301 OA
ATOM     25  C   UNL d   1      32.901  19.339 -21.730  0.00  0.00     0.149 A 
ENDBRANCH  15  16
ENDBRANCH   2  15
TORSDOF 6
ENDMDL
