MODEL 1
REMARK VINA RESULT:      -4.2      0.000      0.000
REMARK  5 active torsions:
REMARK  status: ('A' for Active; 'I' for Inactive)
REMARK    1  A    between atoms: C_3  and  N_1 
REMARK       I    between atoms: C_2  and  N_4 
REMARK    2  A    between atoms: C_10  and  C_2 
REMARK    3  A    between atoms: N_4  and  C_9 
REMARK    4  A    between atoms: C_13  and  C_10 
REMARK    5  A    between atoms: C_16  and  C_13 
ROOT
ATOM      1  C   UNL d   1     -42.084-122.927 -48.944  0.00  0.00     0.064 A 
ATOM      2  C   UNL d   1     -42.683-122.617 -49.430  0.00  0.00     0.020 A 
ATOM      3  C   UNL d   1     -41.304-122.939 -49.213  0.00  0.00     0.020 A 
ATOM      4  C   UNL d   1     -41.727-122.335 -50.443  0.00  0.00     0.135 A 
ATOM      5  C   UNL d   1     -41.123-122.642 -49.967  0.00  0.00     0.034 A 
ATOM      6  C   UNL d   1     -42.500-122.323 -50.177  0.00  0.00     0.034 A 
ENDROOT
BRANCH   4   7
ATOM      7  N   UNL d   1     -41.549-122.040 -51.191  0.00  0.00    -0.365 NA
ATOM      8  C   UNL d   1     -41.369-121.740 -51.945  0.00  0.00     0.328 C 
ATOM      9  O   UNL d   1     -41.170-120.944 -52.033  0.00  0.00    -0.251 OA
BRANCH   8  10
ATOM     10  C   UNL d   1     -41.388-122.236 -52.603  0.00  0.00     0.076 C 
BRANCH  10  11
ATOM     11  C   UNL d   1     -41.472-121.924 -53.355  0.00  0.00     0.006 C 
BRANCH  11  12
ATOM     12  C   UNL d   1     -41.567-122.424 -54.004  0.00  0.00     0.000 A 
ATOM     13  C   UNL d   1     -42.063-122.201 -54.626  0.00  0.00     0.000 A 
ATOM     14  C   UNL d   1     -42.164-122.699 -55.282  0.00  0.00     0.000 A 
ATOM     15  C   UNL d   1     -41.767-123.422 -55.312  0.00  0.00     0.000 A 
ATOM     16  C   UNL d   1     -41.269-123.645 -54.686  0.00  0.00     0.000 A 
ATOM     17  C   UNL d   1     -41.170-123.147 -54.034  0.00  0.00     0.000 A 
ENDBRANCH  11  12
ENDBRANCH  10  11
ENDBRANCH   8  10
ENDBRANCH   4   7
BRANCH   1  18
ATOM     18  N   UNL d   1     -42.268-123.221 -48.198  0.00  0.00    -0.300 N 
ATOM     19  C   UNL d   1     -41.659-123.394 -47.669  0.00  0.00     0.107 A 
ATOM     20  C   UNL d   1     -41.841-123.688 -46.922  0.00  0.00     0.142 A 
ATOM     21  O   UNL d   1     -42.623-123.808 -46.705  0.00  0.00    -0.300 OA
ATOM     22  C   UNL d   1     -43.231-123.635 -47.234  0.00  0.00     0.142 A 
ATOM     23  C   UNL d   1     -43.053-123.339 -47.986  0.00  0.00     0.107 A 
ENDBRANCH   1  18
TORSDOF 5
ENDMDL
