MODEL 1
REMARK VINA RESULT:      51.7      0.000      0.000
REMARK  3 active torsions:
REMARK  status: ('A' for Active; 'I' for Inactive)
REMARK    1  A    between atoms: N_2  and  S_1 
REMARK    2  A    between atoms: C_4  and  S_1 
REMARK       I    between atoms: C_8  and  N_10 
REMARK    3  A    between atoms: N_10  and  C_16 
ROOT
ATOM      1  S   UNL d   1     -51.034  26.447  33.379  0.00  0.00     0.271 S 
ATOM      2  O   UNL d   1     -50.269  26.152  33.453  0.00  0.00    -0.200 OA
ATOM      3  O   UNL d   1     -51.800  26.746  33.306  0.00  0.00    -0.200 OA
ENDROOT
BRANCH   1   4
ATOM      4  N   UNL d   1     -51.329  25.678  33.365  0.00  0.00    -0.229 N 
ATOM      5  C   UNL d   1     -52.148  25.558  33.363  0.00  0.00     0.092 A 
ATOM      6  C   UNL d   1     -52.446  24.792  33.350  0.00  0.00     0.018 A 
ATOM      7  C   UNL d   1     -53.261  24.675  33.348  0.00  0.00     0.002 A 
ATOM      8  C   UNL d   1     -51.934  24.146  33.337  0.00  0.00     0.003 A 
ATOM      9  C   UNL d   1     -53.558  23.909  33.334  0.00  0.00     0.000 A 
ATOM     10  C   UNL d   1     -53.050  23.260  33.322  0.00  0.00     0.000 A 
ATOM     11  C   UNL d   1     -52.233  23.384  33.324  0.00  0.00     0.000 A 
ATOM     12  C   UNL d   1     -51.119  24.272  33.339  0.00  0.00     0.020 A 
ATOM     13  C   UNL d   1     -50.816  25.043  33.354  0.00  0.00     0.092 A 
ENDBRANCH   1   4
BRANCH   1  14
ATOM     14  C   UNL d   1     -50.731  27.216  33.394  0.00  0.00     0.104 A 
ATOM     15  C   UNL d   1     -49.915  27.334  33.320  0.00  0.00     0.014 A 
ATOM     16  C   UNL d   1     -49.618  28.104  33.335  0.00  0.00     0.020 A 
ATOM     17  C   UNL d   1     -50.127  28.747  33.423  0.00  0.00     0.085 A 
ATOM     18  C   UNL d   1     -50.941  28.614  33.497  0.00  0.00     0.020 A 
ATOM     19  C   UNL d   1     -51.239  27.850  33.482  0.00  0.00     0.014 A 
BRANCH  17  20
ATOM     20  N   UNL d   1     -49.823  29.508  33.438  0.00  0.00    -0.208 NA
ATOM     21  C   UNL d   1     -49.276  29.728  34.009  0.00  0.00     0.279 C 
ATOM     22  O   UNL d   1     -49.027  29.182  34.576  0.00  0.00    -0.265 OA
ATOM     23  C   UNL d   1     -48.969  30.494  34.023  0.00  0.00     0.068 C 
ENDBRANCH  17  20
ENDBRANCH   1  14
TORSDOF 3
ENDMDL
