MODEL 1
REMARK VINA RESULT:      -3.1      0.000      0.000
REMARK  1 active torsions:
REMARK  status: ('A' for Active; 'I' for Inactive)
REMARK    1  A    between atoms: C_6  and  C_1 
REMARK       I    between atoms: N_9  and  C_6 
ROOT
ATOM      1  C   UNL d   1      32.768  17.709 -24.018  0.00  0.00     0.107 A 
ATOM      2  C   UNL d   1      32.907  18.989 -23.677  0.00  0.00     0.044 A 
ATOM      3  S   UNL d   1      32.788  17.755 -23.197  0.00  0.00    -0.061 SA
ATOM      4  C   UNL d   1      32.874  18.546 -22.986  0.00  0.00     0.112 A 
ATOM      5  C   UNL d   1      32.842  18.479 -24.314  0.00  0.00     0.116 A 
ATOM      6  N   UNL d   1      32.928  18.928 -22.247  0.00  0.00    -0.239 NA
ATOM      7  C   UNL d   1      32.993  19.811 -23.639  0.00  0.00     0.005 A 
ATOM      8  C   UNL d   1      33.013  19.744 -22.214  0.00  0.00     0.082 A 
ATOM      9  C   UNL d   1      33.045  20.180 -22.915  0.00  0.00     0.018 A 
ATOM     10  N   UNL d   1      32.848  18.681 -25.096  0.00  0.00    -0.147 N 
ATOM     11  C   UNL d   1      33.047  19.924 -21.409  0.00  0.00     0.019 A 
ATOM     12  C   UNL d   1      33.125  20.985 -23.105  0.00  0.00     0.002 A 
ATOM     13  C   UNL d   1      33.127  20.621 -20.973  0.00  0.00     0.002 A 
ATOM     14  C   UNL d   1      33.206  21.685 -22.657  0.00  0.00     0.000 A 
ATOM     15  C   UNL d   1      33.240  21.864 -21.852  0.00  0.00     0.000 A 
ATOM     16  C   UNL d   1      33.207  21.421 -21.155  0.00  0.00     0.000 A 
ENDROOT
BRANCH   1  17
ATOM     17  C   UNL d   1      32.690  17.039 -24.452  0.00  0.00     0.272 C 
ATOM     18  N   UNL d   1      32.073  16.554 -24.321  0.00  0.00    -0.272 N 
ATOM     19  C   UNL d   1      31.490  16.651 -23.786  0.00  0.00     0.083 A 
ATOM     20  C   UNL d   1      31.929  15.863 -24.717  0.00  0.00     0.083 A 
ATOM     21  C   UNL d   1      30.992  16.035 -23.846  0.00  0.00     0.021 A 
ATOM     22  C   UNL d   1      31.255  15.550 -24.414  0.00  0.00     0.021 A 
ATOM     23  O   UNL d   1      33.234  16.864 -25.014  0.00  0.00    -0.266 OA
ENDBRANCH   1  17
TORSDOF 1
ENDMDL
MODEL 2
REMARK VINA RESULT:      -2.8      2.828      5.483
REMARK  1 active torsions:
REMARK  status: ('A' for Active; 'I' for Inactive)
REMARK    1  A    between atoms: C_6  and  C_1 
REMARK       I    between atoms: N_9  and  C_6 
ROOT
ATOM      1  C   UNL d   1      32.432  22.451 -20.815  0.00  0.00     0.107 A 
ATOM      2  C   UNL d   1      32.696  21.710 -21.890  0.00  0.00     0.044 A 
ATOM      3  S   UNL d   1      32.404  21.658 -20.594  0.00  0.00    -0.061 SA
ATOM      4  C   UNL d   1      32.567  21.200 -21.259  0.00  0.00     0.112 A 
ATOM      5  C   UNL d   1      32.615  22.479 -21.621  0.00  0.00     0.116 A 
ATOM      6  N   UNL d   1      32.616  20.377 -21.376  0.00  0.00    -0.239 NA
ATOM      7  C   UNL d   1      32.874  21.406 -22.639  0.00  0.00     0.005 A 
ATOM      8  C   UNL d   1      32.792  20.079 -22.121  0.00  0.00     0.082 A 
ATOM      9  C   UNL d   1      32.921  20.601 -22.748  0.00  0.00     0.018 A 
ATOM     10  N   UNL d   1      32.696  23.154 -22.059  0.00  0.00    -0.147 N 
ATOM     11  C   UNL d   1      32.794  19.259 -22.029  0.00  0.00     0.019 A 
ATOM     12  C   UNL d   1      33.106  20.518 -23.554  0.00  0.00     0.002 A 
ATOM     13  C   UNL d   1      32.926  18.619 -22.535  0.00  0.00     0.002 A 
ATOM     14  C   UNL d   1      33.238  19.866 -24.058  0.00  0.00     0.000 A 
ATOM     15  C   UNL d   1      33.239  19.046 -23.966  0.00  0.00     0.000 A 
ATOM     16  C   UNL d   1      33.109  18.530 -23.334  0.00  0.00     0.000 A 
ENDROOT
BRANCH   1  17
ATOM     17  C   UNL d   1      32.306  23.080 -20.333  0.00  0.00     0.272 C 
ATOM     18  N   UNL d   1      32.613  23.082 -19.599  0.00  0.00    -0.272 N 
ATOM     19  C   UNL d   1      33.054  22.510 -19.260  0.00  0.00     0.083 A 
ATOM     20  C   UNL d   1      32.529  23.679 -19.058  0.00  0.00     0.083 A 
ATOM     21  C   UNL d   1      33.241  22.743 -18.524  0.00  0.00     0.021 A 
ATOM     22  C   UNL d   1      32.922  23.457 -18.395  0.00  0.00     0.021 A 
ATOM     23  O   UNL d   1      31.872  23.700 -20.595  0.00  0.00    -0.266 OA
ENDBRANCH   1  17
TORSDOF 1
ENDMDL
MODEL 3
REMARK VINA RESULT:      -2.7      2.320      5.021
REMARK  1 active torsions:
REMARK  status: ('A' for Active; 'I' for Inactive)
REMARK    1  A    between atoms: C_6  and  C_1 
REMARK       I    between atoms: N_9  and  C_6 
ROOT
ATOM      1  C   UNL d   1      32.909  21.291 -21.268  0.00  0.00     0.107 A 
ATOM      2  C   UNL d   1      32.991  20.123 -21.905  0.00  0.00     0.044 A 
ATOM      3  S   UNL d   1      32.950  21.441 -22.076  0.00  0.00    -0.061 SA
ATOM      4  C   UNL d   1      33.001  20.720 -22.470  0.00  0.00     0.112 A 
ATOM      5  C   UNL d   1      32.934  20.470 -21.165  0.00  0.00     0.116 A 
ATOM      6  N   UNL d   1      33.056  20.522 -23.277  0.00  0.00    -0.239 NA
ATOM      7  C   UNL d   1      33.035  19.330 -22.138  0.00  0.00     0.005 A 
ATOM      8  C   UNL d   1      33.100  19.734 -23.504  0.00  0.00     0.082 A 
ATOM      9  C   UNL d   1      33.089  19.143 -22.927  0.00  0.00     0.018 A 
ATOM     10  N   UNL d   1      32.907  20.087 -20.454  0.00  0.00    -0.147 N 
ATOM     11  C   UNL d   1      33.148  19.750 -24.328  0.00  0.00     0.019 A 
ATOM     12  C   UNL d   1      33.121  18.313 -22.936  0.00  0.00     0.002 A 
ATOM     13  C   UNL d   1      33.204  19.174 -24.917  0.00  0.00     0.002 A 
ATOM     14  C   UNL d   1      33.179  17.736 -23.537  0.00  0.00     0.000 A 
ATOM     15  C   UNL d   1      33.227  17.753 -24.361  0.00  0.00     0.000 A 
ATOM     16  C   UNL d   1      33.237  18.350 -24.932  0.00  0.00     0.000 A 
ENDROOT
BRANCH   1  17
ATOM     17  C   UNL d   1      32.853  21.841 -20.688  0.00  0.00     0.272 C 
ATOM     18  N   UNL d   1      32.466  22.522 -20.825  0.00  0.00    -0.272 N 
ATOM     19  C   UNL d   1      32.105  22.742 -21.503  0.00  0.00     0.083 A 
ATOM     20  C   UNL d   1      32.369  23.122 -20.291  0.00  0.00     0.083 A 
ATOM     21  C   UNL d   1      31.790  23.463 -21.394  0.00  0.00     0.021 A 
ATOM     22  C   UNL d   1      31.948  23.700 -20.655  0.00  0.00     0.021 A 
ATOM     23  O   UNL d   1      33.189  21.701 -19.973  0.00  0.00    -0.266 OA
ENDBRANCH   1  17
TORSDOF 1
ENDMDL
MODEL 4
REMARK VINA RESULT:      -2.0      2.483      5.110
REMARK  1 active torsions:
REMARK  status: ('A' for Active; 'I' for Inactive)
REMARK    1  A    between atoms: C_6  and  C_1 
REMARK       I    between atoms: N_9  and  C_6 
ROOT
ATOM      1  C   UNL d   1      33.227  22.177 -21.759  0.00  0.00     0.107 A 
ATOM      2  C   UNL d   1      33.232  21.249 -22.715  0.00  0.00     0.044 A 
ATOM      3  S   UNL d   1      33.224  21.437 -21.399  0.00  0.00    -0.061 SA
ATOM      4  C   UNL d   1      33.227  20.863 -21.990  0.00  0.00     0.112 A 
ATOM      5  C   UNL d   1      33.232  22.056 -22.578  0.00  0.00     0.116 A 
ATOM      6  N   UNL d   1      33.226  20.031 -21.965  0.00  0.00    -0.239 NA
ATOM      7  C   UNL d   1      33.236  20.811 -23.417  0.00  0.00     0.005 A 
ATOM      8  C   UNL d   1      33.230  19.600 -22.664  0.00  0.00     0.082 A 
ATOM      9  C   UNL d   1      33.235  19.998 -23.388  0.00  0.00     0.018 A 
ATOM     10  N   UNL d   1      33.236  22.640 -23.137  0.00  0.00    -0.147 N 
ATOM     11  C   UNL d   1      33.228  18.808 -22.429  0.00  0.00     0.019 A 
ATOM     12  C   UNL d   1      33.239  19.768 -24.186  0.00  0.00     0.002 A 
ATOM     13  C   UNL d   1      33.230  18.085 -22.828  0.00  0.00     0.002 A 
ATOM     14  C   UNL d   1      33.241  19.032 -24.581  0.00  0.00     0.000 A 
ATOM     15  C   UNL d   1      33.239  18.241 -24.346  0.00  0.00     0.000 A 
ATOM     16  C   UNL d   1      33.234  17.850 -23.618  0.00  0.00     0.000 A 
ENDROOT
BRANCH   1  17
ATOM     17  C   UNL d   1      33.225  22.885 -21.383  0.00  0.00     0.272 C 
ATOM     18  N   UNL d   1      33.218  22.910 -20.588  0.00  0.00    -0.272 N 
ATOM     19  C   UNL d   1      33.211  22.288 -20.088  0.00  0.00     0.083 A 
ATOM     20  C   UNL d   1      33.215  23.584 -20.140  0.00  0.00     0.083 A 
ATOM     21  C   UNL d   1      33.204  22.567 -19.344  0.00  0.00     0.021 A 
ATOM     22  C   UNL d   1      33.207  23.359 -19.370  0.00  0.00     0.021 A 
ATOM     23  O   UNL d   1      33.232  23.563 -21.811  0.00  0.00    -0.266 OA
ENDBRANCH   1  17
TORSDOF 1
ENDMDL
MODEL 5
REMARK VINA RESULT:      -1.6      1.806      4.464
REMARK  1 active torsions:
REMARK  status: ('A' for Active; 'I' for Inactive)
REMARK    1  A    between atoms: C_6  and  C_1 
REMARK       I    between atoms: N_9  and  C_6 
ROOT
ATOM      1  C   UNL d   1      33.021  20.781 -22.579  0.00  0.00     0.107 A 
ATOM      2  C   UNL d   1      33.004  19.704 -23.362  0.00  0.00     0.044 A 
ATOM      3  S   UNL d   1      33.112  20.116 -22.102  0.00  0.00    -0.061 SA
ATOM      4  C   UNL d   1      33.102  19.450 -22.587  0.00  0.00     0.112 A 
ATOM      5  C   UNL d   1      32.954  20.521 -23.361  0.00  0.00     0.116 A 
ATOM      6  N   UNL d   1      33.169  18.636 -22.424  0.00  0.00    -0.239 NA
ATOM      7  C   UNL d   1      32.972  19.152 -23.978  0.00  0.00     0.005 A 
ATOM      8  C   UNL d   1      33.137  18.092 -23.038  0.00  0.00     0.082 A 
ATOM      9  C   UNL d   1      33.038  18.358 -23.814  0.00  0.00     0.018 A 
ATOM     10  N   UNL d   1      32.856  20.999 -24.007  0.00  0.00    -0.147 N 
ATOM     11  C   UNL d   1      33.221  17.354 -22.676  0.00  0.00     0.019 A 
ATOM     12  C   UNL d   1      32.981  17.993 -24.558  0.00  0.00     0.002 A 
ATOM     13  C   UNL d   1      33.240  16.574 -22.947  0.00  0.00     0.002 A 
ATOM     14  C   UNL d   1      33.002  17.202 -24.824  0.00  0.00     0.000 A 
ATOM     15  C   UNL d   1      33.085  16.465 -24.462  0.00  0.00     0.000 A 
ATOM     16  C   UNL d   1      33.184  16.207 -23.683  0.00  0.00     0.000 A 
ENDROOT
BRANCH   1  17
ATOM     17  C   UNL d   1      33.001  21.543 -22.328  0.00  0.00     0.272 C 
ATOM     18  N   UNL d   1      32.743  21.709 -21.593  0.00  0.00    -0.272 N 
ATOM     19  C   UNL d   1      32.488  21.190 -21.044  0.00  0.00     0.083 A 
ATOM     20  C   UNL d   1      32.695  22.450 -21.271  0.00  0.00     0.083 A 
ATOM     21  C   UNL d   1      32.284  21.597 -20.393  0.00  0.00     0.021 A 
ATOM     22  C   UNL d   1      32.408  22.368 -20.526  0.00  0.00     0.021 A 
ATOM     23  O   UNL d   1      33.241  22.129 -22.818  0.00  0.00    -0.266 OA
ENDBRANCH   1  17
TORSDOF 1
ENDMDL
MODEL 6
REMARK VINA RESULT:      -0.2      2.731      4.104
REMARK  1 active torsions:
REMARK  status: ('A' for Active; 'I' for Inactive)
REMARK    1  A    between atoms: C_6  and  C_1 
REMARK       I    between atoms: N_9  and  C_6 
ROOT
ATOM      1  C   UNL d   1      28.906  16.122 -24.249  0.00  0.00     0.107 A 
ATOM      2  C   UNL d   1      29.937  16.958 -24.359  0.00  0.00     0.044 A 
ATOM      3  S   UNL d   1      29.523  15.829 -23.790  0.00  0.00    -0.061 SA
ATOM      4  C   UNL d   1      30.161  16.346 -23.858  0.00  0.00     0.112 A 
ATOM      5  C   UNL d   1      29.167  16.824 -24.601  0.00  0.00     0.116 A 
ATOM      6  N   UNL d   1      30.926  16.342 -23.527  0.00  0.00    -0.239 NA
ATOM      7  C   UNL d   1      30.470  17.567 -24.533  0.00  0.00     0.005 A 
ATOM      8  C   UNL d   1      31.451  16.948 -23.702  0.00  0.00     0.082 A 
ATOM      9  C   UNL d   1      31.215  17.559 -24.207  0.00  0.00     0.018 A 
ATOM     10  N   UNL d   1      28.729  17.290 -25.096  0.00  0.00    -0.147 N 
ATOM     11  C   UNL d   1      32.139  16.764 -23.285  0.00  0.00     0.019 A 
ATOM     12  C   UNL d   1      31.574  18.245 -24.507  0.00  0.00     0.002 A 
ATOM     13  C   UNL d   1      32.880  17.120 -23.202  0.00  0.00     0.002 A 
ATOM     14  C   UNL d   1      32.325  18.599 -24.417  0.00  0.00     0.000 A 
ATOM     15  C   UNL d   1      33.012  18.413 -24.000  0.00  0.00     0.000 A 
ATOM     16  C   UNL d   1      33.241  17.800 -23.497  0.00  0.00     0.000 A 
ENDROOT
BRANCH   1  17
ATOM     17  C   UNL d   1      28.183  15.786 -24.337  0.00  0.00     0.272 C 
ATOM     18  N   UNL d   1      27.673  15.781 -23.727  0.00  0.00    -0.272 N 
ATOM     19  C   UNL d   1      27.793  16.083 -22.998  0.00  0.00     0.083 A 
ATOM     20  C   UNL d   1      26.929  15.462 -23.740  0.00  0.00     0.083 A 
ATOM     21  C   UNL d   1      27.138  15.956 -22.565  0.00  0.00     0.021 A 
ATOM     22  C   UNL d   1      26.607  15.576 -23.014  0.00  0.00     0.021 A 
ATOM     23  O   UNL d   1      27.980  15.458 -25.040  0.00  0.00    -0.266 OA
ENDBRANCH   1  17
TORSDOF 1
ENDMDL
