MODEL 1
REMARK VINA RESULT:      31.7      0.000      0.000
REMARK  1 active torsions:
REMARK  status: ('A' for Active; 'I' for Inactive)
REMARK    1  A    between atoms: C_10  and  N_2 
ROOT
ATOM      1  C   UNL d   1     -57.710 -98.809 -44.109  0.00  0.00     0.166 A 
ATOM      2  N   UNL d   1     -58.529 -98.803 -43.968  0.00  0.00    -0.291 N 
ATOM      3  C   UNL d   1     -57.617 -98.802 -44.927  0.00  0.00     0.117 A 
ATOM      4  C   UNL d   1     -58.916 -98.794 -44.683  0.00  0.00     0.067 A 
ATOM      5  N   UNL d   1     -57.052 -98.819 -43.597  0.00  0.00    -0.225 NA
ATOM      6  C   UNL d   1     -58.348 -98.792 -45.281  0.00  0.00     0.037 A 
ATOM      7  N   UNL d   1     -56.841 -98.805 -45.222  0.00  0.00    -0.241 NA
ATOM      8  C   UNL d   1     -56.302 -98.822 -43.903  0.00  0.00     0.101 A 
ATOM      9  C   UNL d   1     -56.203 -98.815 -44.728  0.00  0.00     0.099 A 
ATOM     10  C   UNL d   1     -59.723 -98.785 -44.877  0.00  0.00     0.018 A 
ATOM     11  C   UNL d   1     -58.587 -98.783 -46.073  0.00  0.00     0.003 A 
ATOM     12  C   UNL d   1     -55.447 -98.818 -45.042  0.00  0.00     0.021 A 
ATOM     13  C   UNL d   1     -55.660 -98.832 -43.416  0.00  0.00     0.021 A 
ATOM     14  C   UNL d   1     -59.959 -98.776 -45.673  0.00  0.00     0.002 A 
ATOM     15  C   UNL d   1     -59.390 -98.775 -46.271  0.00  0.00     0.000 A 
ATOM     16  C   UNL d   1     -54.885 -98.835 -43.749  0.00  0.00     0.002 A 
ATOM     17  C   UNL d   1     -54.769 -98.828 -44.552  0.00  0.00     0.002 A 
ENDROOT
BRANCH   2  18
ATOM     18  C   UNL d   1     -58.879 -98.808 -43.238  0.00  0.00     0.066 C 
ATOM     19  C   UNL d   1     -59.722 -98.865 -43.194  0.00  0.00     0.019 C 
ATOM     20  C   UNL d   1     -58.415 -98.757 -42.564  0.00  0.00     0.019 C 
ENDBRANCH   2  18
TORSDOF 1
ENDMDL
