MODEL 1
REMARK VINA RESULT:      84.0      0.000      0.000
REMARK  2 active torsions:
REMARK  status: ('A' for Active; 'I' for Inactive)
REMARK    1  A    between atoms: C_6  and  C_1 
REMARK    2  A    between atoms: C_9  and  C_2 
ROOT
ATOM      1  C   UNL d   1     -57.867 -99.144 -44.612  0.00  0.00     0.039 A 
ATOM      2  C   UNL d   1     -57.827 -98.955 -45.409  0.00  0.00     0.120 A 
ATOM      3  N   UNL d   1     -57.034 -98.839 -45.611  0.00  0.00    -0.164 NA
ATOM      4  N   UNL d   1     -56.590 -98.959 -44.933  0.00  0.00    -0.228 N 
ATOM      5  C   UNL d   1     -57.103 -99.147 -44.314  0.00  0.00     0.085 A 
ATOM      6  C   UNL d   1     -55.818 -98.962 -44.631  0.00  0.00     0.101 A 
ATOM      7  C   UNL d   1     -56.645 -99.267 -43.630  0.00  0.00     0.021 A 
ATOM      8  C   UNL d   1     -55.855 -99.152 -43.829  0.00  0.00     0.022 A 
ENDROOT
BRANCH   1   9
ATOM      9  C   UNL d   1     -58.551 -99.304 -44.181  0.00  0.00     0.006 A 
ATOM     10  C   UNL d   1     -58.569 -99.180 -43.375  0.00  0.00     0.018 A 
ATOM     11  C   UNL d   1     -59.253 -99.340 -42.945  0.00  0.00     0.085 A 
ATOM     12  C   UNL d   1     -57.896 -98.892 -42.987  0.00  0.00     0.005 A 
ATOM     13  C   UNL d   1     -59.271 -99.213 -42.122  0.00  0.00     0.061 A 
ATOM     14  N   UNL d   1     -59.925 -99.626 -43.331  0.00  0.00    -0.244 NA
ATOM     15  C   UNL d   1     -58.595 -98.926 -41.744  0.00  0.00     0.197 A 
ATOM     16  C   UNL d   1     -57.917 -98.768 -42.170  0.00  0.00     0.042 A 
ATOM     17  O   UNL d   1     -58.616 -98.801 -40.928  0.00  0.00    -0.286 OA
ATOM     18  C   UNL d   1     -59.910 -99.752 -44.143  0.00  0.00     0.099 A 
ATOM     19  C   UNL d   1     -59.221 -99.591 -44.572  0.00  0.00     0.021 A 
ENDBRANCH   1   9
BRANCH   2  20
ATOM     20  C   UNL d   1     -58.467 -98.890 -45.925  0.00  0.00     0.101 A 
ATOM     21  N   UNL d   1     -58.340 -98.852 -46.736  0.00  0.00    -0.242 NA
ATOM     22  C   UNL d   1     -58.968 -98.788 -47.250  0.00  0.00     0.099 A 
ATOM     23  C   UNL d   1     -59.745 -98.761 -46.955  0.00  0.00     0.021 A 
ATOM     24  C   UNL d   1     -59.874 -98.799 -46.137  0.00  0.00     0.003 A 
ATOM     25  C   UNL d   1     -59.229 -98.864 -45.629  0.00  0.00     0.021 A 
ENDBRANCH   2  20
TORSDOF 2
ENDMDL
