MODEL 1
REMARK VINA RESULT:      19.0      0.000      0.000
REMARK  6 active torsions:
REMARK  status: ('A' for Active; 'I' for Inactive)
REMARK    1  A    between atoms: C_4  and  N_1 
REMARK    2  A    between atoms: C_3  and  C_2 
REMARK    3  A    between atoms: S_6  and  C_11 
REMARK    4  A    between atoms: C_7  and  S_6 
REMARK    5  A    between atoms: C_8  and  C_10 
REMARK    6  A    between atoms: C_11  and  C_8 
ROOT
ATOM      1  C   UNL d   1      45.609 -16.379  43.541  0.00  0.00     0.202 C 
ATOM      2  O   UNL d   1      45.219 -16.140  42.846  0.00  0.00    -0.286 OA
ENDROOT
BRANCH   1   3
ATOM      3  C   UNL d   1      45.841 -17.168  43.631  0.00  0.00     0.040 A 
ATOM      4  C   UNL d   1      46.088 -17.445  44.368  0.00  0.00     0.005 A 
ATOM      5  C   UNL d   1      46.315 -18.232  44.433  0.00  0.00     0.024 A 
ATOM      6  C   UNL d   1      46.299 -18.745  43.781  0.00  0.00     0.127 A 
ATOM      7  C   UNL d   1      46.051 -18.460  43.050  0.00  0.00     0.024 A 
ATOM      8  C   UNL d   1      45.826 -17.673  42.989  0.00  0.00     0.005 A 
BRANCH   6   9
ATOM      9  N   UNL d   1      46.532 -19.555  43.846  0.00  0.00    -0.114 N 
ATOM     10  O   UNL d   1      46.647 -19.874  44.597  0.00  0.00    -0.532 OA
ATOM     11  O   UNL d   1      46.638 -20.008  43.148  0.00  0.00    -0.532 OA
ENDBRANCH   6   9
ENDBRANCH   1   3
BRANCH   1  12
ATOM     12  C   UNL d   1      45.762 -15.840  44.132  0.00  0.00     0.077 C 
BRANCH  12  13
ATOM     13  S   UNL d   1      45.255 -15.191  44.258  0.00  0.00    -0.083 SA
BRANCH  13  14
ATOM     14  C   UNL d   1      45.566 -14.437  44.491  0.00  0.00     0.035 A 
ATOM     15  C   UNL d   1      45.069 -13.782  44.473  0.00  0.00     0.070 A 
ATOM     16  C   UNL d   1      45.376 -13.038  44.703  0.00  0.00     0.007 A 
ATOM     17  C   UNL d   1      46.172 -12.968  44.945  0.00  0.00     0.000 A 
ATOM     18  C   UNL d   1      46.647 -13.633  44.955  0.00  0.00     0.001 A 
ATOM     19  C   UNL d   1      46.344 -14.367  44.728  0.00  0.00     0.007 A 
BRANCH  15  20
ATOM     20  C   UNL d   1      44.259 -13.849  44.227  0.00  0.00     0.211 C 
ATOM     21  O   UNL d   1      44.036 -13.578  43.472  0.00  0.00    -0.644 OA
ATOM     22  O   UNL d   1      43.689 -14.178  44.728  0.00  0.00    -0.644 OA
ENDBRANCH  15  20
ENDBRANCH  13  14
ENDBRANCH  12  13
ENDBRANCH   1  12
TORSDOF 6
ENDMDL
MODEL 2
REMARK VINA RESULT:      19.1      0.997      1.347
REMARK  6 active torsions:
REMARK  status: ('A' for Active; 'I' for Inactive)
REMARK    1  A    between atoms: C_4  and  N_1 
REMARK    2  A    between atoms: C_3  and  C_2 
REMARK    3  A    between atoms: S_6  and  C_11 
REMARK    4  A    between atoms: C_7  and  S_6 
REMARK    5  A    between atoms: C_8  and  C_10 
REMARK    6  A    between atoms: C_11  and  C_8 
ROOT
ATOM      1  C   UNL d   1      44.859 -15.648  44.707  0.00  0.00     0.202 C 
ATOM      2  O   UNL d   1      44.030 -15.657  44.772  0.00  0.00    -0.286 OA
ENDROOT
BRANCH   1   3
ATOM      3  C   UNL d   1      45.264 -16.348  44.532  0.00  0.00     0.040 A 
ATOM      4  C   UNL d   1      45.853 -16.351  43.953  0.00  0.00     0.005 A 
ATOM      5  C   UNL d   1      46.241 -17.058  43.796  0.00  0.00     0.024 A 
ATOM      6  C   UNL d   1      46.055 -17.758  44.203  0.00  0.00     0.127 A 
ATOM      7  C   UNL d   1      45.466 -17.744  44.778  0.00  0.00     0.024 A 
ATOM      8  C   UNL d   1      45.081 -17.036  44.932  0.00  0.00     0.005 A 
BRANCH   6   9
ATOM      9  N   UNL d   1      46.453 -18.485  44.043  0.00  0.00    -0.114 N 
ATOM     10  O   UNL d   1      46.644 -18.979  44.675  0.00  0.00    -0.532 OA
ATOM     11  O   UNL d   1      46.642 -18.684  43.250  0.00  0.00    -0.532 OA
ENDBRANCH   6   9
ENDBRANCH   1   3
BRANCH   1  12
ATOM     12  C   UNL d   1      45.273 -14.955  44.815  0.00  0.00     0.077 C 
BRANCH  12  13
ATOM     13  S   UNL d   1      44.999 -14.240  44.486  0.00  0.00    -0.083 SA
BRANCH  13  14
ATOM     14  C   UNL d   1      45.503 -13.559  44.450  0.00  0.00     0.035 A 
ATOM     15  C   UNL d   1      45.321 -12.961  43.917  0.00  0.00     0.070 A 
ATOM     16  C   UNL d   1      45.818 -12.288  43.881  0.00  0.00     0.007 A 
ATOM     17  C   UNL d   1      46.486 -12.232  44.379  0.00  0.00     0.000 A 
ATOM     18  C   UNL d   1      46.647 -12.839  44.901  0.00  0.00     0.001 A 
ATOM     19  C   UNL d   1      46.156 -13.502  44.936  0.00  0.00     0.007 A 
BRANCH  15  20
ATOM     20  C   UNL d   1      44.643 -13.014  43.408  0.00  0.00     0.211 C 
ATOM     21  O   UNL d   1      44.742 -12.937  42.584  0.00  0.00    -0.644 OA
ATOM     22  O   UNL d   1      43.887 -13.141  43.718  0.00  0.00    -0.644 OA
ENDBRANCH  15  20
ENDBRANCH  13  14
ENDBRANCH  12  13
ENDBRANCH   1  12
TORSDOF 6
ENDMDL
