MODEL 1
REMARK VINA RESULT:     -10.2      0.000      0.000
REMARK  4 active torsions:
REMARK  status: ('A' for Active; 'I' for Inactive)
REMARK    1  A    between atoms: C_7  and  C_1 
REMARK    2  A    between atoms: C_8  and  C_7 
REMARK       I    between atoms: N_9  and  C_8 
REMARK    3  A    between atoms: C_14  and  N_9 
REMARK    4  A    between atoms: C_15  and  C_14 
ROOT
ATOM      1  C   UNL d   1      52.158  33.105  53.071  0.00  0.00     0.032 A 
ATOM      2  C   UNL d   1      52.818  32.837  53.492  0.00  0.00     0.025 A 
ATOM      3  C   UNL d   1      51.859  32.558  52.532  0.00  0.00     0.123 A 
ATOM      4  O   UNL d   1      52.439  31.857  52.659  0.00  0.00    -0.305 OA
ATOM      5  C   UNL d   1      53.288  33.190  54.074  0.00  0.00     0.002 A 
ATOM      6  C   UNL d   1      52.991  32.068  53.238  0.00  0.00     0.100 A 
ATOM      7  C   UNL d   1      53.922  32.785  54.402  0.00  0.00     0.000 A 
ATOM      8  C   UNL d   1      53.632  31.659  53.570  0.00  0.00     0.025 A 
ATOM      9  C   UNL d   1      54.095  32.016  54.149  0.00  0.00     0.002 A 
ATOM     10  C   UNL d   1      53.116  33.955  54.327  0.00  0.00     0.000 A 
ATOM     11  C   UNL d   1      54.379  33.139  54.974  0.00  0.00     0.000 A 
ATOM     12  C   UNL d   1      53.579  34.312  54.905  0.00  0.00     0.000 A 
ATOM     13  C   UNL d   1      54.216  33.892  55.228  0.00  0.00     0.000 A 
ENDROOT
BRANCH   1  14
ATOM     14  C   UNL d   1      51.798  33.845  53.150  0.00  0.00     0.065 C 
BRANCH  14  15
ATOM     15  C   UNL d   1      51.264  34.110  52.578  0.00  0.00     0.279 C 
ATOM     16  N   UNL d   1      50.506  34.347  52.801  0.00  0.00    -0.206 NA
ATOM     17  O   UNL d   1      51.483  34.138  51.790  0.00  0.00    -0.265 OA
BRANCH  16  18
ATOM     18  C   UNL d   1      49.975  34.610  52.240  0.00  0.00     0.102 C 
BRANCH  18  19
ATOM     19  C   UNL d   1      49.285  35.008  52.467  0.00  0.00     0.019 A 
ATOM     20  C   UNL d   1      48.664  35.069  51.936  0.00  0.00     0.002 A 
ATOM     21  C   UNL d   1      47.977  35.464  52.155  0.00  0.00     0.000 A 
ATOM     22  C   UNL d   1      47.911  35.797  52.906  0.00  0.00     0.000 A 
ATOM     23  C   UNL d   1      48.548  35.730  53.440  0.00  0.00     0.000 A 
ATOM     24  C   UNL d   1      49.229  35.336  53.214  0.00  0.00     0.002 A 
ENDBRANCH  18  19
ENDBRANCH  16  18
ENDBRANCH  14  15
ENDBRANCH   1  14
TORSDOF 4
ENDMDL
MODEL 2
REMARK VINA RESULT:      -9.8      1.047      1.950
REMARK  4 active torsions:
REMARK  status: ('A' for Active; 'I' for Inactive)
REMARK    1  A    between atoms: C_7  and  C_1 
REMARK    2  A    between atoms: C_8  and  C_7 
REMARK       I    between atoms: N_9  and  C_8 
REMARK    3  A    between atoms: C_14  and  N_9 
REMARK    4  A    between atoms: C_15  and  C_14 
ROOT
ATOM      1  C   UNL d   1      52.453  33.992  53.459  0.00  0.00     0.032 A 
ATOM      2  C   UNL d   1      53.021  33.430  53.673  0.00  0.00     0.025 A 
ATOM      3  C   UNL d   1      52.605  34.749  53.749  0.00  0.00     0.123 A 
ATOM      4  O   UNL d   1      53.388  34.604  54.206  0.00  0.00    -0.305 OA
ATOM      5  C   UNL d   1      53.094  32.622  53.511  0.00  0.00     0.002 A 
ATOM      6  C   UNL d   1      53.597  33.807  54.133  0.00  0.00     0.100 A 
ATOM      7  C   UNL d   1      53.729  32.192  53.801  0.00  0.00     0.000 A 
ATOM      8  C   UNL d   1      54.240  33.372  54.427  0.00  0.00     0.025 A 
ATOM      9  C   UNL d   1      54.305  32.569  54.262  0.00  0.00     0.002 A 
ATOM     10  C   UNL d   1      52.520  32.246  53.053  0.00  0.00     0.000 A 
ATOM     11  C   UNL d   1      53.793  31.398  53.638  0.00  0.00     0.000 A 
ATOM     12  C   UNL d   1      52.586  31.443  52.888  0.00  0.00     0.000 A 
ATOM     13  C   UNL d   1      53.232  31.021  53.187  0.00  0.00     0.000 A 
ENDROOT
BRANCH   1  14
ATOM     14  C   UNL d   1      51.780  33.853  52.999  0.00  0.00     0.065 C 
BRANCH  14  15
ATOM     15  C   UNL d   1      51.135  34.368  53.043  0.00  0.00     0.279 C 
ATOM     16  N   UNL d   1      50.503  34.280  52.519  0.00  0.00    -0.206 NA
ATOM     17  O   UNL d   1      51.119  34.964  53.603  0.00  0.00    -0.265 OA
BRANCH  16  18
ATOM     18  C   UNL d   1      49.863  34.785  52.558  0.00  0.00     0.102 C 
BRANCH  18  19
ATOM     19  C   UNL d   1      49.284  34.777  51.967  0.00  0.00     0.019 A 
ATOM     20  C   UNL d   1      48.567  35.151  52.102  0.00  0.00     0.002 A 
ATOM     21  C   UNL d   1      47.988  35.146  51.519  0.00  0.00     0.000 A 
ATOM     22  C   UNL d   1      48.124  34.766  50.801  0.00  0.00     0.000 A 
ATOM     23  C   UNL d   1      48.856  34.387  50.672  0.00  0.00     0.000 A 
ATOM     24  C   UNL d   1      49.429  34.396  51.257  0.00  0.00     0.002 A 
ENDBRANCH  18  19
ENDBRANCH  16  18
ENDBRANCH  14  15
ENDBRANCH   1  14
TORSDOF 4
ENDMDL
MODEL 3
REMARK VINA RESULT:      -9.6      2.454      4.745
REMARK  4 active torsions:
REMARK  status: ('A' for Active; 'I' for Inactive)
REMARK    1  A    between atoms: C_7  and  C_1 
REMARK    2  A    between atoms: C_8  and  C_7 
REMARK       I    between atoms: N_9  and  C_8 
REMARK    3  A    between atoms: C_14  and  N_9 
REMARK    4  A    between atoms: C_15  and  C_14 
ROOT
ATOM      1  C   UNL d   1      52.973  32.855  53.215  0.00  0.00     0.032 A 
ATOM      2  C   UNL d   1      53.098  33.518  53.694  0.00  0.00     0.025 A 
ATOM      3  C   UNL d   1      52.277  32.885  52.774  0.00  0.00     0.123 A 
ATOM      4  O   UNL d   1      51.942  33.699  53.039  0.00  0.00    -0.305 OA
ATOM      5  C   UNL d   1      53.706  33.720  54.217  0.00  0.00     0.002 A 
ATOM      6  C   UNL d   1      52.463  34.038  53.586  0.00  0.00     0.100 A 
ATOM      7  C   UNL d   1      53.685  34.430  54.628  0.00  0.00     0.000 A 
ATOM      8  C   UNL d   1      52.442  34.755  54.001  0.00  0.00     0.025 A 
ATOM      9  C   UNL d   1      53.050  34.950  54.520  0.00  0.00     0.002 A 
ATOM     10  C   UNL d   1      54.338  33.203  54.325  0.00  0.00     0.000 A 
ATOM     11  C   UNL d   1      54.287  34.622  55.141  0.00  0.00     0.000 A 
ATOM     12  C   UNL d   1      54.947  33.398  54.844  0.00  0.00     0.000 A 
ATOM     13  C   UNL d   1      54.913  34.117  55.252  0.00  0.00     0.000 A 
ENDROOT
BRANCH   1  14
ATOM     14  C   UNL d   1      53.473  32.199  53.152  0.00  0.00     0.065 C 
BRANCH  14  15
ATOM     15  C   UNL d   1      53.154  31.442  53.060  0.00  0.00     0.279 C 
ATOM     16  N   UNL d   1      53.341  30.848  53.601  0.00  0.00    -0.206 NA
ATOM     17  O   UNL d   1      52.653  31.278  52.433  0.00  0.00    -0.265 OA
BRANCH  16  18
ATOM     18  C   UNL d   1      53.028  30.099  53.515  0.00  0.00     0.102 C 
BRANCH  18  19
ATOM     19  C   UNL d   1      53.186  29.510  54.075  0.00  0.00     0.019 A 
ATOM     20  C   UNL d   1      52.939  29.616  54.850  0.00  0.00     0.002 A 
ATOM     21  C   UNL d   1      53.093  29.035  55.410  0.00  0.00     0.000 A 
ATOM     22  C   UNL d   1      53.493  28.348  55.197  0.00  0.00     0.000 A 
ATOM     23  C   UNL d   1      53.742  28.247  54.406  0.00  0.00     0.000 A 
ATOM     24  C   UNL d   1      53.585  28.831  53.854  0.00  0.00     0.002 A 
ENDBRANCH  18  19
ENDBRANCH  16  18
ENDBRANCH  14  15
ENDBRANCH   1  14
TORSDOF 4
ENDMDL
MODEL 4
REMARK VINA RESULT:      -8.9      1.978      4.872
REMARK  4 active torsions:
REMARK  status: ('A' for Active; 'I' for Inactive)
REMARK    1  A    between atoms: C_7  and  C_1 
REMARK    2  A    between atoms: C_8  and  C_7 
REMARK       I    between atoms: N_9  and  C_8 
REMARK    3  A    between atoms: C_14  and  N_9 
REMARK    4  A    between atoms: C_15  and  C_14 
ROOT
ATOM      1  C   UNL d   1      53.696  33.519  53.789  0.00  0.00     0.032 A 
ATOM      2  C   UNL d   1      53.109  34.097  53.862  0.00  0.00     0.025 A 
ATOM      3  C   UNL d   1      54.319  33.603  54.322  0.00  0.00     0.123 A 
ATOM      4  O   UNL d   1      54.052  34.354  54.780  0.00  0.00    -0.305 OA
ATOM      5  C   UNL d   1      52.401  34.227  53.454  0.00  0.00     0.002 A 
ATOM      6  C   UNL d   1      53.329  34.612  54.473  0.00  0.00     0.100 A 
ATOM      7  C   UNL d   1      51.916  34.860  53.649  0.00  0.00     0.000 A 
ATOM      8  C   UNL d   1      52.838  35.251  54.670  0.00  0.00     0.025 A 
ATOM      9  C   UNL d   1      52.135  35.374  54.260  0.00  0.00     0.002 A 
ATOM     10  C   UNL d   1      52.182  33.715  52.847  0.00  0.00     0.000 A 
ATOM     11  C   UNL d   1      51.221  34.980  53.244  0.00  0.00     0.000 A 
ATOM     12  C   UNL d   1      51.480  33.838  52.437  0.00  0.00     0.000 A 
ATOM     13  C   UNL d   1      50.999  34.480  52.644  0.00  0.00     0.000 A 
ENDROOT
BRANCH   1  14
ATOM     14  C   UNL d   1      53.699  32.895  53.247  0.00  0.00     0.065 C 
BRANCH  14  15
ATOM     15  C   UNL d   1      54.074  32.183  53.435  0.00  0.00     0.279 C 
ATOM     16  N   UNL d   1      53.632  31.490  53.506  0.00  0.00    -0.206 NA
ATOM     17  O   UNL d   1      54.884  32.162  53.553  0.00  0.00    -0.265 OA
BRANCH  16  18
ATOM     18  C   UNL d   1      53.997  30.785  53.692  0.00  0.00     0.102 C 
BRANCH  18  19
ATOM     19  C   UNL d   1      53.551  30.097  53.810  0.00  0.00     0.019 A 
ATOM     20  C   UNL d   1      53.715  29.618  54.454  0.00  0.00     0.002 A 
ATOM     21  C   UNL d   1      53.275  28.934  54.576  0.00  0.00     0.000 A 
ATOM     22  C   UNL d   1      52.672  28.730  54.054  0.00  0.00     0.000 A 
ATOM     23  C   UNL d   1      52.511  29.224  53.401  0.00  0.00     0.000 A 
ATOM     24  C   UNL d   1      52.954  29.903  53.286  0.00  0.00     0.002 A 
ENDBRANCH  18  19
ENDBRANCH  16  18
ENDBRANCH  14  15
ENDBRANCH   1  14
TORSDOF 4
ENDMDL
MODEL 5
REMARK VINA RESULT:      -8.3      1.200      5.476
REMARK  4 active torsions:
REMARK  status: ('A' for Active; 'I' for Inactive)
REMARK    1  A    between atoms: C_7  and  C_1 
REMARK    2  A    between atoms: C_8  and  C_7 
REMARK       I    between atoms: N_9  and  C_8 
REMARK    3  A    between atoms: C_14  and  N_9 
REMARK    4  A    between atoms: C_15  and  C_14 
ROOT
ATOM      1  C   UNL d   1      48.785  34.895  51.875  0.00  0.00     0.032 A 
ATOM      2  C   UNL d   1      48.077  35.317  51.947  0.00  0.00     0.025 A 
ATOM      3  C   UNL d   1      48.868  34.498  51.157  0.00  0.00     0.123 A 
ATOM      4  O   UNL d   1      48.080  34.726  50.744  0.00  0.00    -0.305 OA
ATOM      5  C   UNL d   1      47.766  35.785  52.555  0.00  0.00     0.002 A 
ATOM      6  C   UNL d   1      47.642  35.213  51.250  0.00  0.00     0.100 A 
ATOM      7  C   UNL d   1      47.033  36.145  52.473  0.00  0.00     0.000 A 
ATOM      8  C   UNL d   1      46.902  35.577  51.167  0.00  0.00     0.025 A 
ATOM      9  C   UNL d   1      46.599  36.041  51.776  0.00  0.00     0.002 A 
ATOM     10  C   UNL d   1      48.198  35.888  53.249  0.00  0.00     0.000 A 
ATOM     11  C   UNL d   1      46.735  36.603  53.075  0.00  0.00     0.000 A 
ATOM     12  C   UNL d   1      47.896  36.352  53.857  0.00  0.00     0.000 A 
ATOM     13  C   UNL d   1      47.155  36.709  53.762  0.00  0.00     0.000 A 
ENDROOT
BRANCH   1  14
ATOM     14  C   UNL d   1      49.382  34.847  52.445  0.00  0.00     0.065 C 
BRANCH  14  15
ATOM     15  C   UNL d   1      50.101  34.483  52.262  0.00  0.00     0.279 C 
ATOM     16  N   UNL d   1      50.715  34.484  52.813  0.00  0.00    -0.206 NA
ATOM     17  O   UNL d   1      50.207  34.120  51.536  0.00  0.00    -0.265 OA
BRANCH  16  18
ATOM     18  C   UNL d   1      51.427  34.126  52.637  0.00  0.00     0.102 C 
BRANCH  18  19
ATOM     19  C   UNL d   1      52.051  34.138  53.182  0.00  0.00     0.019 A 
ATOM     20  C   UNL d   1      52.283  33.439  53.541  0.00  0.00     0.002 A 
ATOM     21  C   UNL d   1      52.902  33.445  54.083  0.00  0.00     0.000 A 
ATOM     22  C   UNL d   1      53.287  34.150  54.266  0.00  0.00     0.000 A 
ATOM     23  C   UNL d   1      53.043  34.857  53.896  0.00  0.00     0.000 A 
ATOM     24  C   UNL d   1      52.427  34.843  53.357  0.00  0.00     0.002 A 
ENDBRANCH  18  19
ENDBRANCH  16  18
ENDBRANCH  14  15
ENDBRANCH   1  14
TORSDOF 4
ENDMDL
