MODEL 1
REMARK VINA RESULT:      -3.4      0.000      0.000
REMARK  3 active torsions:
REMARK  status: ('A' for Active; 'I' for Inactive)
REMARK    1  A    between atoms: N_4  and  C_2 
REMARK    2  A    between atoms: C_9  and  C_3 
REMARK       I    between atoms: C_7  and  N_4 
REMARK    3  A    between atoms: C_8  and  C_7 
ROOT
ATOM      1  N   UNL d   1      32.943  19.458 -22.410  0.00  0.00    -0.051 NA
ATOM      2  C   UNL d   1      33.140  20.253 -22.456  0.00  0.00     0.760 A 
ATOM      3  C   UNL d   1      32.922  19.154 -23.176  0.00  0.00     0.147 A 
ATOM      4  N   UNL d   1      33.241  20.446 -23.251  0.00  0.00    -0.019 NA
ATOM      5  S   UNL d   1      33.107  19.770 -23.699  0.00  0.00     0.052 SA
ENDROOT
BRANCH   2   6
ATOM      6  N   UNL d   1      33.241  20.835 -21.869  0.00  0.00    -0.018 NA
ATOM      7  C   UNL d   1      32.596  21.080 -21.419  0.00  0.00     0.295 C 
ATOM      8  O   UNL d   1      31.852  20.748 -21.548  0.00  0.00    -0.265 OA
BRANCH   7   9
ATOM      9  C   UNL d   1      32.697  21.655 -20.839  0.00  0.00     0.059 A 
ATOM     10  C   UNL d   1      33.137  21.484 -20.164  0.00  0.00     0.007 A 
ATOM     11  C   UNL d   1      33.234  22.066 -19.585  0.00  0.00     0.030 A 
ATOM     12  C   UNL d   1      32.896  22.813 -19.679  0.00  0.00     0.140 A 
ATOM     13  C   UNL d   1      32.457  22.985 -20.354  0.00  0.00     0.030 A 
ATOM     14  F   UNL d   1      33.003  23.382 -19.094  0.00  0.00    -0.204 F 
ATOM     15  C   UNL d   1      32.355  22.409 -20.934  0.00  0.00     0.007 A 
ENDBRANCH   7   9
ENDBRANCH   2   6
BRANCH   3  16
ATOM     16  C   UNL d   1      32.747  18.380 -23.386  0.00  0.00     0.026 A 
ATOM     17  C   UNL d   1      33.218  17.758 -23.113  0.00  0.00     0.002 A 
ATOM     18  C   UNL d   1      33.043  16.980 -23.324  0.00  0.00     0.000 A 
ATOM     19  C   UNL d   1      32.394  16.825 -23.810  0.00  0.00     0.000 A 
ATOM     20  C   UNL d   1      31.923  17.437 -24.084  0.00  0.00     0.000 A 
ATOM     21  C   UNL d   1      32.098  18.216 -23.873  0.00  0.00     0.002 A 
ENDBRANCH   3  16
TORSDOF 3
ENDMDL
MODEL 2
REMARK VINA RESULT:      -2.7      1.089      1.641
REMARK  3 active torsions:
REMARK  status: ('A' for Active; 'I' for Inactive)
REMARK    1  A    between atoms: N_4  and  C_2 
REMARK    2  A    between atoms: C_9  and  C_3 
REMARK       I    between atoms: C_7  and  N_4 
REMARK    3  A    between atoms: C_8  and  C_7 
ROOT
ATOM      1  N   UNL d   1      32.254  18.552 -23.345  0.00  0.00    -0.051 NA
ATOM      2  C   UNL d   1      32.743  19.207 -23.421  0.00  0.00     0.760 A 
ATOM      3  C   UNL d   1      32.447  18.017 -23.943  0.00  0.00     0.147 A 
ATOM      4  N   UNL d   1      33.241  19.080 -24.066  0.00  0.00    -0.019 NA
ATOM      5  S   UNL d   1      33.061  18.348 -24.392  0.00  0.00     0.052 SA
ENDROOT
BRANCH   2   6
ATOM      6  N   UNL d   1      32.801  19.910 -22.981  0.00  0.00    -0.018 NA
ATOM      7  C   UNL d   1      33.011  19.880 -22.184  0.00  0.00     0.295 C 
ATOM      8  O   UNL d   1      33.162  19.153 -21.824  0.00  0.00    -0.265 OA
BRANCH   7   9
ATOM      9  C   UNL d   1      33.068  20.576 -21.749  0.00  0.00     0.059 A 
ATOM     10  C   UNL d   1      33.149  21.297 -22.140  0.00  0.00     0.007 A 
ATOM     11  C   UNL d   1      33.206  21.994 -21.697  0.00  0.00     0.030 A 
ATOM     12  C   UNL d   1      33.183  21.970 -20.873  0.00  0.00     0.140 A 
ATOM     13  C   UNL d   1      33.103  21.250 -20.482  0.00  0.00     0.030 A 
ATOM     14  F   UNL d   1      33.241  22.672 -20.447  0.00  0.00    -0.204 F 
ATOM     15  C   UNL d   1      33.045  20.552 -20.917  0.00  0.00     0.007 A 
ENDBRANCH   7   9
ENDBRANCH   2   6
BRANCH   3  16
ATOM     16  C   UNL d   1      32.094  17.288 -24.073  0.00  0.00     0.026 A 
ATOM     17  C   UNL d   1      32.557  16.608 -24.151  0.00  0.00     0.002 A 
ATOM     18  C   UNL d   1      32.202  15.875 -24.282  0.00  0.00     0.000 A 
ATOM     19  C   UNL d   1      31.380  15.823 -24.333  0.00  0.00     0.000 A 
ATOM     20  C   UNL d   1      30.914  16.494 -24.256  0.00  0.00     0.000 A 
ATOM     21  C   UNL d   1      31.269  17.227 -24.126  0.00  0.00     0.002 A 
ENDBRANCH   3  16
TORSDOF 3
ENDMDL
MODEL 3
REMARK VINA RESULT:      -2.4      2.195      5.265
REMARK  3 active torsions:
REMARK  status: ('A' for Active; 'I' for Inactive)
REMARK    1  A    between atoms: N_4  and  C_2 
REMARK    2  A    between atoms: C_9  and  C_3 
REMARK       I    between atoms: C_7  and  N_4 
REMARK    3  A    between atoms: C_8  and  C_7 
ROOT
ATOM      1  N   UNL d   1      32.981  21.908 -19.990  0.00  0.00    -0.051 NA
ATOM      2  C   UNL d   1      33.128  21.921 -20.797  0.00  0.00     0.760 A 
ATOM      3  C   UNL d   1      32.920  22.687 -19.727  0.00  0.00     0.147 A 
ATOM      4  N   UNL d   1      33.159  22.709 -21.038  0.00  0.00    -0.019 NA
ATOM      5  S   UNL d   1      33.031  23.185 -20.381  0.00  0.00     0.052 SA
ENDROOT
BRANCH   2   6
ATOM      6  N   UNL d   1      33.240  21.310 -21.351  0.00  0.00    -0.018 NA
ATOM      7  C   UNL d   1      32.640  20.761 -21.483  0.00  0.00     0.295 C 
ATOM      8  O   UNL d   1      31.930  20.817 -21.067  0.00  0.00    -0.265 OA
BRANCH   7   9
ATOM      9  C   UNL d   1      32.751  20.158 -22.032  0.00  0.00     0.059 A 
ATOM     10  C   UNL d   1      33.082  19.442 -21.792  0.00  0.00     0.007 A 
ATOM     11  C   UNL d   1      33.191  18.840 -22.348  0.00  0.00     0.030 A 
ATOM     12  C   UNL d   1      32.972  18.951 -23.135  0.00  0.00     0.140 A 
ATOM     13  C   UNL d   1      32.641  19.665 -23.375  0.00  0.00     0.030 A 
ATOM     14  F   UNL d   1      33.087  18.341 -23.676  0.00  0.00    -0.204 F 
ATOM     15  C   UNL d   1      32.529  20.270 -22.827  0.00  0.00     0.007 A 
ENDBRANCH   7   9
ENDBRANCH   2   6
BRANCH   3  16
ATOM     16  C   UNL d   1      32.775  22.929 -18.956  0.00  0.00     0.026 A 
ATOM     17  C   UNL d   1      32.163  23.460 -18.794  0.00  0.00     0.002 A 
ATOM     18  C   UNL d   1      32.017  23.702 -18.019  0.00  0.00     0.000 A 
ATOM     19  C   UNL d   1      32.486  23.412 -17.405  0.00  0.00     0.000 A 
ATOM     20  C   UNL d   1      33.095  22.884 -17.559  0.00  0.00     0.000 A 
ATOM     21  C   UNL d   1      33.241  22.642 -18.334  0.00  0.00     0.002 A 
ENDBRANCH   3  16
TORSDOF 3
ENDMDL
MODEL 4
REMARK VINA RESULT:      -1.6      3.588      5.589
REMARK  3 active torsions:
REMARK  status: ('A' for Active; 'I' for Inactive)
REMARK    1  A    between atoms: N_4  and  C_2 
REMARK    2  A    between atoms: C_9  and  C_3 
REMARK       I    between atoms: C_7  and  N_4 
REMARK    3  A    between atoms: C_8  and  C_7 
ROOT
ATOM      1  N   UNL d   1      32.749  23.452 -19.741  0.00  0.00    -0.051 NA
ATOM      2  C   UNL d   1      32.989  23.018 -20.394  0.00  0.00     0.760 A 
ATOM      3  C   UNL d   1      32.832  22.976 -19.072  0.00  0.00     0.147 A 
ATOM      4  N   UNL d   1      33.222  22.271 -20.133  0.00  0.00    -0.019 NA
ATOM      5  S   UNL d   1      33.127  22.242 -19.317  0.00  0.00     0.052 SA
ENDROOT
BRANCH   2   6
ATOM      6  N   UNL d   1      33.026  23.207 -21.204  0.00  0.00    -0.018 NA
ATOM      7  C   UNL d   1      32.647  22.726 -21.755  0.00  0.00     0.295 C 
ATOM      8  O   UNL d   1      32.232  22.058 -21.505  0.00  0.00    -0.265 OA
BRANCH   7   9
ATOM      9  C   UNL d   1      32.684  22.913 -22.555  0.00  0.00     0.059 A 
ATOM     10  C   UNL d   1      32.211  23.517 -22.857  0.00  0.00     0.007 A 
ATOM     11  C   UNL d   1      32.253  23.701 -23.662  0.00  0.00     0.030 A 
ATOM     12  C   UNL d   1      32.762  23.285 -24.162  0.00  0.00     0.140 A 
ATOM     13  C   UNL d   1      33.235  22.682 -23.861  0.00  0.00     0.030 A 
ATOM     14  F   UNL d   1      32.792  23.480 -24.961  0.00  0.00    -0.204 F 
ATOM     15  C   UNL d   1      33.198  22.494 -23.060  0.00  0.00     0.007 A 
ENDBRANCH   7   9
ENDBRANCH   2   6
BRANCH   3  16
ATOM     16  C   UNL d   1      32.655  23.191 -18.299  0.00  0.00     0.026 A 
ATOM     17  C   UNL d   1      33.239  23.168 -17.716  0.00  0.00     0.002 A 
ATOM     18  C   UNL d   1      33.061  23.384 -16.940  0.00  0.00     0.000 A 
ATOM     19  C   UNL d   1      32.296  23.624 -16.748  0.00  0.00     0.000 A 
ATOM     20  C   UNL d   1      31.711  23.649 -17.323  0.00  0.00     0.000 A 
ATOM     21  C   UNL d   1      31.888  23.434 -18.099  0.00  0.00     0.002 A 
ENDBRANCH   3  16
TORSDOF 3
ENDMDL
