MODEL 1
REMARK VINA RESULT:      -6.0      0.000      0.000
REMARK  3 active torsions:
REMARK  status: ('A' for Active; 'I' for Inactive)
REMARK    1  A    between atoms: C_4  and  C_8 
REMARK    2  A    between atoms: N_13  and  C_7 
REMARK       I    between atoms: C_8  and  N_12 
REMARK    3  A    between atoms: N_12  and  N_13 
ROOT
ATOM      1  C   UNL d   1      56.468  -0.948  32.010  0.00  0.00     0.297 C 
ATOM      2  N   UNL d   1      56.996  -0.543  31.515  0.00  0.00    -0.104 NA
ATOM      3  O   UNL d   1      56.362  -1.765  31.915  0.00  0.00    -0.264 OA
ENDROOT
BRANCH   2   4
ATOM      4  N   UNL d   1      57.413  -0.948  30.935  0.00  0.00    -0.125 NA
BRANCH   4   5
ATOM      5  C   UNL d   1      57.983  -0.555  30.485  0.00  0.00     0.190 A 
ATOM      6  C   UNL d   1      58.434  -0.972  29.944  0.00  0.00     0.094 A 
ATOM      7  C   UNL d   1      59.004  -0.580  29.494  0.00  0.00     0.170 A 
ATOM      8  C   UNL d   1      58.439  -1.775  29.733  0.00  0.00     0.127 A 
ATOM      9  N   UNL d   1      59.366  -1.141  29.001  0.00  0.00    -0.209 N 
ATOM     10  N   UNL d   1      59.120   0.227  29.588  0.00  0.00    -0.205 NA
ATOM     11  C   UNL d   1      59.973  -0.985  28.455  0.00  0.00     0.123 C 
ATOM     12  N   UNL d   1      59.018  -1.876  29.148  0.00  0.00    -0.162 NA
ATOM     13  C   UNL d   1      58.667   0.643  30.133  0.00  0.00     0.202 A 
ATOM     14  N   UNL d   1      58.094   0.248  30.584  0.00  0.00    -0.203 NA
ENDBRANCH   4   5
ENDBRANCH   2   4
BRANCH   1  15
ATOM     15  C   UNL d   1      56.048  -0.544  32.594  0.00  0.00     0.070 A 
ATOM     16  C   UNL d   1      55.751  -0.949  33.241  0.00  0.00     0.063 A 
ATOM     17  C   UNL d   1      55.332  -0.549  33.825  0.00  0.00     0.023 A 
ATOM     18 CL   UNL d   1      55.877  -1.766  33.302  0.00  0.00    -0.082 Cl
ATOM     19  C   UNL d   1      55.210   0.273  33.756  0.00  0.00     0.059 A 
ATOM     20  C   UNL d   1      55.512   0.682  33.099  0.00  0.00     0.012 A 
ATOM     21 CL   UNL d   1      54.788   0.681  34.343  0.00  0.00    -0.082 Cl
ATOM     22  C   UNL d   1      55.929   0.274  32.522  0.00  0.00     0.007 A 
ENDBRANCH   1  15
TORSDOF 3
ENDMDL
MODEL 2
REMARK VINA RESULT:      -4.8      2.321      4.878
REMARK  3 active torsions:
REMARK  status: ('A' for Active; 'I' for Inactive)
REMARK    1  A    between atoms: C_4  and  C_8 
REMARK    2  A    between atoms: N_13  and  C_7 
REMARK       I    between atoms: C_8  and  N_12 
REMARK    3  A    between atoms: N_12  and  N_13 
ROOT
ATOM      1  C   UNL d   1      57.994   0.297  30.468  0.00  0.00     0.297 C 
ATOM      2  N   UNL d   1      57.941   0.298  31.296  0.00  0.00    -0.104 NA
ATOM      3  O   UNL d   1      57.328   0.494  30.016  0.00  0.00    -0.264 OA
ENDROOT
BRANCH   2   4
ATOM      4  N   UNL d   1      57.235   0.492  31.666  0.00  0.00    -0.125 NA
BRANCH   4   5
ATOM      5  C   UNL d   1      57.202   0.556  32.489  0.00  0.00     0.190 A 
ATOM      6  C   UNL d   1      56.477   0.556  32.869  0.00  0.00     0.094 A 
ATOM      7  C   UNL d   1      56.444   0.619  33.691  0.00  0.00     0.170 A 
ATOM      8  C   UNL d   1      55.701   0.502  32.578  0.00  0.00     0.127 A 
ATOM      9  N   UNL d   1      55.644   0.605  33.913  0.00  0.00    -0.209 N 
ATOM     10  N   UNL d   1      57.136   0.682  34.129  0.00  0.00    -0.205 NA
ATOM     11  C   UNL d   1      55.358   0.654  34.692  0.00  0.00     0.123 C 
ATOM     12  N   UNL d   1      55.188   0.532  33.228  0.00  0.00    -0.162 NA
ATOM     13  C   UNL d   1      57.862   0.681  33.744  0.00  0.00     0.202 A 
ATOM     14  N   UNL d   1      57.894   0.617  32.918  0.00  0.00    -0.203 NA
ENDBRANCH   4   5
ENDBRANCH   2   4
BRANCH   1  15
ATOM     15  C   UNL d   1      58.703   0.102  30.094  0.00  0.00     0.070 A 
ATOM     16  C   UNL d   1      58.787  -0.626  29.728  0.00  0.00     0.063 A 
ATOM     17  C   UNL d   1      59.493  -0.824  29.354  0.00  0.00     0.023 A 
ATOM     18 CL   UNL d   1      58.154  -1.161  29.737  0.00  0.00    -0.082 Cl
ATOM     19  C   UNL d   1      60.124  -0.280  29.349  0.00  0.00     0.059 A 
ATOM     20  C   UNL d   1      60.037   0.458  29.722  0.00  0.00     0.012 A 
ATOM     21 CL   UNL d   1      60.838  -0.476  28.974  0.00  0.00    -0.082 Cl
ATOM     22  C   UNL d   1      59.329   0.645  30.092  0.00  0.00     0.007 A 
ENDBRANCH   1  15
TORSDOF 3
ENDMDL
MODEL 3
REMARK VINA RESULT:      -4.7      2.199      4.902
REMARK  3 active torsions:
REMARK  status: ('A' for Active; 'I' for Inactive)
REMARK    1  A    between atoms: C_4  and  C_8 
REMARK    2  A    between atoms: N_13  and  C_7 
REMARK       I    between atoms: C_8  and  N_12 
REMARK    3  A    between atoms: N_12  and  N_13 
ROOT
ATOM      1  C   UNL d   1      57.998  -0.317  30.213  0.00  0.00     0.297 C 
ATOM      2  N   UNL d   1      57.674  -0.607  30.920  0.00  0.00    -0.104 NA
ATOM      3  O   UNL d   1      57.684   0.369  29.870  0.00  0.00    -0.264 OA
ENDROOT
BRANCH   2   4
ATOM      4  N   UNL d   1      57.046  -0.218  31.278  0.00  0.00    -0.125 NA
BRANCH   4   5
ATOM      5  C   UNL d   1      56.634  -0.579  31.896  0.00  0.00     0.190 A 
ATOM      6  C   UNL d   1      56.525  -0.179  32.602  0.00  0.00     0.094 A 
ATOM      7  C   UNL d   1      56.114  -0.539  33.220  0.00  0.00     0.170 A 
ATOM      8  C   UNL d   1      56.762   0.577  32.850  0.00  0.00     0.127 A 
ATOM      9  N   UNL d   1      56.094  -0.005  33.855  0.00  0.00    -0.209 N 
ATOM     10  N   UNL d   1      55.813  -1.298  33.128  0.00  0.00    -0.205 NA
ATOM     11  C   UNL d   1      55.734  -0.143  34.591  0.00  0.00     0.123 C 
ATOM     12  N   UNL d   1      56.493   0.681  33.627  0.00  0.00    -0.162 NA
ATOM     13  C   UNL d   1      55.923  -1.696  32.419  0.00  0.00     0.202 A 
ATOM     14  N   UNL d   1      56.337  -1.334  31.798  0.00  0.00    -0.203 NA
ENDBRANCH   4   5
ENDBRANCH   2   4
BRANCH   1  15
ATOM     15  C   UNL d   1      58.629  -0.706  29.852  0.00  0.00     0.070 A 
ATOM     16  C   UNL d   1      59.354  -0.331  29.777  0.00  0.00     0.063 A 
ATOM     17  C   UNL d   1      59.985  -0.716  29.417  0.00  0.00     0.023 A 
ATOM     18 CL   UNL d   1      59.444   0.441  30.066  0.00  0.00    -0.082 Cl
ATOM     19  C   UNL d   1      59.886  -1.491  29.128  0.00  0.00     0.059 A 
ATOM     20  C   UNL d   1      59.150  -1.870  29.206  0.00  0.00     0.012 A 
ATOM     21 CL   UNL d   1      60.521  -1.884  28.764  0.00  0.00    -0.082 Cl
ATOM     22  C   UNL d   1      58.527  -1.478  29.566  0.00  0.00     0.007 A 
ENDBRANCH   1  15
TORSDOF 3
ENDMDL
MODEL 4
REMARK VINA RESULT:      -3.6      0.906      1.032
REMARK  3 active torsions:
REMARK  status: ('A' for Active; 'I' for Inactive)
REMARK    1  A    between atoms: C_4  and  C_8 
REMARK    2  A    between atoms: N_13  and  C_7 
REMARK       I    between atoms: C_8  and  N_12 
REMARK    3  A    between atoms: N_12  and  N_13 
ROOT
ATOM      1  C   UNL d   1      57.212  -0.856  31.399  0.00  0.00     0.297 C 
ATOM      2  N   UNL d   1      57.623  -0.381  30.856  0.00  0.00    -0.104 NA
ATOM      3  O   UNL d   1      57.150  -1.672  31.263  0.00  0.00    -0.264 OA
ENDROOT
BRANCH   2   4
ATOM      4  N   UNL d   1      57.966  -0.715  30.189  0.00  0.00    -0.125 NA
BRANCH   4   5
ATOM      5  C   UNL d   1      58.679  -0.420  29.898  0.00  0.00     0.190 A 
ATOM      6  C   UNL d   1      59.226  -0.929  29.564  0.00  0.00     0.094 A 
ATOM      7  C   UNL d   1      59.940  -0.634  29.273  0.00  0.00     0.170 A 
ATOM      8  C   UNL d   1      59.214  -1.751  29.446  0.00  0.00     0.127 A 
ATOM      9  N   UNL d   1      60.374  -1.274  28.973  0.00  0.00    -0.209 N 
ATOM     10  N   UNL d   1      60.103   0.170  29.318  0.00  0.00    -0.205 NA
ATOM     11  C   UNL d   1      61.128  -1.226  28.625  0.00  0.00     0.123 C 
ATOM     12  N   UNL d   1      59.927  -1.961  29.079  0.00  0.00    -0.162 NA
ATOM     13  C   UNL d   1      59.552   0.679  29.654  0.00  0.00     0.202 A 
ATOM     14  N   UNL d   1      58.835   0.381  29.946  0.00  0.00    -0.203 NA
ENDBRANCH   4   5
ENDBRANCH   2   4
BRANCH   1  15
ATOM     15  C   UNL d   1      56.867  -0.523  32.069  0.00  0.00     0.070 A 
ATOM     16  C   UNL d   1      56.198  -0.862  32.398  0.00  0.00     0.063 A 
ATOM     17  C   UNL d   1      55.851  -0.531  33.067  0.00  0.00     0.023 A 
ATOM     18 CL   UNL d   1      55.874  -1.541  32.051  0.00  0.00    -0.082 Cl
ATOM     19  C   UNL d   1      56.184   0.151  33.410  0.00  0.00     0.059 A 
ATOM     20  C   UNL d   1      56.863   0.494  33.075  0.00  0.00     0.012 A 
ATOM     21 CL   UNL d   1      55.837   0.488  34.086  0.00  0.00    -0.082 Cl
ATOM     22  C   UNL d   1      57.201   0.157  32.408  0.00  0.00     0.007 A 
ENDBRANCH   1  15
TORSDOF 3
ENDMDL
