MODEL 1
REMARK VINA RESULT:      -2.4      0.000      0.000
REMARK  5 active torsions:
REMARK  status: ('A' for Active; 'I' for Inactive)
REMARK    1  A    between atoms: C_11  and  N_4 
REMARK    2  A    between atoms: C_12  and  N_10 
REMARK    3  A    between atoms: C_14  and  C_11 
REMARK    4  A    between atoms: O_26  and  C_13 
REMARK    5  A    between atoms: O_28  and  C_24 
ROOT
ATOM      1  C   UNL d   1      33.084  19.755 -22.312  0.00  0.00     0.191 A 
ATOM      2  C   UNL d   1      33.137  20.063 -23.076  0.00  0.00     0.173 A 
ATOM      3  C   UNL d   1      33.073  21.233 -22.147  0.00  0.00     0.722 A 
ATOM      4  N   UNL d   1      33.174  18.748 -23.605  0.00  0.00    -0.224 N 
ATOM      5  N   UNL d   1      33.048  20.373 -21.782  0.00  0.00    -0.042 NA
ATOM      6  N   UNL d   1      33.133  20.867 -23.005  0.00  0.00    -0.132 N 
ATOM      7  N   UNL d   1      33.074  18.944 -22.179  0.00  0.00    -0.240 N 
ATOM      8  C   UNL d   1      33.120  18.439 -22.841  0.00  0.00     0.343 A 
ATOM      9  C   UNL d   1      33.181  19.561 -23.707  0.00  0.00     0.288 A 
ATOM     10  N   UNL d   1      33.070  22.041 -22.089  0.00  0.00    -0.138 N 
ATOM     11  C   UNL d   1      33.176  21.385 -23.626  0.00  0.00     0.100 A 
ATOM     12  C   UNL d   1      33.116  22.543 -22.747  0.00  0.00     0.100 A 
ATOM     13  O   UNL d   1      33.111  17.616 -22.713  0.00  0.00    -0.245 OA
ATOM     14  O   UNL d   1      33.235  19.870 -24.473  0.00  0.00    -0.265 OA
ATOM     15  C   UNL d   1      33.170  22.208 -23.533  0.00  0.00     0.036 A 
ATOM     16  C   UNL d   1      33.021  18.635 -21.414  0.00  0.00     0.105 C 
ATOM     17  C   UNL d   1      33.217  22.700 -24.199  0.00  0.00     0.003 C 
ENDROOT
BRANCH  10  18
ATOM     18  C   UNL d   1      33.017  22.356 -21.326  0.00  0.00     0.104 A 
ATOM     19  C   UNL d   1      32.732  23.122 -21.217  0.00  0.00     0.113 A 
ATOM     20  C   UNL d   1      32.666  23.463 -20.487  0.00  0.00     0.050 A 
ATOM     21  C   UNL d   1      32.893  23.031 -19.809  0.00  0.00     0.096 A 
ATOM     22  C   UNL d   1      33.184  22.249 -19.910  0.00  0.00     0.026 A 
ATOM     23  C   UNL d   1      33.240  21.928 -20.660  0.00  0.00     0.022 A 
BRANCH  19  24
ATOM     24  O   UNL d   1      32.505  23.561 -21.877  0.00  0.00    -0.327 OA
ATOM     25  C   UNL d   1      31.715  23.691 -22.015  0.00  0.00     0.181 C 
ENDBRANCH  19  24
BRANCH  21  26
ATOM     26  O   UNL d   1      32.835  23.358 -19.040  0.00  0.00    -0.328 OA
ATOM     27  C   UNL d   1      33.224  22.999 -18.405  0.00  0.00     0.181 C 
ENDBRANCH  21  26
ENDBRANCH  10  18
BRANCH   4  28
ATOM     28  C   UNL d   1      33.195  17.982 -23.913  0.00  0.00     0.090 C 
BRANCH  28  29
ATOM     29  C   UNL d   1      32.536  17.678 -24.309  0.00  0.00     0.045 A 
ATOM     30  C   UNL d   1      32.559  16.912 -24.597  0.00  0.00     0.141 A 
ATOM     31  F   UNL d   1      33.233  16.449 -24.493  0.00  0.00    -0.204 F 
ATOM     32  C   UNL d   1      31.905  16.608 -24.991  0.00  0.00     0.030 A 
ATOM     33  C   UNL d   1      31.231  17.067 -25.097  0.00  0.00     0.002 A 
ATOM     34  C   UNL d   1      31.216  17.840 -24.803  0.00  0.00     0.000 A 
ATOM     35  C   UNL d   1      31.871  18.144 -24.408  0.00  0.00     0.004 A 
ENDBRANCH  28  29
ENDBRANCH   4  28
TORSDOF 5
ENDMDL
