MODEL 1
REMARK VINA RESULT:      30.0      0.000      0.000
REMARK  9 active torsions:
REMARK  status: ('A' for Active; 'I' for Inactive)
REMARK    1  A    between atoms: C_27  and  N_1 
REMARK    2  A    between atoms: S_11  and  C_2 
REMARK    3  A    between atoms: C_28  and  S_11 
REMARK    4  A    between atoms: C_18  and  C_28 
REMARK    5  A    between atoms: C_19  and  C_35 
REMARK       I    between atoms: N_23  and  C_19 
REMARK    6  A    between atoms: C_32  and  N_23 
REMARK    7  A    between atoms: C_34  and  C_27 
REMARK    8  A    between atoms: C_30  and  C_32 
REMARK    9  A    between atoms: C_35  and  C_34 
ROOT
ATOM      1  N   UNL d   1     -42.597-122.016 -53.251  0.00  0.00    -0.253 N 
ATOM      2  C   UNL d   1     -43.370-122.079 -53.528  0.00  0.00     0.182 A 
ATOM      3  C   UNL d   1     -41.978-121.868 -53.787  0.00  0.00     0.268 A 
ATOM      4  C   UNL d   1     -42.135-121.782 -54.592  0.00  0.00     0.076 A 
ATOM      5  N   UNL d   1     -43.512-121.991 -54.337  0.00  0.00    -0.222 NA
ATOM      6  C   UNL d   1     -42.907-121.845 -54.870  0.00  0.00     0.090 A 
ATOM      7  C   UNL d   1     -41.517-121.634 -55.124  0.00  0.00     0.033 A 
ATOM      8  C   UNL d   1     -43.047-121.756 -55.687  0.00  0.00     0.046 A 
ATOM      9  C   UNL d   1     -41.667-121.546 -55.950  0.00  0.00     0.119 A 
ATOM     10  C   UNL d   1     -42.440-121.608 -56.227  0.00  0.00     0.121 A 
ATOM     11  O   UNL d   1     -41.206-121.805 -53.510  0.00  0.00    -0.267 OA
ATOM     12  O   UNL d   1     -41.174-121.396 -56.615  0.00  0.00    -0.300 OA
ATOM     13  O   UNL d   1     -42.413-121.497 -57.054  0.00  0.00    -0.299 OA
ATOM     14  C   UNL d   1     -41.635-121.365 -57.302  0.00  0.00     0.304 A 
ENDROOT
BRANCH   1  15
ATOM     15  C   UNL d   1     -42.447-122.105 -52.426  0.00  0.00     0.085 C 
BRANCH  15  16
ATOM     16  C   UNL d   1     -41.821-121.705 -52.090  0.00  0.00     0.024 C 
BRANCH  16  17
ATOM     17  C   UNL d   1     -41.426-122.040 -51.442  0.00  0.00     0.064 C 
BRANCH  17  18
ATOM     18  C   UNL d   1     -41.228-121.576 -50.792  0.00  0.00     0.279 C 
ATOM     19  N   UNL d   1     -41.134-121.927 -50.050  0.00  0.00    -0.206 NA
ATOM     20  O   UNL d   1     -41.124-120.766 -50.879  0.00  0.00    -0.265 OA
BRANCH  19  21
ATOM     21  C   UNL d   1     -41.237-122.739 -49.961  0.00  0.00     0.102 C 
BRANCH  21  22
ATOM     22  C   UNL d   1     -41.636-123.028 -49.304  0.00  0.00     0.021 A 
ATOM     23  C   UNL d   1     -41.386-122.808 -48.548  0.00  0.00     0.028 A 
ATOM     24  C   UNL d   1     -41.784-123.097 -47.892  0.00  0.00     0.119 A 
ATOM     25  O   UNL d   1     -41.669-122.980 -47.082  0.00  0.00    -0.300 OA
ATOM     26  C   UNL d   1     -42.428-123.601 -47.985  0.00  0.00     0.119 A 
ATOM     27  C   UNL d   1     -42.242-123.414 -46.682  0.00  0.00     0.304 A 
ATOM     28  O   UNL d   1     -42.712-123.798 -47.239  0.00  0.00    -0.300 OA
ATOM     29  C   UNL d   1     -42.672-123.816 -48.745  0.00  0.00     0.026 A 
ATOM     30  C   UNL d   1     -42.277-123.530 -49.398  0.00  0.00     0.004 A 
ENDBRANCH  21  22
ENDBRANCH  19  21
ENDBRANCH  17  18
ENDBRANCH  16  17
ENDBRANCH  15  16
ENDBRANCH   1  15
BRANCH   2  31
ATOM     31  S   UNL d   1     -43.981-122.229 -52.976  0.00  0.00    -0.044 SA
BRANCH  31  32
ATOM     32  C   UNL d   1     -44.537-121.633 -52.814  0.00  0.00     0.102 C 
BRANCH  32  33
ATOM     33  C   UNL d   1     -44.780-121.500 -52.035  0.00  0.00     0.303 C 
ATOM     34  O   UNL d   1     -44.862-122.136 -51.519  0.00  0.00    -0.263 OA
ATOM     35  N   UNL d   1     -44.935-120.733 -51.787  0.00  0.00    -0.102 N 
ENDBRANCH  32  33
ENDBRANCH  31  32
ENDBRANCH   2  31
TORSDOF 9
ENDMDL
MODEL 2
REMARK VINA RESULT:      31.8      2.955      6.312
REMARK  9 active torsions:
REMARK  status: ('A' for Active; 'I' for Inactive)
REMARK    1  A    between atoms: C_27  and  N_1 
REMARK    2  A    between atoms: S_11  and  C_2 
REMARK    3  A    between atoms: C_28  and  S_11 
REMARK    4  A    between atoms: C_18  and  C_28 
REMARK    5  A    between atoms: C_19  and  C_35 
REMARK       I    between atoms: N_23  and  C_19 
REMARK    6  A    between atoms: C_32  and  N_23 
REMARK    7  A    between atoms: C_34  and  C_27 
REMARK    8  A    between atoms: C_30  and  C_32 
REMARK    9  A    between atoms: C_35  and  C_34 
ROOT
ATOM      1  N   UNL d   1     -41.348-121.990 -51.971  0.00  0.00    -0.253 N 
ATOM      2  C   UNL d   1     -41.381-122.791 -52.159  0.00  0.00     0.182 A 
ATOM      3  C   UNL d   1     -41.529-121.740 -51.198  0.00  0.00     0.268 A 
ATOM      4  C   UNL d   1     -41.742-122.291 -50.621  0.00  0.00     0.076 A 
ATOM      5  N   UNL d   1     -41.595-123.330 -51.571  0.00  0.00    -0.222 NA
ATOM      6  C   UNL d   1     -41.774-123.091 -50.809  0.00  0.00     0.090 A 
ATOM      7  C   UNL d   1     -41.922-122.040 -49.852  0.00  0.00     0.033 A 
ATOM      8  C   UNL d   1     -41.991-123.632 -50.212  0.00  0.00     0.046 A 
ATOM      9  C   UNL d   1     -42.140-122.594 -49.255  0.00  0.00     0.119 A 
ATOM     10  C   UNL d   1     -42.173-123.395 -49.443  0.00  0.00     0.121 A 
ATOM     11  O   UNL d   1     -41.497-120.940 -51.011  0.00  0.00    -0.267 OA
ATOM     12  O   UNL d   1     -42.350-122.519 -48.444  0.00  0.00    -0.300 OA
ATOM     13  O   UNL d   1     -42.401-123.800 -48.749  0.00  0.00    -0.299 OA
ATOM     14  C   UNL d   1     -42.513-123.266 -48.127  0.00  0.00     0.304 A 
ENDROOT
BRANCH   1  15
ATOM     15  C   UNL d   1     -41.130-121.436 -52.568  0.00  0.00     0.085 C 
BRANCH  15  16
ATOM     16  C   UNL d   1     -41.688-120.913 -52.849  0.00  0.00     0.024 C 
BRANCH  16  17
ATOM     17  C   UNL d   1     -41.476-120.367 -53.436  0.00  0.00     0.064 C 
BRANCH  17  18
ATOM     18  C   UNL d   1     -41.984-120.215 -54.065  0.00  0.00     0.279 C 
ATOM     19  N   UNL d   1     -42.110-119.437 -54.313  0.00  0.00    -0.206 NA
ATOM     20  O   UNL d   1     -42.366-120.834 -54.446  0.00  0.00    -0.265 OA
BRANCH  19  21
ATOM     21  C   UNL d   1     -41.728-118.815 -53.932  0.00  0.00     0.102 C 
BRANCH  21  22
ATOM     22  C   UNL d   1     -41.971-118.043 -54.070  0.00  0.00     0.021 A 
ATOM     23  C   UNL d   1     -42.777-117.881 -54.154  0.00  0.00     0.028 A 
ATOM     24  C   UNL d   1     -43.020-117.109 -54.292  0.00  0.00     0.119 A 
ATOM     25  O   UNL d   1     -43.769-116.779 -54.398  0.00  0.00    -0.300 OA
ATOM     26  C   UNL d   1     -42.466-116.503 -54.347  0.00  0.00     0.119 A 
ATOM     27  C   UNL d   1     -43.672-115.970 -54.517  0.00  0.00     0.304 A 
ATOM     28  O   UNL d   1     -42.867-115.798 -54.486  0.00  0.00    -0.300 OA
ATOM     29  C   UNL d   1     -41.663-116.674 -54.262  0.00  0.00     0.026 A 
ATOM     30  C   UNL d   1     -41.420-117.440 -54.124  0.00  0.00     0.004 A 
ENDBRANCH  21  22
ENDBRANCH  19  21
ENDBRANCH  17  18
ENDBRANCH  16  17
ENDBRANCH  15  16
ENDBRANCH   1  15
BRANCH   2  31
ATOM     31  S   UNL d   1     -41.195-123.025 -52.941  0.00  0.00    -0.044 SA
BRANCH  31  32
ATOM     32  C   UNL d   1     -41.510-123.735 -53.238  0.00  0.00     0.102 C 
BRANCH  32  33
ATOM     33  C   UNL d   1     -41.718-123.788 -54.037  0.00  0.00     0.303 C 
ATOM     34  O   UNL d   1     -42.512-123.817 -54.250  0.00  0.00    -0.263 OA
ATOM     35  N   UNL d   1     -41.127-123.810 -54.606  0.00  0.00    -0.102 N 
ENDBRANCH  32  33
ENDBRANCH  31  32
ENDBRANCH   2  31
TORSDOF 9
ENDMDL
