MODEL 1
REMARK VINA RESULT:      94.8      0.000      0.000
REMARK  4 active torsions:
REMARK  status: ('A' for Active; 'I' for Inactive)
REMARK    1  A    between atoms: N_10  and  C_3 
REMARK    2  A    between atoms: C_11  and  C_5 
REMARK    3  A    between atoms: C_13  and  N_10 
REMARK    4  A    between atoms: C_19  and  C_13 
ROOT
ATOM      1  N   UNL d   1      60.833  47.725  51.299  0.00  0.00    -0.195 N 
ATOM      2  C   UNL d   1      61.109  47.265  50.650  0.00  0.00     0.167 A 
ATOM      3  C   UNL d   1      60.710  48.541  51.202  0.00  0.00     0.167 A 
ATOM      4  N   UNL d   1      60.811  46.558  52.116  0.00  0.00    -0.163 NA
ATOM      5  C   UNL d   1      61.229  46.469  50.744  0.00  0.00     0.055 A 
ATOM      6  N   UNL d   1      61.252  47.637  49.926  0.00  0.00    -0.227 NA
ATOM      7  C   UNL d   1      60.856  48.893  50.481  0.00  0.00     0.054 A 
ATOM      8  C   UNL d   1      61.082  46.105  51.477  0.00  0.00     0.104 A 
ATOM      9  C   UNL d   1      61.132  48.440  49.827  0.00  0.00     0.086 A 
ATOM     10  C   UNL d   1      60.789  49.662  50.222  0.00  0.00     0.005 A 
ATOM     11  C   UNL d   1      61.206  45.299  51.563  0.00  0.00     0.023 C 
ATOM     12  C   UNL d   1      61.228  48.941  49.182  0.00  0.00     0.019 A 
ATOM     13  C   UNL d   1      61.012  49.707  49.433  0.00  0.00     0.002 A 
ENDROOT
BRANCH   5  14
ATOM     14  C   UNL d   1      61.499  46.018  50.108  0.00  0.00     0.004 A 
ATOM     15  C   UNL d   1      62.272  46.109  49.833  0.00  0.00     0.000 A 
ATOM     16  C   UNL d   1      62.544  45.663  49.201  0.00  0.00     0.000 A 
ATOM     17  C   UNL d   1      62.039  45.117  48.836  0.00  0.00     0.000 A 
ATOM     18  C   UNL d   1      61.275  45.021  49.101  0.00  0.00     0.000 A 
ATOM     19  C   UNL d   1      61.003  45.476  49.743  0.00  0.00     0.000 A 
ENDBRANCH   5  14
BRANCH   3  20
ATOM     20  N   UNL d   1      60.432  49.009  51.855  0.00  0.00    -0.225 NA
BRANCH  20  21
ATOM     21  C   UNL d   1      60.477  49.707  52.327  0.00  0.00     0.101 C 
BRANCH  21  22
ATOM     22  C   UNL d   1      60.288  49.681  53.148  0.00  0.00     0.019 C 
ATOM     23  C   UNL d   1      60.908  49.702  53.727  0.00  0.00     0.002 C 
ATOM     24  C   UNL d   1      59.474  49.634  53.392  0.00  0.00     0.002 C 
ENDBRANCH  21  22
ENDBRANCH  20  21
ENDBRANCH   3  20
TORSDOF 4
ENDMDL
