MODEL 1
REMARK VINA RESULT:      52.3      0.000      0.000
REMARK  4 active torsions:
REMARK  status: ('A' for Active; 'I' for Inactive)
REMARK    1  A    between atoms: C_7  and  C_1 
REMARK    2  A    between atoms: N_8  and  C_7 
REMARK    3  A    between atoms: C_11  and  N_8 
REMARK    4  A    between atoms: O_13  and  C_12 
ROOT
ATOM      1  C   UNL d   1      59.221  49.520  50.699  0.00  0.00     0.145 A 
ATOM      2  C   UNL d   1      59.058  49.615  49.900  0.00  0.00     0.305 A 
ATOM      3  C   UNL d   1      58.600  49.429  51.242  0.00  0.00     0.305 A 
ATOM      4  O   UNL d   1      57.823  49.434  50.979  0.00  0.00    -0.269 OA
ATOM      5  O   UNL d   1      58.284  49.620  49.642  0.00  0.00    -0.269 OA
ATOM      6  C   UNL d   1      57.663  49.528  50.185  0.00  0.00     0.242 A 
ATOM      7  O   UNL d   1      58.766  49.330  52.068  0.00  0.00    -0.259 OA
ATOM      8  O   UNL d   1      59.683  49.707  49.355  0.00  0.00    -0.259 OA
ATOM      9  C   UNL d   1      56.935  49.456  50.549  0.00  0.00     0.035 A 
ATOM     10  C   UNL d   1      57.677  49.633  49.367  0.00  0.00     0.035 A 
ATOM     11  C   UNL d   1      56.986  49.661  48.946  0.00  0.00     0.001 A 
ATOM     12  C   UNL d   1      56.233  49.487  50.108  0.00  0.00     0.001 A 
ATOM     13  C   UNL d   1      56.277  49.591  49.295  0.00  0.00    -0.000 A 
ENDROOT
BRANCH   1  14
ATOM     14  C   UNL d   1      60.021  49.519  50.935  0.00  0.00     0.110 C 
BRANCH  14  15
ATOM     15  N   UNL d   1      60.201  49.628  51.740  0.00  0.00    -0.242 NA
BRANCH  15  16
ATOM     16  C   UNL d   1      60.995  49.617  51.982  0.00  0.00     0.104 A 
ATOM     17  C   UNL d   1      61.179  49.589  52.788  0.00  0.00     0.112 A 
ATOM     18  C   UNL d   1      61.970  49.579  53.032  0.00  0.00     0.026 A 
ATOM     19  C   UNL d   1      62.593  49.596  52.478  0.00  0.00     0.002 A 
ATOM     20  C   UNL d   1      62.377  49.624  51.670  0.00  0.00     0.002 A 
ATOM     21  C   UNL d   1      61.596  49.635  51.425  0.00  0.00     0.021 A 
BRANCH  17  22
ATOM     22  O   UNL d   1      60.566  49.572  53.355  0.00  0.00    -0.327 OA
ATOM     23  C   UNL d   1      60.740  49.664  54.137  0.00  0.00     0.181 C 
ENDBRANCH  17  22
ENDBRANCH  15  16
ENDBRANCH  14  15
ENDBRANCH   1  14
TORSDOF 4
ENDMDL
