MODEL 1
REMARK VINA RESULT:      53.9      0.000      0.000
REMARK  6 active torsions:
REMARK  status: ('A' for Active; 'I' for Inactive)
REMARK       I    between atoms: C_6  and  N_1 
REMARK    1  A    between atoms: C_7  and  C_3 
REMARK    2  A    between atoms: C_8  and  C_4 
REMARK    3  A    between atoms: C_11  and  C_6 
REMARK    4  A    between atoms: C_9  and  C_17 
REMARK    5  A    between atoms: C_17  and  C_11 
REMARK    6  A    between atoms: O_26  and  C_19 
ROOT
ATOM      1  N   UNL d   1     -57.919 -98.818 -43.923  0.00  0.00    -0.195 N 
ATOM      2  N   UNL d   1     -57.984 -98.809 -44.739  0.00  0.00    -0.163 NA
ATOM      3  C   UNL d   1     -58.757 -98.803 -44.955  0.00  0.00     0.103 A 
ATOM      4  C   UNL d   1     -58.674 -98.819 -43.623  0.00  0.00     0.088 A 
ATOM      5  C   UNL d   1     -59.191 -98.810 -44.235  0.00  0.00     0.040 A 
ATOM      6  C   UNL d   1     -57.207 -98.826 -43.496  0.00  0.00     0.281 C 
ATOM      7  O   UNL d   1     -57.244 -98.836 -42.647  0.00  0.00    -0.265 OA
ENDROOT
BRANCH   3   8
ATOM      8  C   UNL d   1     -58.963 -98.794 -45.736  0.00  0.00     0.019 A 
ATOM      9  C   UNL d   1     -58.357 -98.807 -46.311  0.00  0.00     0.004 A 
ATOM     10  C   UNL d   1     -58.561 -98.798 -47.127  0.00  0.00     0.024 A 
ATOM     11  C   UNL d   1     -59.352 -98.775 -47.361  0.00  0.00     0.094 A 
ATOM     12  C   UNL d   1     -59.958 -98.761 -46.786  0.00  0.00     0.024 A 
ATOM     13  C   UNL d   1     -59.753 -98.771 -45.970  0.00  0.00     0.004 A 
BRANCH  11  14
ATOM     14  O   UNL d   1     -59.521 -98.766 -48.169  0.00  0.00    -0.328 OA
ATOM     15  C   UNL d   1     -59.514 -99.466 -48.626  0.00  0.00     0.181 C 
ENDBRANCH  11  14
ENDBRANCH   3   8
BRANCH   4  16
ATOM     16  C   UNL d   1     -58.916 -98.827 -42.811  0.00  0.00     0.018 A 
ATOM     17  C   UNL d   1     -59.722 -98.768 -42.618  0.00  0.00     0.002 A 
ATOM     18  C   UNL d   1     -59.958 -98.776 -41.829  0.00  0.00     0.007 A 
ATOM     19  C   UNL d   1     -59.395 -98.842 -41.235  0.00  0.00     0.035 A 
ATOM     20  C   UNL d   1     -58.589 -98.901 -41.429  0.00  0.00     0.007 A 
ATOM     21 BR   UNL d   1     -59.631 -98.850 -40.447  0.00  0.00    -0.049 Br
ATOM     22  C   UNL d   1     -58.342 -98.894 -42.216  0.00  0.00     0.002 A 
ENDBRANCH   4  16
BRANCH   6  23
ATOM     23  C   UNL d   1     -56.473 -98.825 -43.856  0.00  0.00     0.069 C 
BRANCH  23  24
ATOM     24  C   UNL d   1     -56.129 -99.513 -44.124  0.00  0.00     0.075 C 
BRANCH  24  25
ATOM     25  C   UNL d   1     -55.335 -99.550 -44.313  0.00  0.00     0.211 C 
ATOM     26  O   UNL d   1     -54.891-100.230 -44.173  0.00  0.00    -0.644 OA
ATOM     27  O   UNL d   1     -54.953 -98.907 -44.649  0.00  0.00    -0.644 OA
ENDBRANCH  24  25
ENDBRANCH  23  24
ENDBRANCH   6  23
TORSDOF 6
ENDMDL
