MODEL 1
REMARK VINA RESULT:      -4.8      0.000      0.000
REMARK  4 active torsions:
REMARK  status: ('A' for Active; 'I' for Inactive)
REMARK    1  A    between atoms: N_2  and  S_1 
REMARK    2  A    between atoms: C_3  and  S_1 
REMARK    3  A    between atoms: C_4  and  N_2 
REMARK    4  A    between atoms: O_14  and  C_7 
ROOT
ATOM      1  S   UNL d   1     -41.201-122.829 -51.164  0.00  0.00     0.285 S 
ATOM      2  O   UNL d   1     -41.131-122.006 -51.194  0.00  0.00    -0.198 OA
ATOM      3  O   UNL d   1     -41.273-123.670 -51.131  0.00  0.00    -0.198 OA
ENDROOT
BRANCH   1   4
ATOM      4  N   UNL d   1     -41.187-122.802 -50.341  0.00  0.00    -0.156 NA
BRANCH   4   5
ATOM      5  C   UNL d   1     -41.889-122.829 -49.914  0.00  0.00     0.116 A 
ATOM      6  C   UNL d   1     -41.897-123.083 -49.129  0.00  0.00     0.112 A 
ATOM      7  C   UNL d   1     -42.599-123.111 -48.702  0.00  0.00     0.026 A 
ATOM      8  C   UNL d   1     -43.309-122.886 -49.050  0.00  0.00     0.002 A 
ATOM      9  C   UNL d   1     -43.308-122.631 -49.835  0.00  0.00     0.002 A 
ATOM     10  C   UNL d   1     -42.606-122.603 -50.262  0.00  0.00     0.022 A 
BRANCH   6  11
ATOM     11  O   UNL d   1     -41.159-123.316 -48.773  0.00  0.00    -0.327 OA
ATOM     12  C   UNL d   1     -41.124-123.549 -47.986  0.00  0.00     0.181 C 
ENDBRANCH   6  11
ENDBRANCH   4   5
ENDBRANCH   1   4
BRANCH   1  13
ATOM     13  C   UNL d   1     -41.216-122.861 -52.007  0.00  0.00     0.105 A 
ATOM     14  C   UNL d   1     -41.274-122.155 -52.441  0.00  0.00     0.014 A 
ATOM     15  C   UNL d   1     -41.288-122.194 -53.267  0.00  0.00     0.012 A 
ATOM     16  C   UNL d   1     -41.243-122.936 -53.662  0.00  0.00     0.058 A 
ATOM     17  C   UNL d   1     -41.186-123.623 -53.222  0.00  0.00     0.012 A 
ATOM     18 CL   UNL d   1     -41.253-123.015 -54.422  0.00  0.00    -0.082 Cl
ATOM     19  C   UNL d   1     -41.171-123.602 -52.401  0.00  0.00     0.014 A 
ENDBRANCH   1  13
TORSDOF 4
ENDMDL
MODEL 2
REMARK VINA RESULT:      -4.8      1.979      3.985
REMARK  4 active torsions:
REMARK  status: ('A' for Active; 'I' for Inactive)
REMARK    1  A    between atoms: N_2  and  S_1 
REMARK    2  A    between atoms: C_3  and  S_1 
REMARK    3  A    between atoms: C_4  and  N_2 
REMARK    4  A    between atoms: O_14  and  C_7 
ROOT
ATOM      1  S   UNL d   1     -41.897-123.449 -50.173  0.00  0.00     0.285 S 
ATOM      2  O   UNL d   1     -41.128-123.748 -50.114  0.00  0.00    -0.198 OA
ATOM      3  O   UNL d   1     -42.682-123.145 -50.235  0.00  0.00    -0.198 OA
ENDROOT
BRANCH   1   4
ATOM      4  N   UNL d   1     -41.858-123.508 -50.994  0.00  0.00    -0.156 NA
BRANCH   4   5
ATOM      5  C   UNL d   1     -41.616-122.864 -51.444  0.00  0.00     0.116 A 
ATOM      6  C   UNL d   1     -41.456-122.947 -52.249  0.00  0.00     0.112 A 
ATOM      7  C   UNL d   1     -41.214-122.303 -52.699  0.00  0.00     0.026 A 
ATOM      8  C   UNL d   1     -41.127-121.562 -52.355  0.00  0.00     0.002 A 
ATOM      9  C   UNL d   1     -41.286-121.473 -51.550  0.00  0.00     0.002 A 
ATOM     10  C   UNL d   1     -41.528-122.116 -51.099  0.00  0.00     0.022 A 
BRANCH   6  11
ATOM     11  O   UNL d   1     -41.548-123.718 -52.601  0.00  0.00    -0.327 OA
ATOM     12  C   UNL d   1     -41.529-123.814 -53.417  0.00  0.00     0.181 C 
ENDBRANCH   6  11
ENDBRANCH   4   5
ENDBRANCH   1   4
BRANCH   1  13
ATOM     13  C   UNL d   1     -41.939-123.388 -49.333  0.00  0.00     0.105 A 
ATOM     14  C   UNL d   1     -41.274-123.585 -48.875  0.00  0.00     0.014 A 
ATOM     15  C   UNL d   1     -41.324-123.522 -48.051  0.00  0.00     0.012 A 
ATOM     16  C   UNL d   1     -42.035-123.264 -47.683  0.00  0.00     0.058 A 
ATOM     17  C   UNL d   1     -42.682-123.073 -48.146  0.00  0.00     0.012 A 
ATOM     18 CL   UNL d   1     -42.121-123.193 -46.927  0.00  0.00    -0.082 Cl
ATOM     19  C   UNL d   1     -42.650-123.130 -48.965  0.00  0.00     0.014 A 
ENDBRANCH   1  13
TORSDOF 4
ENDMDL
MODEL 3
REMARK VINA RESULT:      -4.4      1.611      2.305
REMARK  4 active torsions:
REMARK  status: ('A' for Active; 'I' for Inactive)
REMARK    1  A    between atoms: N_2  and  S_1 
REMARK    2  A    between atoms: C_3  and  S_1 
REMARK    3  A    between atoms: C_4  and  N_2 
REMARK    4  A    between atoms: O_14  and  C_7 
ROOT
ATOM      1  S   UNL d   1     -41.854-122.752 -53.114  0.00  0.00     0.285 S 
ATOM      2  O   UNL d   1     -42.557-122.353 -52.945  0.00  0.00    -0.198 OA
ATOM      3  O   UNL d   1     -41.135-123.161 -53.285  0.00  0.00    -0.198 OA
ENDROOT
BRANCH   1   4
ATOM      4  N   UNL d   1     -41.826-123.034 -52.340  0.00  0.00    -0.156 NA
BRANCH   4   5
ATOM      5  C   UNL d   1     -41.615-122.532 -51.725  0.00  0.00     0.116 A 
ATOM      6  C   UNL d   1     -41.679-122.776 -50.939  0.00  0.00     0.112 A 
ATOM      7  C   UNL d   1     -41.468-122.274 -50.323  0.00  0.00     0.026 A 
ATOM      8  C   UNL d   1     -41.189-121.516 -50.479  0.00  0.00     0.002 A 
ATOM      9  C   UNL d   1     -41.123-121.267 -51.263  0.00  0.00     0.002 A 
ATOM     10  C   UNL d   1     -41.333-121.769 -51.879  0.00  0.00     0.022 A 
BRANCH   6  11
ATOM     11  O   UNL d   1     -41.969-123.562 -50.784  0.00  0.00    -0.327 OA
ATOM     12  C   UNL d   1     -42.233-123.775 -50.035  0.00  0.00     0.181 C 
ENDBRANCH   6  11
ENDBRANCH   4   5
ENDBRANCH   1   4
BRANCH   1  13
ATOM     13  C   UNL d   1     -41.879-122.466 -53.907  0.00  0.00     0.105 A 
ATOM     14  C   UNL d   1     -41.247-122.627 -54.421  0.00  0.00     0.014 A 
ATOM     15  C   UNL d   1     -41.280-122.342 -55.197  0.00  0.00     0.012 A 
ATOM     16  C   UNL d   1     -41.942-121.897 -55.462  0.00  0.00     0.058 A 
ATOM     17  C   UNL d   1     -42.559-121.745 -54.946  0.00  0.00     0.012 A 
ATOM     18 CL   UNL d   1     -42.011-121.616 -56.170  0.00  0.00    -0.082 Cl
ATOM     19  C   UNL d   1     -42.542-122.020 -54.172  0.00  0.00     0.014 A 
ENDBRANCH   1  13
TORSDOF 4
ENDMDL
MODEL 4
REMARK VINA RESULT:      -3.5      1.871      3.963
REMARK  4 active torsions:
REMARK  status: ('A' for Active; 'I' for Inactive)
REMARK    1  A    between atoms: N_2  and  S_1 
REMARK    2  A    between atoms: C_3  and  S_1 
REMARK    3  A    between atoms: C_4  and  N_2 
REMARK    4  A    between atoms: O_14  and  C_7 
ROOT
ATOM      1  S   UNL d   1     -41.419-122.658 -51.964  0.00  0.00     0.285 S 
ATOM      2  O   UNL d   1     -41.129-121.899 -51.809  0.00  0.00    -0.198 OA
ATOM      3  O   UNL d   1     -41.714-123.432 -52.124  0.00  0.00    -0.198 OA
ENDROOT
BRANCH   1   4
ATOM      4  N   UNL d   1     -41.125-122.615 -52.733  0.00  0.00    -0.156 NA
BRANCH   4   5
ATOM      5  C   UNL d   1     -41.600-122.333 -53.342  0.00  0.00     0.116 A 
ATOM      6  C   UNL d   1     -41.635-122.725 -54.067  0.00  0.00     0.112 A 
ATOM      7  C   UNL d   1     -42.109-122.443 -54.676  0.00  0.00     0.026 A 
ATOM      8  C   UNL d   1     -42.560-121.763 -54.574  0.00  0.00     0.002 A 
ATOM      9  C   UNL d   1     -42.530-121.367 -53.851  0.00  0.00     0.002 A 
ATOM     10  C   UNL d   1     -42.055-121.648 -53.242  0.00  0.00     0.022 A 
BRANCH   6  11
ATOM     11  O   UNL d   1     -41.165-123.429 -54.167  0.00  0.00    -0.327 OA
ATOM     12  C   UNL d   1     -41.136-123.817 -54.891  0.00  0.00     0.181 C 
ENDBRANCH   6  11
ENDBRANCH   4   5
ENDBRANCH   1   4
BRANCH   1  13
ATOM     13  C   UNL d   1     -41.720-122.705 -51.178  0.00  0.00     0.105 A 
ATOM     14  C   UNL d   1     -42.254-122.127 -50.909  0.00  0.00     0.014 A 
ATOM     15  C   UNL d   1     -42.545-122.180 -50.137  0.00  0.00     0.012 A 
ATOM     16  C   UNL d   1     -42.305-122.808 -49.631  0.00  0.00     0.058 A 
ATOM     17  C   UNL d   1     -41.780-123.371 -49.908  0.00  0.00     0.012 A 
ATOM     18 CL   UNL d   1     -42.551-122.893 -48.912  0.00  0.00    -0.082 Cl
ATOM     19  C   UNL d   1     -41.481-123.333 -50.672  0.00  0.00     0.014 A 
ENDBRANCH   1  13
TORSDOF 4
ENDMDL
