MODEL 1
REMARK VINA RESULT:       9.5      0.000      0.000
REMARK  3 active torsions:
REMARK  status: ('A' for Active; 'I' for Inactive)
REMARK    1  A    between atoms: N_6  and  C_2 
REMARK    2  A    between atoms: C_8  and  C_3 
REMARK       I    between atoms: C_7  and  N_6 
REMARK    3  A    between atoms: C_10  and  C_7 
ROOT
ATOM      1  N   UNL d   1      45.966 -15.054  44.584  0.00  0.00    -0.200 NA
ATOM      2  C   UNL d   1      45.597 -15.750  44.811  0.00  0.00     0.216 A 
ATOM      3  C   UNL d   1      45.395 -14.449  44.586  0.00  0.00     0.172 A 
ATOM      4  N   UNL d   1      44.676 -14.782  44.815  0.00  0.00    -0.187 NA
ATOM      5  S   UNL d   1      44.798 -15.589  44.955  0.00  0.00     0.054 SA
ENDROOT
BRANCH   3   6
ATOM      6  C   UNL d   1      45.528 -13.661  44.393  0.00  0.00     0.036 A 
ATOM      7  C   UNL d   1      45.337 -13.381  43.646  0.00  0.00     0.003 A 
ATOM      8  C   UNL d   1      45.474 -12.587  43.460  0.00  0.00     0.000 A 
ATOM      9  C   UNL d   1      45.800 -12.080  44.023  0.00  0.00     0.000 A 
ATOM     10  C   UNL d   1      45.991 -12.362  44.774  0.00  0.00     0.000 A 
ATOM     11  C   UNL d   1      45.853 -13.157  44.955  0.00  0.00     0.003 A 
ENDBRANCH   3   6
BRANCH   2  12
ATOM     12  N   UNL d   1      45.960 -16.486  44.882  0.00  0.00    -0.181 NA
ATOM     13  C   UNL d   1      45.917 -17.025  44.260  0.00  0.00     0.281 C 
ATOM     14  O   UNL d   1      45.513 -16.830  43.570  0.00  0.00    -0.265 OA
BRANCH  13  15
ATOM     15  C   UNL d   1      46.277 -17.755  44.331  0.00  0.00     0.063 C 
ATOM     16  C   UNL d   1      46.301 -18.275  43.689  0.00  0.00     0.005 C 
ENDBRANCH  13  15
ENDBRANCH   2  12
TORSDOF 3
ENDMDL
MODEL 2
REMARK VINA RESULT:      11.1      1.560      4.743
REMARK  3 active torsions:
REMARK  status: ('A' for Active; 'I' for Inactive)
REMARK    1  A    between atoms: N_6  and  C_2 
REMARK    2  A    between atoms: C_8  and  C_3 
REMARK       I    between atoms: C_7  and  N_6 
REMARK    3  A    between atoms: C_10  and  C_7 
ROOT
ATOM      1  N   UNL d   1      46.355 -17.387  43.674  0.00  0.00    -0.200 NA
ATOM      2  C   UNL d   1      46.175 -16.915  44.320  0.00  0.00     0.216 A 
ATOM      3  C   UNL d   1      46.253 -18.181  43.900  0.00  0.00     0.172 A 
ATOM      4  N   UNL d   1      46.009 -18.189  44.688  0.00  0.00    -0.187 NA
ATOM      5  S   UNL d   1      45.960 -17.405  44.951  0.00  0.00     0.054 SA
ENDROOT
BRANCH   3   6
ATOM      6  C   UNL d   1      46.374 -18.838  43.421  0.00  0.00     0.036 A 
ATOM      7  C   UNL d   1      46.526 -18.742  42.620  0.00  0.00     0.003 A 
ATOM      8  C   UNL d   1      46.647 -19.408  42.145  0.00  0.00     0.000 A 
ATOM      9  C   UNL d   1      46.614 -20.163  42.474  0.00  0.00     0.000 A 
ATOM     10  C   UNL d   1      46.462 -20.259  43.279  0.00  0.00     0.000 A 
ATOM     11  C   UNL d   1      46.341 -19.589  43.750  0.00  0.00     0.003 A 
ENDBRANCH   3   6
BRANCH   2  12
ATOM     12  N   UNL d   1      46.203 -16.092  44.337  0.00  0.00    -0.181 NA
ATOM     13  C   UNL d   1      45.572 -15.669  44.655  0.00  0.00     0.281 C 
ATOM     14  O   UNL d   1      44.916 -16.065  44.954  0.00  0.00    -0.265 OA
BRANCH  13  15
ATOM     15  C   UNL d   1      45.600 -14.852  44.672  0.00  0.00     0.063 C 
ATOM     16  C   UNL d   1      44.954 -14.415  44.948  0.00  0.00     0.005 C 
ENDBRANCH  13  15
ENDBRANCH   2  12
TORSDOF 3
ENDMDL
MODEL 3
REMARK VINA RESULT:      12.3      1.416      2.004
REMARK  3 active torsions:
REMARK  status: ('A' for Active; 'I' for Inactive)
REMARK    1  A    between atoms: N_6  and  C_2 
REMARK    2  A    between atoms: C_8  and  C_3 
REMARK       I    between atoms: C_7  and  N_6 
REMARK    3  A    between atoms: C_10  and  C_7 
ROOT
ATOM      1  N   UNL d   1      45.919 -16.461  43.638  0.00  0.00    -0.200 NA
ATOM      2  C   UNL d   1      46.097 -17.253  43.757  0.00  0.00     0.216 A 
ATOM      3  C   UNL d   1      45.787 -16.113  44.382  0.00  0.00     0.172 A 
ATOM      4  N   UNL d   1      45.886 -16.699  44.955  0.00  0.00    -0.187 NA
ATOM      5  S   UNL d   1      46.078 -17.406  44.570  0.00  0.00     0.054 SA
ENDROOT
BRANCH   3   6
ATOM      6  C   UNL d   1      45.594 -15.326  44.518  0.00  0.00     0.036 A 
ATOM      7  C   UNL d   1      46.144 -14.735  44.375  0.00  0.00     0.003 A 
ATOM      8  C   UNL d   1      45.942 -13.946  44.514  0.00  0.00     0.000 A 
ATOM      9  C   UNL d   1      45.190 -13.754  44.796  0.00  0.00     0.000 A 
ATOM     10  C   UNL d   1      44.637 -14.349  44.940  0.00  0.00     0.000 A 
ATOM     11  C   UNL d   1      44.845 -15.137  44.799  0.00  0.00     0.003 A 
ENDBRANCH   3   6
BRANCH   2  12
ATOM     12  N   UNL d   1      46.265 -17.802  43.167  0.00  0.00    -0.181 NA
ATOM     13  C   UNL d   1      46.332 -18.601  43.359  0.00  0.00     0.281 C 
ATOM     14  O   UNL d   1      46.232 -18.850  44.137  0.00  0.00    -0.265 OA
BRANCH  13  15
ATOM     15  C   UNL d   1      46.500 -19.146  42.774  0.00  0.00     0.063 C 
ATOM     16  C   UNL d   1      46.270 -19.935  42.857  0.00  0.00     0.005 C 
ENDBRANCH  13  15
ENDBRANCH   2  12
TORSDOF 3
ENDMDL
