MODEL 1
REMARK VINA RESULT:       7.0      0.000      0.000
REMARK  1 active torsions:
REMARK  status: ('A' for Active; 'I' for Inactive)
REMARK    1  A    between atoms: C_6  and  C_3 
ROOT
ATOM      1  N   UNL d   1     -54.986-101.553 -36.914  0.00  0.00    -0.228 NA
ATOM      2  C   UNL d   1     -54.935-101.608 -36.093  0.00  0.00     0.166 A 
ATOM      3  C   UNL d   1     -55.226-102.288 -37.200  0.00  0.00     0.089 A 
ATOM      4  S   UNL d   1     -55.142-102.367 -35.874  0.00  0.00    -0.055 SA
ATOM      5  C   UNL d   1     -55.325-102.800 -36.555  0.00  0.00     0.057 A 
ATOM      6  S   UNL d   1     -54.713-100.996 -35.583  0.00  0.00    -0.050 SA
ENDROOT
BRANCH   3   7
ATOM      7  C   UNL d   1     -55.349-102.484 -37.995  0.00  0.00     0.018 A 
ATOM      8  C   UNL d   1     -54.711-102.512 -38.511  0.00  0.00     0.002 A 
ATOM      9  C   UNL d   1     -54.827-102.706 -39.301  0.00  0.00     0.000 A 
ATOM     10  C   UNL d   1     -55.595-102.875 -39.578  0.00  0.00     0.000 A 
ATOM     11  C   UNL d   1     -56.226-102.844 -39.056  0.00  0.00     0.000 A 
ATOM     12  C   UNL d   1     -56.108-102.649 -38.263  0.00  0.00     0.002 A 
ENDBRANCH   3   7
TORSDOF 1
ENDMDL
