MODEL 1
REMARK VINA RESULT:      63.9      0.000      0.000
REMARK  1 active torsions:
REMARK  status: ('A' for Active; 'I' for Inactive)
REMARK       I    between atoms: N_2  and  C_1 
REMARK       I    between atoms: N_4  and  C_1 
REMARK    1  A    between atoms: C_5  and  N_3 
ROOT
ATOM      1  C   UNL d   1     -54.769-102.060 -40.591  0.00  0.00     0.340 C 
ATOM      2  N   UNL d   1     -54.788-101.791 -41.385  0.00  0.00    -0.254 N 
ATOM      3  N   UNL d   1     -54.826-101.266 -42.939  0.00  0.00    -0.301 N 
ATOM      4  N   UNL d   1     -54.783-101.520 -39.962  0.00  0.00    -0.253 N 
ATOM      5  O   UNL d   1     -54.736-102.879 -40.437  0.00  0.00    -0.245 OA
ATOM      6  C   UNL d   1     -54.821-100.986 -41.539  0.00  0.00     0.104 A 
ATOM      7  C   UNL d   1     -54.773-102.350 -42.002  0.00  0.00     0.104 A 
ATOM      8  C   UNL d   1     -54.792-102.086 -42.781  0.00  0.00     0.100 A 
ATOM      9  C   UNL d   1     -54.840-100.722 -42.319  0.00  0.00     0.100 A 
ATOM     10  O   UNL d   1     -54.811-100.449 -38.713  0.00  0.00    -0.300 OA
ATOM     11  C   UNL d   1     -54.764-101.797 -39.183  0.00  0.00     0.111 A 
ATOM     12  C   UNL d   1     -54.816-100.713 -40.120  0.00  0.00     0.111 A 
ATOM     13  C   UNL d   1     -54.830-100.172 -39.492  0.00  0.00     0.142 A 
ATOM     14  C   UNL d   1     -54.778-101.259 -38.560  0.00  0.00     0.142 A 
ENDROOT
BRANCH   3  15
ATOM     15  C   UNL d   1     -54.845-100.993 -43.720  0.00  0.00     0.064 A 
ATOM     16  C   UNL d   1     -54.918-100.187 -43.858  0.00  0.00     0.018 A 
ATOM     17  C   UNL d   1     -54.937 -99.911 -44.638  0.00  0.00     0.001 A 
ATOM     18  C   UNL d   1     -55.010 -99.103 -44.784  0.00  0.00     0.000 C 
ATOM     19  C   UNL d   1     -54.883-100.448 -45.272  0.00  0.00     0.000 A 
ATOM     20  C   UNL d   1     -54.810-101.257 -45.125  0.00  0.00     0.001 A 
ATOM     21  C   UNL d   1     -54.791-101.528 -44.344  0.00  0.00     0.018 A 
ATOM     22  C   UNL d   1     -54.757-101.791 -45.754  0.00  0.00     0.000 C 
ENDBRANCH   3  15
TORSDOF 1
ENDMDL
