MODEL 1
REMARK VINA RESULT:      26.8      0.000      0.000
REMARK  7 active torsions:
REMARK  status: ('A' for Active; 'I' for Inactive)
REMARK    1  A    between atoms: C_4  and  S_1 
REMARK    2  A    between atoms: N_6  and  S_1 
REMARK    3  A    between atoms: N_3  and  C_2 
REMARK    4  A    between atoms: C_15  and  N_6 
REMARK    5  A    between atoms: C_16  and  N_6 
REMARK    6  A    between atoms: C_18  and  C_15 
REMARK    7  A    between atoms: C_17  and  C_16 
ROOT
ATOM      1  C   UNL d   1      57.202  49.336  50.474  0.00  0.00     0.138 A 
ATOM      2  C   UNL d   1      58.605  49.506  50.270  0.00  0.00     0.106 A 
ATOM      3  C   UNL d   1      57.972  49.341  50.770  0.00  0.00     0.037 A 
ATOM      4  C   UNL d   1      57.065  49.496  49.678  0.00  0.00     0.080 A 
ATOM      5  C   UNL d   1      58.469  49.667  49.470  0.00  0.00     0.014 A 
ATOM      6  C   UNL d   1      57.699  49.662  49.175  0.00  0.00     0.014 A 
ATOM      7 CL   UNL d   1      56.295  49.491  49.382  0.00  0.00    -0.081 Cl
ENDROOT
BRANCH   2   8
ATOM      8  S   UNL d   1      59.376  49.512  50.565  0.00  0.00     0.271 S 
ATOM      9  O   UNL d   1      59.086  49.688  51.317  0.00  0.00    -0.200 OA
ATOM     10  O   UNL d   1      59.666  49.335  49.813  0.00  0.00    -0.200 OA
BRANCH   8  11
ATOM     11  N   UNL d   1      60.146  49.517  50.861  0.00  0.00    -0.229 N 
BRANCH  11  12
ATOM     12  C   UNL d   1      60.274  49.571  51.675  0.00  0.00     0.092 C 
BRANCH  12  13
ATOM     13  C   UNL d   1      61.034  49.467  51.981  0.00  0.00     0.020 C 
ATOM     14  C   UNL d   1      61.188  49.619  52.777  0.00  0.00     0.002 C 
ENDBRANCH  12  13
ENDBRANCH  11  12
BRANCH  11  15
ATOM     15  C   UNL d   1      60.786  49.468  50.345  0.00  0.00     0.092 C 
BRANCH  15  16
ATOM     16  C   UNL d   1      61.468  49.062  50.571  0.00  0.00     0.020 C 
ATOM     17  C   UNL d   1      61.494  48.231  50.521  0.00  0.00     0.002 C 
ENDBRANCH  15  16
ENDBRANCH  11  15
ENDBRANCH   8  11
ENDBRANCH   2   8
BRANCH   1  18
ATOM     18  N   UNL d   1      56.567  49.169  50.982  0.00  0.00    -0.113 N 
ATOM     19  O   UNL d   1      56.391  49.676  51.606  0.00  0.00    -0.532 OA
ATOM     20  O   UNL d   1      56.112  48.491  50.860  0.00  0.00    -0.532 OA
ENDBRANCH   1  18
TORSDOF 7
ENDMDL
