MODEL 1
REMARK VINA RESULT:      27.5      0.000      0.000
REMARK  7 active torsions:
REMARK  status: ('A' for Active; 'I' for Inactive)
REMARK    1  A    between atoms: C_6  and  N_1 
REMARK    2  A    between atoms: C_7  and  C_6 
REMARK    3  A    between atoms: O_10  and  C_7 
REMARK    4  A    between atoms: C_13  and  O_10 
REMARK    5  A    between atoms: C_14  and  C_13 
REMARK    6  A    between atoms: C_16  and  C_14 
REMARK    7  A    between atoms: C_15  and  C_16 
ROOT
ATOM      1  N   UNL d   1      58.179  49.679  50.679  0.00  0.00    -0.246 N 
ATOM      2  C   UNL d   1      57.889  49.670  51.459  0.00  0.00     0.378 A 
ATOM      3  O   UNL d   1      57.060  49.647  51.426  0.00  0.00    -0.258 OA
ATOM      4  C   UNL d   1      57.528  49.660  50.169  0.00  0.00     0.092 A 
ATOM      5  C   UNL d   1      56.838  49.640  50.631  0.00  0.00     0.121 A 
ATOM      6  O   UNL d   1      58.354  49.684  52.138  0.00  0.00    -0.237 OA
ATOM      7  C   UNL d   1      57.473  49.659  49.343  0.00  0.00     0.020 A 
ATOM      8  C   UNL d   1      56.095  49.619  50.257  0.00  0.00     0.026 A 
ATOM      9  C   UNL d   1      56.731  49.637  48.983  0.00  0.00     0.002 A 
ATOM     10  C   UNL d   1      56.046  49.618  49.437  0.00  0.00     0.002 A 
ENDROOT
BRANCH   1  11
ATOM     11  C   UNL d   1      58.961  49.701  50.415  0.00  0.00     0.154 C 
BRANCH  11  12
ATOM     12  C   UNL d   1      59.485  49.117  50.642  0.00  0.00     0.318 C 
ATOM     13  O   UNL d   1      59.240  48.516  51.152  0.00  0.00    -0.257 OA
BRANCH  12  14
ATOM     14  O   UNL d   1      60.261  49.129  50.363  0.00  0.00    -0.270 OA
BRANCH  14  15
ATOM     15  C   UNL d   1      60.993  49.334  50.679  0.00  0.00     0.126 C 
BRANCH  15  16
ATOM     16  C   UNL d   1      61.045  49.647  51.437  0.00  0.00     0.027 C 
BRANCH  16  17
ATOM     17  C   UNL d   1      61.449  49.241  52.032  0.00  0.00     0.002 C 
BRANCH  17  18
ATOM     18  C   UNL d   1      61.429  49.514  52.807  0.00  0.00     0.000 C 
ATOM     19  C   UNL d   1      62.117  49.521  53.255  0.00  0.00     0.000 C 
ENDBRANCH  17  18
ENDBRANCH  16  17
ENDBRANCH  15  16
ENDBRANCH  14  15
ENDBRANCH  12  14
ENDBRANCH  11  12
ENDBRANCH   1  11
TORSDOF 7
ENDMDL
MODEL 2
REMARK VINA RESULT:      27.6      1.708      2.301
REMARK  7 active torsions:
REMARK  status: ('A' for Active; 'I' for Inactive)
REMARK    1  A    between atoms: C_6  and  N_1 
REMARK    2  A    between atoms: C_7  and  C_6 
REMARK    3  A    between atoms: O_10  and  C_7 
REMARK    4  A    between atoms: C_13  and  O_10 
REMARK    5  A    between atoms: C_14  and  C_13 
REMARK    6  A    between atoms: C_16  and  C_14 
REMARK    7  A    between atoms: C_15  and  C_16 
ROOT
ATOM      1  N   UNL d   1      59.474  49.707  50.733  0.00  0.00    -0.246 N 
ATOM      2  C   UNL d   1      59.340  49.707  51.555  0.00  0.00     0.378 A 
ATOM      3  O   UNL d   1      58.519  49.707  51.682  0.00  0.00    -0.258 OA
ATOM      4  C   UNL d   1      58.737  49.707  50.358  0.00  0.00     0.092 A 
ATOM      5  C   UNL d   1      58.148  49.707  50.945  0.00  0.00     0.121 A 
ATOM      6  O   UNL d   1      59.927  49.707  52.131  0.00  0.00    -0.237 OA
ATOM      7  C   UNL d   1      58.524  49.707  49.558  0.00  0.00     0.020 A 
ATOM      8  C   UNL d   1      57.347  49.706  50.720  0.00  0.00     0.026 A 
ATOM      9  C   UNL d   1      57.726  49.707  49.348  0.00  0.00     0.002 A 
ATOM     10  C   UNL d   1      57.141  49.706  49.926  0.00  0.00     0.002 A 
ENDROOT
BRANCH   1  11
ATOM     11  C   UNL d   1      60.191  49.708  50.323  0.00  0.00     0.154 C 
BRANCH  11  12
ATOM     12  C   UNL d   1      60.825  49.281  50.611  0.00  0.00     0.318 C 
ATOM     13  O   UNL d   1      61.448  49.668  50.991  0.00  0.00    -0.257 OA
BRANCH  12  14
ATOM     14  O   UNL d   1      60.844  48.461  50.522  0.00  0.00    -0.270 OA
BRANCH  14  15
ATOM     15  C   UNL d   1      61.395  47.868  50.677  0.00  0.00     0.126 C 
BRANCH  15  16
ATOM     16  C   UNL d   1      61.511  47.259  50.138  0.00  0.00     0.027 C 
BRANCH  16  17
ATOM     17  C   UNL d   1      61.373  46.475  50.354  0.00  0.00     0.002 C 
BRANCH  17  18
ATOM     18  C   UNL d   1      61.303  45.892  49.779  0.00  0.00     0.000 C 
ATOM     19  C   UNL d   1      61.934  45.736  49.277  0.00  0.00     0.000 C 
ENDBRANCH  17  18
ENDBRANCH  16  17
ENDBRANCH  15  16
ENDBRANCH  14  15
ENDBRANCH  12  14
ENDBRANCH  11  12
ENDBRANCH   1  11
TORSDOF 7
ENDMDL
