MODEL 1
REMARK VINA RESULT:      -2.6      0.000      0.000
REMARK  4 active torsions:
REMARK  status: ('A' for Active; 'I' for Inactive)
REMARK       I    between atoms: N_2  and  C_1 
REMARK    1  A    between atoms: C_4  and  C_1 
REMARK    2  A    between atoms: C_5  and  N_3 
REMARK    3  A    between atoms: O_21  and  C_8 
REMARK    4  A    between atoms: O_22  and  C_15 
ROOT
ATOM      1  C   UNL d   1      32.850  19.134 -23.897  0.00  0.00     0.265 C 
ATOM      2  N   UNL d   1      32.839  19.631 -23.243  0.00  0.00    -0.269 N 
ATOM      3  N   UNL d   1      32.817  20.623 -21.942  0.00  0.00    -0.301 N 
ATOM      4  C   UNL d   1      33.029  20.422 -23.335  0.00  0.00     0.102 A 
ATOM      5  C   UNL d   1      32.638  19.331 -22.509  0.00  0.00     0.102 A 
ATOM      6  C   UNL d   1      32.627  19.829 -21.857  0.00  0.00     0.100 A 
ATOM      7  C   UNL d   1      33.017  20.920 -22.675  0.00  0.00     0.100 A 
ATOM      8  O   UNL d   1      33.051  19.430 -24.639  0.00  0.00    -0.267 OA
ENDROOT
BRANCH   1   9
ATOM      9  C   UNL d   1      32.658  18.337 -23.809  0.00  0.00     0.059 A 
ATOM     10  C   UNL d   1      31.897  18.071 -23.999  0.00  0.00     0.031 A 
ATOM     11  C   UNL d   1      31.699  17.263 -23.911  0.00  0.00     0.116 A 
ATOM     12  C   UNL d   1      32.261  16.730 -23.634  0.00  0.00     0.116 A 
ATOM     13  C   UNL d   1      33.032  16.996 -23.440  0.00  0.00     0.026 A 
ATOM     14  C   UNL d   1      33.236  17.798 -23.525  0.00  0.00     0.007 A 
BRANCH  11  15
ATOM     15  O   UNL d   1      30.946  17.006 -24.100  0.00  0.00    -0.326 OA
ATOM     16  C   UNL d   1      30.583  17.251 -24.800  0.00  0.00     0.181 C 
ENDBRANCH  11  15
BRANCH  12  17
ATOM     17  O   UNL d   1      32.069  15.934 -23.545  0.00  0.00    -0.326 OA
ATOM     18  C   UNL d   1      32.399  15.495 -22.930  0.00  0.00     0.181 C 
ENDBRANCH  12  17
ENDBRANCH   1   9
BRANCH   3  19
ATOM     19  C   UNL d   1      32.923  21.376 -21.617  0.00  0.00     0.064 A 
ATOM     20  C   UNL d   1      32.818  21.493 -20.819  0.00  0.00     0.018 A 
ATOM     21  C   UNL d   1      32.922  22.239 -20.491  0.00  0.00     0.001 A 
ATOM     22  C   UNL d   1      32.814  22.350 -19.681  0.00  0.00     0.000 C 
ATOM     23  C   UNL d   1      33.134  22.873 -20.975  0.00  0.00     0.000 A 
ATOM     24  C   UNL d   1      33.239  22.751 -21.783  0.00  0.00     0.002 A 
ATOM     25  C   UNL d   1      33.240  23.627 -20.652  0.00  0.00     0.000 C 
ATOM     26  C   UNL d   1      33.135  22.003 -22.114  0.00  0.00     0.018 A 
ENDBRANCH   3  19
TORSDOF 4
ENDMDL
MODEL 2
REMARK VINA RESULT:      -1.5      1.704      5.443
REMARK  4 active torsions:
REMARK  status: ('A' for Active; 'I' for Inactive)
REMARK       I    between atoms: N_2  and  C_1 
REMARK    1  A    between atoms: C_4  and  C_1 
REMARK    2  A    between atoms: C_5  and  N_3 
REMARK    3  A    between atoms: O_21  and  C_8 
REMARK    4  A    between atoms: O_22  and  C_15 
ROOT
ATOM      1  C   UNL d   1      33.039  20.145 -21.957  0.00  0.00     0.265 C 
ATOM      2  N   UNL d   1      32.885  19.625 -22.573  0.00  0.00    -0.269 N 
ATOM      3  N   UNL d   1      32.580  18.587 -23.800  0.00  0.00    -0.301 N 
ATOM      4  C   UNL d   1      32.934  18.818 -22.442  0.00  0.00     0.102 A 
ATOM      5  C   UNL d   1      32.685  19.918 -23.311  0.00  0.00     0.102 A 
ATOM      6  C   UNL d   1      32.532  19.397 -23.926  0.00  0.00     0.100 A 
ATOM      7  C   UNL d   1      32.779  18.297 -23.064  0.00  0.00     0.100 A 
ATOM      8  O   UNL d   1      33.240  19.857 -21.212  0.00  0.00    -0.267 OA
ENDROOT
BRANCH   1   9
ATOM      9  C   UNL d   1      32.990  20.959 -22.086  0.00  0.00     0.059 A 
ATOM     10  C   UNL d   1      32.696  21.454 -21.492  0.00  0.00     0.031 A 
ATOM     11  C   UNL d   1      32.645  22.281 -21.619  0.00  0.00     0.116 A 
ATOM     12  C   UNL d   1      32.889  22.601 -22.336  0.00  0.00     0.116 A 
ATOM     13  C   UNL d   1      33.188  22.102 -22.939  0.00  0.00     0.026 A 
ATOM     14  C   UNL d   1      33.241  21.280 -22.820  0.00  0.00     0.007 A 
BRANCH  11  15
ATOM     15  O   UNL d   1      32.353  22.765 -21.029  0.00  0.00    -0.326 OA
ATOM     16  C   UNL d   1      32.408  22.541 -20.237  0.00  0.00     0.181 C 
ENDBRANCH  11  15
BRANCH  12  17
ATOM     17  O   UNL d   1      32.841  23.413 -22.465  0.00  0.00    -0.326 OA
ATOM     18  C   UNL d   1      32.591  23.702 -23.196  0.00  0.00     0.181 C 
ENDBRANCH  12  17
ENDBRANCH   1   9
BRANCH   3  19
ATOM     19  C   UNL d   1      32.519  17.811 -24.081  0.00  0.00     0.064 A 
ATOM     20  C   UNL d   1      31.788  17.476 -24.199  0.00  0.00     0.018 A 
ATOM     21  C   UNL d   1      31.723  16.706 -24.478  0.00  0.00     0.001 A 
ATOM     22  C   UNL d   1      30.977  16.374 -24.596  0.00  0.00     0.000 C 
ATOM     23  C   UNL d   1      32.405  16.270 -24.638  0.00  0.00     0.000 A 
ATOM     24  C   UNL d   1      33.144  16.611 -24.516  0.00  0.00     0.002 A 
ATOM     25  C   UNL d   1      32.347  15.494 -24.918  0.00  0.00     0.000 C 
ATOM     26  C   UNL d   1      33.211  17.384 -24.237  0.00  0.00     0.018 A 
ENDBRANCH   3  19
TORSDOF 4
ENDMDL
