MODEL 1
REMARK VINA RESULT:       0.3      0.000      0.000
REMARK  5 active torsions:
REMARK  status: ('A' for Active; 'I' for Inactive)
REMARK    1  A    between atoms: C_8  and  C_1 
REMARK    2  A    between atoms: C_11  and  C_3 
REMARK    3  A    between atoms: C_7  and  C_4 
REMARK    4  A    between atoms: O_16  and  C_8 
REMARK    5  A    between atoms: C_19  and  O_16 
ROOT
ATOM      1  C   UNL d   1      31.089  17.239 -24.472  0.00  0.00     0.102 A 
ATOM      2  C   UNL d   1      30.696  17.863 -24.851  0.00  0.00     0.201 A 
ATOM      3  C   UNL d   1      31.872  17.320 -24.225  0.00  0.00     0.008 A 
ATOM      4  C   UNL d   1      31.893  18.644 -24.727  0.00  0.00     0.009 A 
ATOM      5  C   UNL d   1      31.109  18.563 -24.974  0.00  0.00     0.043 A 
ATOM      6  C   UNL d   1      32.269  18.026 -24.356  0.00  0.00     0.001 A 
ATOM      7  O   UNL d   1      29.920  17.782 -25.096  0.00  0.00    -0.286 OA
ENDROOT
BRANCH   3   8
ATOM      8  C   UNL d   1      32.249  16.694 -23.850  0.00  0.00     0.000 A 
ATOM      9  C   UNL d   1      32.273  16.679 -23.026  0.00  0.00     0.000 A 
ATOM     10  C   UNL d   1      32.653  16.046 -22.655  0.00  0.00     0.000 A 
ATOM     11  C   UNL d   1      32.996  15.453 -23.078  0.00  0.00     0.000 A 
ATOM     12  C   UNL d   1      32.965  15.479 -23.915  0.00  0.00     0.000 A 
ATOM     13  C   UNL d   1      32.589  16.105 -24.295  0.00  0.00     0.000 A 
ENDBRANCH   3   8
BRANCH   1  14
ATOM     14  C   UNL d   1      30.686  16.524 -24.340  0.00  0.00     0.303 C 
ATOM     15  O   UNL d   1      30.802  15.884 -24.848  0.00  0.00    -0.259 OA
BRANCH  14  16
ATOM     16  O   UNL d   1      30.168  16.450 -23.699  0.00  0.00    -0.271 OA
BRANCH  16  17
ATOM     17  C   UNL d   1      29.515  15.951 -23.755  0.00  0.00     0.126 C 
ATOM     18  C   UNL d   1      29.124  15.711 -23.070  0.00  0.00     0.029 C 
ENDBRANCH  16  17
ENDBRANCH  14  16
ENDBRANCH   1  14
BRANCH   4  19
ATOM     19  C   UNL d   1      32.290  19.359 -24.861  0.00  0.00     0.030 A 
ATOM     20  S   UNL d   1      33.094  19.452 -24.996  0.00  0.00    -0.086 SA
ATOM     21  C   UNL d   1      33.239  20.239 -25.097  0.00  0.00     0.035 A 
ATOM     22  C   UNL d   1      32.528  20.658 -25.028  0.00  0.00     0.007 A 
ATOM     23  C   UNL d   1      31.930  20.109 -24.880  0.00  0.00     0.007 A 
ENDBRANCH   4  19
TORSDOF 5
ENDMDL
MODEL 2
REMARK VINA RESULT:       0.3      1.654      3.427
REMARK  5 active torsions:
REMARK  status: ('A' for Active; 'I' for Inactive)
REMARK    1  A    between atoms: C_8  and  C_1 
REMARK    2  A    between atoms: C_11  and  C_3 
REMARK    3  A    between atoms: C_7  and  C_4 
REMARK    4  A    between atoms: O_16  and  C_8 
REMARK    5  A    between atoms: C_19  and  O_16 
ROOT
ATOM      1  C   UNL d   1      31.140  17.401 -24.354  0.00  0.00     0.102 A 
ATOM      2  C   UNL d   1      30.436  17.805 -24.522  0.00  0.00     0.201 A 
ATOM      3  C   UNL d   1      31.129  16.610 -24.119  0.00  0.00     0.008 A 
ATOM      4  C   UNL d   1      29.716  16.603 -24.213  0.00  0.00     0.009 A 
ATOM      5  C   UNL d   1      29.727  17.394 -24.448  0.00  0.00     0.043 A 
ATOM      6  C   UNL d   1      30.412  16.215 -24.050  0.00  0.00     0.001 A 
ATOM      7  O   UNL d   1      30.447  18.588 -24.754  0.00  0.00    -0.286 OA
ENDROOT
BRANCH   3   8
ATOM      8  C   UNL d   1      31.834  16.223 -23.955  0.00  0.00     0.000 A 
ATOM      9  C   UNL d   1      32.078  16.152 -23.170  0.00  0.00     0.000 A 
ATOM     10  C   UNL d   1      32.788  15.761 -23.013  0.00  0.00     0.000 A 
ATOM     11  C   UNL d   1      33.241  15.453 -23.603  0.00  0.00     0.000 A 
ATOM     12  C   UNL d   1      32.983  15.530 -24.397  0.00  0.00     0.000 A 
ATOM     13  C   UNL d   1      32.277  15.918 -24.565  0.00  0.00     0.000 A 
ENDBRANCH   3   8
BRANCH   1  14
ATOM     14  C   UNL d   1      31.865  17.801 -24.423  0.00  0.00     0.303 C 
ATOM     15  O   UNL d   1      32.330  17.700 -25.097  0.00  0.00    -0.259 OA
BRANCH  14  16
ATOM     16  O   UNL d   1      32.125  18.301 -23.818  0.00  0.00    -0.271 OA
BRANCH  16  17
ATOM     17  C   UNL d   1      32.766  18.802 -23.945  0.00  0.00     0.126 C 
ATOM     18  C   UNL d   1      32.822  19.510 -23.527  0.00  0.00     0.029 C 
ENDBRANCH  16  17
ENDBRANCH  14  16
ENDBRANCH   1  14
BRANCH   4  19
ATOM     19  C   UNL d   1      28.991  16.208 -24.145  0.00  0.00     0.030 A 
ATOM     20  S   UNL d   1      28.587  15.821 -24.746  0.00  0.00    -0.086 SA
ATOM     21  C   UNL d   1      27.909  15.517 -24.433  0.00  0.00     0.035 A 
ATOM     22  C   UNL d   1      27.871  15.706 -23.628  0.00  0.00     0.007 A 
ATOM     23  C   UNL d   1      28.548  16.140 -23.443  0.00  0.00     0.007 A 
ENDBRANCH   4  19
TORSDOF 5
ENDMDL
MODEL 3
REMARK VINA RESULT:       0.9      4.173      5.946
REMARK  5 active torsions:
REMARK  status: ('A' for Active; 'I' for Inactive)
REMARK    1  A    between atoms: C_8  and  C_1 
REMARK    2  A    between atoms: C_11  and  C_3 
REMARK    3  A    between atoms: C_7  and  C_4 
REMARK    4  A    between atoms: O_16  and  C_8 
REMARK    5  A    between atoms: C_19  and  O_16 
ROOT
ATOM      1  C   UNL d   1      32.646  21.230 -21.057  0.00  0.00     0.102 A 
ATOM      2  C   UNL d   1      32.736  20.456 -20.772  0.00  0.00     0.201 A 
ATOM      3  C   UNL d   1      32.682  21.389 -21.865  0.00  0.00     0.008 A 
ATOM      4  C   UNL d   1      32.898  20.015 -22.127  0.00  0.00     0.009 A 
ATOM      5  C   UNL d   1      32.862  19.855 -21.318  0.00  0.00     0.043 A 
ATOM      6  C   UNL d   1      32.809  20.777 -22.397  0.00  0.00     0.001 A 
ATOM      7  O   UNL d   1      32.700  20.298 -19.971  0.00  0.00    -0.286 OA
ENDROOT
BRANCH   3   8
ATOM      8  C   UNL d   1      32.592  22.161 -22.133  0.00  0.00     0.000 A 
ATOM      9  C   UNL d   1      33.233  22.537 -22.490  0.00  0.00     0.000 A 
ATOM     10  C   UNL d   1      33.135  23.312 -22.758  0.00  0.00     0.000 A 
ATOM     11  C   UNL d   1      32.435  23.702 -22.677  0.00  0.00     0.000 A 
ATOM     12  C   UNL d   1      31.790  23.309 -22.313  0.00  0.00     0.000 A 
ATOM     13  C   UNL d   1      31.877  22.537 -22.043  0.00  0.00     0.000 A 
ENDBRANCH   3   8
BRANCH   1  14
ATOM     14  C   UNL d   1      32.518  21.850 -20.519  0.00  0.00     0.303 C 
ATOM     15  O   UNL d   1      31.770  22.191 -20.451  0.00  0.00    -0.259 OA
BRANCH  14  16
ATOM     16  O   UNL d   1      33.139  22.128 -20.048  0.00  0.00    -0.271 OA
BRANCH  16  17
ATOM     17  C   UNL d   1      33.028  22.229 -19.238  0.00  0.00     0.126 C 
ATOM     18  C   UNL d   1      33.151  22.969 -18.897  0.00  0.00     0.029 C 
ENDBRANCH  16  17
ENDBRANCH  14  16
ENDBRANCH   1  14
BRANCH   4  19
ATOM     19  C   UNL d   1      33.026  19.394 -22.660  0.00  0.00     0.030 A 
ATOM     20  S   UNL d   1      33.081  19.454 -23.477  0.00  0.00    -0.086 SA
ATOM     21  C   UNL d   1      33.207  18.715 -23.772  0.00  0.00     0.035 A 
ATOM     22  C   UNL d   1      33.234  18.172 -23.147  0.00  0.00     0.007 A 
ATOM     23  C   UNL d   1      33.121  18.594 -22.447  0.00  0.00     0.007 A 
ENDBRANCH   4  19
TORSDOF 5
ENDMDL
MODEL 4
REMARK VINA RESULT:       2.4      1.776      3.346
REMARK  5 active torsions:
REMARK  status: ('A' for Active; 'I' for Inactive)
REMARK    1  A    between atoms: C_8  and  C_1 
REMARK    2  A    between atoms: C_11  and  C_3 
REMARK    3  A    between atoms: C_7  and  C_4 
REMARK    4  A    between atoms: O_16  and  C_8 
REMARK    5  A    between atoms: C_19  and  O_16 
ROOT
ATOM      1  C   UNL d   1      29.945  17.309 -24.329  0.00  0.00     0.102 A 
ATOM      2  C   UNL d   1      30.648  17.690 -24.548  0.00  0.00     0.201 A 
ATOM      3  C   UNL d   1      29.957  16.544 -24.022  0.00  0.00     0.008 A 
ATOM      4  C   UNL d   1      31.368  16.517 -24.142  0.00  0.00     0.009 A 
ATOM      5  C   UNL d   1      31.356  17.283 -24.450  0.00  0.00     0.043 A 
ATOM      6  C   UNL d   1      30.673  16.152 -23.931  0.00  0.00     0.001 A 
ATOM      7  O   UNL d   1      30.636  18.449 -24.852  0.00  0.00    -0.286 OA
ENDROOT
BRANCH   3   8
ATOM      8  C   UNL d   1      29.253  16.178 -23.810  0.00  0.00     0.000 A 
ATOM      9  C   UNL d   1      29.023  16.186 -23.017  0.00  0.00     0.000 A 
ATOM     10  C   UNL d   1      28.313  15.817 -22.811  0.00  0.00     0.000 A 
ATOM     11  C   UNL d   1      27.849  15.454 -23.360  0.00  0.00     0.000 A 
ATOM     12  C   UNL d   1      28.094  15.453 -24.162  0.00  0.00     0.000 A 
ATOM     13  C   UNL d   1      28.799  15.818 -24.379  0.00  0.00     0.000 A 
ENDBRANCH   3   8
BRANCH   1  14
ATOM     14  C   UNL d   1      29.221  17.706 -24.422  0.00  0.00     0.303 C 
ATOM     15  O   UNL d   1      28.763  17.578 -25.096  0.00  0.00    -0.259 OA
BRANCH  14  16
ATOM     16  O   UNL d   1      28.955  18.230 -23.839  0.00  0.00    -0.271 OA
BRANCH  16  17
ATOM     17  C   UNL d   1      28.282  18.685 -23.972  0.00  0.00     0.126 C 
ATOM     18  C   UNL d   1      27.937  19.096 -23.347  0.00  0.00     0.029 C 
ENDBRANCH  16  17
ENDBRANCH  14  16
ENDBRANCH   1  14
BRANCH   4  19
ATOM     19  C   UNL d   1      32.092  16.125 -24.052  0.00  0.00     0.030 A 
ATOM     20  S   UNL d   1      32.542  15.786 -24.648  0.00  0.00    -0.086 SA
ATOM     21  C   UNL d   1      33.201  15.467 -24.311  0.00  0.00     0.035 A 
ATOM     22  C   UNL d   1      33.180  15.599 -23.494  0.00  0.00     0.007 A 
ATOM     23  C   UNL d   1      32.486  16.012 -23.327  0.00  0.00     0.007 A 
ENDBRANCH   4  19
TORSDOF 5
ENDMDL
