MODEL 1
REMARK VINA RESULT:      -2.6      0.000      0.000
REMARK  3 active torsions:
REMARK  status: ('A' for Active; 'I' for Inactive)
REMARK    1  A    between atoms: N_3  and  S_1 
REMARK    2  A    between atoms: C_5  and  S_1 
REMARK       I    between atoms: C_2  and  N_4 
REMARK       I    between atoms: N_6  and  C_2 
REMARK    3  A    between atoms: C_13  and  N_6 
ROOT
ATOM      1  C   UNL d   1     -41.886-121.973 -53.002  0.00  0.00     0.339 C 
ATOM      2  N   UNL d   1     -41.864-122.670 -50.614  0.00  0.00    -0.226 N 
ATOM      3  N   UNL d   1     -41.879-122.204 -52.210  0.00  0.00    -0.254 N 
ATOM      4  N   UNL d   1     -42.027-122.527 -53.597  0.00  0.00    -0.257 N 
ATOM      5  C   UNL d   1     -42.007-123.233 -51.207  0.00  0.00     0.111 A 
ATOM      6  C   UNL d   1     -41.730-121.881 -50.820  0.00  0.00     0.111 A 
ATOM      7  O   UNL d   1     -41.750-121.177 -53.192  0.00  0.00    -0.245 OA
ATOM      8  C   UNL d   1     -42.015-123.001 -52.003  0.00  0.00     0.104 A 
ATOM      9  C   UNL d   1     -41.737-121.650 -51.611  0.00  0.00     0.104 A 
ATOM     10  C   UNL d   1     -42.162-123.312 -53.403  0.00  0.00     0.104 C 
ENDROOT
BRANCH   2  11
ATOM     11  S   UNL d   1     -41.857-122.899 -49.826  0.00  0.00     0.271 S 
ATOM     12  O   UNL d   1     -41.124-123.258 -49.946  0.00  0.00    -0.200 OA
ATOM     13  O   UNL d   1     -42.591-122.536 -49.722  0.00  0.00    -0.200 OA
BRANCH  11  14
ATOM     14  C   UNL d   1     -41.850-123.130 -49.035  0.00  0.00     0.104 A 
ATOM     15  C   UNL d   1     -42.558-123.217 -48.632  0.00  0.00     0.013 A 
ATOM     16  C   UNL d   1     -42.550-123.444 -47.852  0.00  0.00     0.001 A 
ATOM     17  C   UNL d   1     -43.259-123.533 -47.441  0.00  0.00     0.000 C 
ATOM     18  C   UNL d   1     -41.847-123.586 -47.470  0.00  0.00     0.000 A 
ATOM     19  C   UNL d   1     -41.140-123.497 -47.881  0.00  0.00     0.001 A 
ATOM     20  C   UNL d   1     -41.840-123.817 -46.678  0.00  0.00     0.000 C 
ATOM     21  C   UNL d   1     -41.147-123.270 -48.660  0.00  0.00     0.013 A 
ENDBRANCH  11  14
ENDBRANCH   2  11
BRANCH   4  22
ATOM     22  C   UNL d   1     -42.033-122.283 -54.393  0.00  0.00     0.068 A 
ATOM     23  C   UNL d   1     -41.375-122.410 -54.878  0.00  0.00     0.018 A 
ATOM     24  C   UNL d   1     -41.395-122.162 -55.665  0.00  0.00     0.002 A 
ATOM     25  C   UNL d   1     -42.065-121.790 -55.968  0.00  0.00     0.000 A 
ATOM     26  C   UNL d   1     -42.725-121.665 -55.474  0.00  0.00     0.002 A 
ATOM     27  C   UNL d   1     -42.081-121.544 -56.755  0.00  0.00     0.000 C 
ATOM     28  C   UNL d   1     -42.701-121.914 -54.688  0.00  0.00     0.018 A 
ENDBRANCH   4  22
TORSDOF 3
ENDMDL
MODEL 2
REMARK VINA RESULT:      -1.8      0.629      1.118
REMARK  3 active torsions:
REMARK  status: ('A' for Active; 'I' for Inactive)
REMARK    1  A    between atoms: N_3  and  S_1 
REMARK    2  A    between atoms: C_5  and  S_1 
REMARK       I    between atoms: C_2  and  N_4 
REMARK       I    between atoms: N_6  and  C_2 
REMARK    3  A    between atoms: C_13  and  N_6 
ROOT
ATOM      1  C   UNL d   1     -41.750-122.870 -53.210  0.00  0.00     0.339 C 
ATOM      2  N   UNL d   1     -41.795-123.194 -50.744  0.00  0.00    -0.226 N 
ATOM      3  N   UNL d   1     -41.765-122.978 -52.392  0.00  0.00    -0.254 N 
ATOM      4  N   UNL d   1     -41.948-122.140 -53.539  0.00  0.00    -0.257 N 
ATOM      5  C   UNL d   1     -41.995-122.455 -51.067  0.00  0.00     0.111 A 
ATOM      6  C   UNL d   1     -41.582-123.817 -51.242  0.00  0.00     0.111 A 
ATOM      7  O   UNL d   1     -41.535-123.507 -53.697  0.00  0.00    -0.245 OA
ATOM      8  C   UNL d   1     -41.980-122.347 -51.889  0.00  0.00     0.104 A 
ATOM      9  C   UNL d   1     -41.568-123.710 -52.060  0.00  0.00     0.104 A 
ATOM     10  C   UNL d   1     -42.160-121.515 -53.052  0.00  0.00     0.104 C 
ENDROOT
BRANCH   2  11
ATOM     11  S   UNL d   1     -41.810-123.301 -49.930  0.00  0.00     0.271 S 
ATOM     12  O   UNL d   1     -42.496-122.845 -49.892  0.00  0.00    -0.200 OA
ATOM     13  O   UNL d   1     -41.123-123.754 -49.986  0.00  0.00    -0.200 OA
BRANCH  11  14
ATOM     14  C   UNL d   1     -41.825-123.408 -49.113  0.00  0.00     0.104 A 
ATOM     15  C   UNL d   1     -42.542-123.413 -48.718  0.00  0.00     0.013 A 
ATOM     16  C   UNL d   1     -42.557-123.519 -47.913  0.00  0.00     0.001 A 
ATOM     17  C   UNL d   1     -43.276-123.525 -47.510  0.00  0.00     0.000 C 
ATOM     18  C   UNL d   1     -41.866-123.619 -47.497  0.00  0.00     0.000 A 
ATOM     19  C   UNL d   1     -41.148-123.613 -47.900  0.00  0.00     0.001 A 
ATOM     20  C   UNL d   1     -41.881-123.727 -46.679  0.00  0.00     0.000 C 
ATOM     21  C   UNL d   1     -41.134-123.508 -48.705  0.00  0.00     0.013 A 
ENDBRANCH  11  14
ENDBRANCH   2  11
BRANCH   4  22
ATOM     22  C   UNL d   1     -41.929-122.043 -54.366  0.00  0.00     0.068 A 
ATOM     23  C   UNL d   1     -42.631-121.974 -54.799  0.00  0.00     0.018 A 
ATOM     24  C   UNL d   1     -42.597-121.878 -55.617  0.00  0.00     0.002 A 
ATOM     25  C   UNL d   1     -41.869-121.851 -56.004  0.00  0.00     0.000 A 
ATOM     26  C   UNL d   1     -41.165-121.921 -55.562  0.00  0.00     0.002 A 
ATOM     27  C   UNL d   1     -41.839-121.755 -56.822  0.00  0.00     0.000 C 
ATOM     28  C   UNL d   1     -41.203-122.017 -54.743  0.00  0.00     0.018 A 
ENDBRANCH   4  22
TORSDOF 3
ENDMDL
