MODEL 1
REMARK VINA RESULT:      -3.5      0.000      0.000
REMARK  4 active torsions:
REMARK  status: ('A' for Active; 'I' for Inactive)
REMARK    1  A    between atoms: C_10  and  N_4 
REMARK    2  A    between atoms: C_11  and  C_10 
REMARK       I    between atoms: N_15  and  C_11 
REMARK    3  A    between atoms: C_12  and  C_20 
REMARK    4  A    between atoms: C_20  and  N_15 
ROOT
ATOM      1  C   UNL d   1      32.841  20.983 -21.346  0.00  0.00     0.174 A 
ATOM      2  C   UNL d   1      32.879  21.559 -21.929  0.00  0.00     0.112 A 
ATOM      3  C   UNL d   1      32.960  20.190 -21.532  0.00  0.00     0.290 A 
ATOM      4  N   UNL d   1      33.119  19.974 -22.311  0.00  0.00    -0.249 N 
ATOM      5  O   UNL d   1      32.675  21.361 -20.628  0.00  0.00    -0.301 OA
ATOM      6  N   UNL d   1      33.038  21.343 -22.708  0.00  0.00    -0.223 NA
ATOM      7  C   UNL d   1      32.738  22.292 -21.579  0.00  0.00     0.043 A 
ATOM      8  C   UNL d   1      33.159  20.550 -22.903  0.00  0.00     0.185 A 
ATOM      9  C   UNL d   1      32.611  22.168 -20.771  0.00  0.00     0.102 A 
ATOM     10  O   UNL d   1      32.922  19.613 -20.946  0.00  0.00    -0.264 OA
ATOM     11  C   UNL d   1      32.709  23.053 -21.890  0.00  0.00     0.004 A 
ATOM     12  C   UNL d   1      32.455  22.811 -20.279  0.00  0.00     0.025 A 
ATOM     13  C   UNL d   1      32.552  23.702 -21.396  0.00  0.00     0.000 A 
ATOM     14  C   UNL d   1      32.426  23.573 -20.590  0.00  0.00     0.002 A 
ENDROOT
BRANCH   4  15
ATOM     15  C   UNL d   1      33.241  19.180 -22.511  0.00  0.00     0.147 C 
BRANCH  15  16
ATOM     16  C   UNL d   1      32.977  18.885 -23.233  0.00  0.00     0.297 C 
ATOM     17  N   UNL d   1      32.456  18.258 -23.237  0.00  0.00    -0.203 NA
ATOM     18  O   UNL d   1      33.235  19.219 -23.941  0.00  0.00    -0.264 OA
BRANCH  17  19
ATOM     19  C   UNL d   1      32.186  17.955 -23.954  0.00  0.00     0.127 C 
BRANCH  19  20
ATOM     20  C   UNL d   1      31.627  17.346 -23.953  0.00  0.00     0.119 A 
ATOM     21  O   UNL d   1      31.641  16.659 -23.496  0.00  0.00    -0.304 OA
ATOM     22  C   UNL d   1      30.965  16.206 -23.678  0.00  0.00     0.123 A 
ATOM     23  C   UNL d   1      30.531  16.619 -24.254  0.00  0.00     0.029 A 
ATOM     24  C   UNL d   1      30.934  17.321 -24.426  0.00  0.00     0.028 A 
ENDBRANCH  19  20
ENDBRANCH  17  19
ENDBRANCH  15  16
ENDBRANCH   4  15
TORSDOF 4
ENDMDL
MODEL 2
REMARK VINA RESULT:      -3.3      1.184      5.423
REMARK  4 active torsions:
REMARK  status: ('A' for Active; 'I' for Inactive)
REMARK    1  A    between atoms: C_10  and  N_4 
REMARK    2  A    between atoms: C_11  and  C_10 
REMARK       I    between atoms: N_15  and  C_11 
REMARK    3  A    between atoms: C_12  and  C_20 
REMARK    4  A    between atoms: C_20  and  N_15 
ROOT
ATOM      1  C   UNL d   1      31.404  16.770 -23.792  0.00  0.00     0.174 A 
ATOM      2  C   UNL d   1      30.938  17.129 -24.364  0.00  0.00     0.112 A 
ATOM      3  C   UNL d   1      32.123  17.101 -23.569  0.00  0.00     0.290 A 
ATOM      4  N   UNL d   1      32.377  17.800 -23.923  0.00  0.00    -0.249 N 
ATOM      5  O   UNL d   1      31.010  16.086 -23.540  0.00  0.00    -0.301 OA
ATOM      6  N   UNL d   1      31.191  17.828 -24.719  0.00  0.00    -0.223 NA
ATOM      7  C   UNL d   1      30.258  16.674 -24.469  0.00  0.00     0.043 A 
ATOM      8  C   UNL d   1      31.912  18.166 -24.500  0.00  0.00     0.185 A 
ATOM      9  C   UNL d   1      30.305  16.026 -23.957  0.00  0.00     0.102 A 
ATOM     10  O   UNL d   1      32.590  16.739 -22.995  0.00  0.00    -0.264 OA
ATOM     11  C   UNL d   1      29.606  16.765 -24.963  0.00  0.00     0.004 A 
ATOM     12  C   UNL d   1      29.693  15.472 -23.944  0.00  0.00     0.025 A 
ATOM     13  C   UNL d   1      28.991  16.209 -24.951  0.00  0.00     0.000 A 
ATOM     14  C   UNL d   1      29.041  15.564 -24.438  0.00  0.00     0.002 A 
ENDROOT
BRANCH   4  15
ATOM     15  C   UNL d   1      33.099  18.143 -23.707  0.00  0.00     0.147 C 
BRANCH  15  16
ATOM     16  C   UNL d   1      33.163  18.959 -23.615  0.00  0.00     0.297 C 
ATOM     17  N   UNL d   1      33.155  19.272 -22.863  0.00  0.00    -0.203 NA
ATOM     18  O   UNL d   1      33.235  19.450 -24.273  0.00  0.00    -0.264 OA
BRANCH  17  19
ATOM     19  C   UNL d   1      33.219  20.088 -22.759  0.00  0.00     0.127 C 
BRANCH  19  20
ATOM     20  C   UNL d   1      33.146  20.407 -22.000  0.00  0.00     0.119 A 
ATOM     21  O   UNL d   1      33.241  20.011 -21.282  0.00  0.00    -0.304 OA
ATOM     22  C   UNL d   1      33.115  20.553 -20.662  0.00  0.00     0.123 A 
ATOM     23  C   UNL d   1      32.942  21.291 -21.002  0.00  0.00     0.029 A 
ATOM     24  C   UNL d   1      32.960  21.207 -21.825  0.00  0.00     0.028 A 
ENDBRANCH  19  20
ENDBRANCH  17  19
ENDBRANCH  15  16
ENDBRANCH   4  15
TORSDOF 4
ENDMDL
MODEL 3
REMARK VINA RESULT:      -3.2      1.027      5.391
REMARK  4 active torsions:
REMARK  status: ('A' for Active; 'I' for Inactive)
REMARK    1  A    between atoms: C_10  and  N_4 
REMARK    2  A    between atoms: C_11  and  C_10 
REMARK       I    between atoms: N_15  and  C_11 
REMARK    3  A    between atoms: C_12  and  C_20 
REMARK    4  A    between atoms: C_20  and  N_15 
ROOT
ATOM      1  C   UNL d   1      32.767  18.506 -23.805  0.00  0.00     0.174 A 
ATOM      2  C   UNL d   1      32.835  17.920 -23.235  0.00  0.00     0.112 A 
ATOM      3  C   UNL d   1      32.899  19.295 -23.613  0.00  0.00     0.290 A 
ATOM      4  N   UNL d   1      33.100  19.497 -22.840  0.00  0.00    -0.249 N 
ATOM      5  O   UNL d   1      32.562  18.139 -24.519  0.00  0.00    -0.301 OA
ATOM      6  N   UNL d   1      33.035  18.122 -22.462  0.00  0.00    -0.223 NA
ATOM      7  C   UNL d   1      32.672  17.193 -23.589  0.00  0.00     0.043 A 
ATOM      8  C   UNL d   1      33.169  18.911 -22.261  0.00  0.00     0.185 A 
ATOM      9  C   UNL d   1      32.503  17.331 -24.387  0.00  0.00     0.102 A 
ATOM     10  O   UNL d   1      32.831  19.882 -24.186  0.00  0.00    -0.264 OA
ATOM     11  C   UNL d   1      32.658  16.427 -23.289  0.00  0.00     0.004 A 
ATOM     12  C   UNL d   1      32.319  16.696 -24.880  0.00  0.00     0.025 A 
ATOM     13  C   UNL d   1      32.472  15.787 -23.785  0.00  0.00     0.000 A 
ATOM     14  C   UNL d   1      32.304  15.929 -24.581  0.00  0.00     0.002 A 
ENDROOT
BRANCH   4  15
ATOM     15  C   UNL d   1      33.234  20.288 -22.634  0.00  0.00     0.147 C 
BRANCH  15  16
ATOM     16  C   UNL d   1      33.052  20.560 -21.878  0.00  0.00     0.297 C 
ATOM     17  N   UNL d   1      32.684  21.282 -21.797  0.00  0.00    -0.203 NA
ATOM     18  O   UNL d   1      33.240  20.109 -21.214  0.00  0.00    -0.264 OA
BRANCH  17  19
ATOM     19  C   UNL d   1      32.497  21.564 -21.045  0.00  0.00     0.127 C 
BRANCH  19  20
ATOM     20  C   UNL d   1      32.291  22.358 -20.948  0.00  0.00     0.119 A 
ATOM     21  O   UNL d   1      31.933  22.851 -21.506  0.00  0.00    -0.304 OA
ATOM     22  C   UNL d   1      31.830  23.604 -21.166  0.00  0.00     0.123 A 
ATOM     23  C   UNL d   1      32.127  23.576 -20.391  0.00  0.00     0.029 A 
ATOM     24  C   UNL d   1      32.412  22.812 -20.252  0.00  0.00     0.028 A 
ENDBRANCH  19  20
ENDBRANCH  17  19
ENDBRANCH  15  16
ENDBRANCH   4  15
TORSDOF 4
ENDMDL
MODEL 4
REMARK VINA RESULT:      -2.4      1.788      5.635
REMARK  4 active torsions:
REMARK  status: ('A' for Active; 'I' for Inactive)
REMARK    1  A    between atoms: C_10  and  N_4 
REMARK    2  A    between atoms: C_11  and  C_10 
REMARK       I    between atoms: N_15  and  C_11 
REMARK    3  A    between atoms: C_12  and  C_20 
REMARK    4  A    between atoms: C_20  and  N_15 
ROOT
ATOM      1  C   UNL d   1      30.331  16.253 -23.497  0.00  0.00     0.174 A 
ATOM      2  C   UNL d   1      29.812  16.582 -24.041  0.00  0.00     0.112 A 
ATOM      3  C   UNL d   1      31.135  16.426 -23.529  0.00  0.00     0.290 A 
ATOM      4  N   UNL d   1      31.420  16.933 -24.111  0.00  0.00    -0.249 N 
ATOM      5  O   UNL d   1      29.889  15.774 -22.986  0.00  0.00    -0.301 OA
ATOM      6  N   UNL d   1      30.097  17.089 -24.624  0.00  0.00    -0.223 NA
ATOM      7  C   UNL d   1      29.051  16.310 -23.871  0.00  0.00     0.043 A 
ATOM      8  C   UNL d   1      30.901  17.267 -24.662  0.00  0.00     0.185 A 
ATOM      9  C   UNL d   1      29.102  15.808 -23.216  0.00  0.00     0.102 A 
ATOM     10  O   UNL d   1      31.655  16.095 -22.982  0.00  0.00    -0.264 OA
ATOM     11  C   UNL d   1      28.324  16.454 -24.228  0.00  0.00     0.004 A 
ATOM     12  C   UNL d   1      28.418  15.453 -22.922  0.00  0.00     0.025 A 
ATOM     13  C   UNL d   1      27.635  16.097 -23.933  0.00  0.00     0.000 A 
ATOM     14  C   UNL d   1      27.690  15.597 -23.279  0.00  0.00     0.002 A 
ENDROOT
BRANCH   4  15
ATOM     15  C   UNL d   1      32.227  17.114 -24.153  0.00  0.00     0.147 C 
BRANCH  15  16
ATOM     16  C   UNL d   1      32.476  17.894 -24.247  0.00  0.00     0.297 C 
ATOM     17  N   UNL d   1      32.746  18.303 -23.596  0.00  0.00    -0.203 NA
ATOM     18  O   UNL d   1      32.454  18.254 -24.988  0.00  0.00    -0.264 OA
BRANCH  17  19
ATOM     19  C   UNL d   1      32.998  19.083 -23.678  0.00  0.00     0.127 C 
BRANCH  19  20
ATOM     20  C   UNL d   1      33.060  19.563 -23.009  0.00  0.00     0.119 A 
ATOM     21  O   UNL d   1      32.968  19.333 -22.221  0.00  0.00    -0.304 OA
ATOM     22  C   UNL d   1      33.079  20.000 -21.735  0.00  0.00     0.123 A 
ATOM     23  C   UNL d   1      33.241  20.649 -22.229  0.00  0.00     0.029 A 
ATOM     24  C   UNL d   1      33.230  20.385 -23.013  0.00  0.00     0.028 A 
ENDBRANCH  19  20
ENDBRANCH  17  19
ENDBRANCH  15  16
ENDBRANCH   4  15
TORSDOF 4
ENDMDL
