MODEL 1
REMARK VINA RESULT:      24.6      0.000      0.000
REMARK  4 active torsions:
REMARK  status: ('A' for Active; 'I' for Inactive)
REMARK    1  A    between atoms: N_8  and  C_1 
REMARK    2  A    between atoms: O_11  and  C_2 
REMARK       I    between atoms: C_12  and  N_8 
REMARK    3  A    between atoms: C_16  and  O_11 
REMARK    4  A    between atoms: O_22  and  C_17 
ROOT
ATOM      1  C   UNL d   1      14.228  12.668  -1.431  0.00  0.00     0.272 A 
ATOM      2  C   UNL d   1      14.540  12.731  -0.726  0.00  0.00     0.284 A 
ATOM      3  C   UNL d   1      13.636  12.451  -2.910  0.00  0.00     0.207 A 
ATOM      4  C   UNL d   1      14.255  11.981  -2.335  0.00  0.00     0.220 A 
ATOM      5  O   UNL d   1      13.918  13.204  -1.302  0.00  0.00    -0.325 OA
ATOM      6  C   UNL d   1      13.956  12.537  -2.155  0.00  0.00     0.182 A 
ATOM      7  O   UNL d   1      13.666  11.959  -3.534  0.00  0.00    -0.327 OA
ATOM      8  C   UNL d   1      13.239  12.288  -3.925  0.00  0.00     0.188 A 
ATOM      9  O   UNL d   1      13.263  12.690  -3.317  0.00  0.00    -0.332 OA
ATOM     10  C   UNL d   1      13.541  12.844  -2.552  0.00  0.00     0.177 A 
ATOM     11  O   UNL d   1      13.981  11.951  -2.921  0.00  0.00    -0.290 OA
ATOM     12  C   UNL d   1      13.336  11.779  -4.440  0.00  0.00     0.061 C 
ATOM     13  C   UNL d   1      12.773  12.634  -4.370  0.00  0.00     0.061 C 
ENDROOT
BRANCH   2  14
ATOM     14  O   UNL d   1      14.510  13.223  -0.099  0.00  0.00    -0.303 OA
BRANCH  14  15
ATOM     15  C   UNL d   1      14.829  13.993  -0.163  0.00  0.00     0.097 A 
ATOM     16  C   UNL d   1      14.322  14.629  -0.283  0.00  0.00     0.026 A 
ATOM     17  C   UNL d   1      14.633  15.399  -0.349  0.00  0.00     0.026 A 
ATOM     18  C   UNL d   1      15.454  15.517  -0.291  0.00  0.00     0.094 A 
ATOM     19  C   UNL d   1      15.959  14.869  -0.169  0.00  0.00     0.026 A 
ATOM     20  C   UNL d   1      15.646  14.101  -0.105  0.00  0.00     0.026 A 
BRANCH  18  21
ATOM     21  O   UNL d   1      15.765  16.287  -0.356  0.00  0.00    -0.328 OA
ATOM     22  C   UNL d   1      15.510  16.788  -0.961  0.00  0.00     0.181 C 
ENDBRANCH  18  21
ENDBRANCH  14  15
ENDBRANCH   2  14
BRANCH   1  23
ATOM     23  N   UNL d   1      14.645  12.358  -1.034  0.00  0.00    -0.380 NA
ATOM     24  C   UNL d   1      15.060  12.049  -0.637  0.00  0.00     0.324 C 
ATOM     25  O   UNL d   1      15.686  11.979  -0.810  0.00  0.00    -0.251 OA
ATOM     26  C   UNL d   1      14.852  11.807  -0.063  0.00  0.00     0.082 C 
ENDBRANCH   1  23
TORSDOF 4
ENDMDL
