MODEL 1
REMARK VINA RESULT:      -6.5      0.000      0.000
REMARK  3 active torsions:
REMARK  status: ('A' for Active; 'I' for Inactive)
REMARK    1  A    between atoms: S_8  and  C_2 
REMARK       I    between atoms: N_6  and  C_7 
REMARK    2  A    between atoms: C_7  and  C_9 
REMARK    3  A    between atoms: C_9  and  S_8 
ROOT
ATOM      1  N   UNL d   1     -49.565  14.290  23.070  0.00  0.00    -0.267 N 
ATOM      2  C   UNL d   1     -49.108  13.598  23.065  0.00  0.00     0.272 C 
ATOM      3  O   UNL d   1     -49.480  12.857  23.109  0.00  0.00    -0.266 OA
ATOM      4  O   UNL d   1     -50.469  15.666  23.078  0.00  0.00    -0.300 OA
ATOM      5  C   UNL d   1     -50.384  14.242  23.117  0.00  0.00     0.110 A 
ATOM      6  C   UNL d   1     -49.197  15.024  23.026  0.00  0.00     0.110 A 
ATOM      7  C   UNL d   1     -49.647  15.711  23.031  0.00  0.00     0.142 A 
ATOM      8  C   UNL d   1     -50.838  14.931  23.121  0.00  0.00     0.142 A 
ENDROOT
BRANCH   2   9
ATOM      9  C   UNL d   1     -48.286  13.644  23.018  0.00  0.00     0.099 C 
BRANCH   9  10
ATOM     10  S   UNL d   1     -47.833  12.959  23.062  0.00  0.00    -0.041 SA
BRANCH  10  11
ATOM     11  C   UNL d   1     -47.020  12.995  22.946  0.00  0.00     0.233 A 
ATOM     12  N   UNL d   1     -46.561  13.184  22.281  0.00  0.00    -0.029 NA
ATOM     13  C   UNL d   1     -45.770  13.125  22.500  0.00  0.00     0.788 A 
ATOM     14  N   UNL d   1     -45.728  12.905  23.282  0.00  0.00     0.050 NA
ATOM     15  N   UNL d   1     -45.119  13.271  21.991  0.00  0.00     0.064 N 
ATOM     16  N   UNL d   1     -46.502  12.821  23.568  0.00  0.00    -0.105 NA
ENDBRANCH  10  11
ENDBRANCH   9  10
ENDBRANCH   2   9
TORSDOF 3
ENDMDL
MODEL 2
REMARK VINA RESULT:      -6.5      1.174      1.513
REMARK  3 active torsions:
REMARK  status: ('A' for Active; 'I' for Inactive)
REMARK    1  A    between atoms: S_8  and  C_2 
REMARK       I    between atoms: N_6  and  C_7 
REMARK    2  A    between atoms: C_7  and  C_9 
REMARK    3  A    between atoms: C_9  and  S_8 
ROOT
ATOM      1  N   UNL d   1     -49.258  13.880  22.221  0.00  0.00    -0.267 N 
ATOM      2  C   UNL d   1     -48.562  14.126  22.597  0.00  0.00     0.272 C 
ATOM      3  O   UNL d   1     -48.558  14.831  23.038  0.00  0.00    -0.266 OA
ATOM      4  O   UNL d   1     -50.638  13.386  21.472  0.00  0.00    -0.300 OA
ATOM      5  C   UNL d   1     -49.942  14.330  22.284  0.00  0.00     0.110 A 
ATOM      6  C   UNL d   1     -49.262  13.182  21.784  0.00  0.00     0.110 A 
ATOM      7  C   UNL d   1     -49.950  12.935  21.410  0.00  0.00     0.142 A 
ATOM      8  C   UNL d   1     -50.634  14.083  21.908  0.00  0.00     0.142 A 
ENDROOT
BRANCH   2   9
ATOM      9  C   UNL d   1     -47.874  13.675  22.535  0.00  0.00     0.099 C 
BRANCH   9  10
ATOM     10  S   UNL d   1     -47.192  13.909  22.932  0.00  0.00    -0.041 SA
BRANCH  10  11
ATOM     11  C   UNL d   1     -46.484  13.513  22.802  0.00  0.00     0.233 A 
ATOM     12  N   UNL d   1     -45.930  13.550  22.186  0.00  0.00    -0.029 NA
ATOM     13  C   UNL d   1     -45.327  13.019  22.362  0.00  0.00     0.788 A 
ATOM     14  N   UNL d   1     -45.493  12.654  23.069  0.00  0.00     0.050 NA
ATOM     15  N   UNL d   1     -44.652  12.882  21.881  0.00  0.00     0.064 N 
ATOM     16  N   UNL d   1     -46.213  12.956  23.352  0.00  0.00    -0.105 NA
ENDBRANCH  10  11
ENDBRANCH   9  10
ENDBRANCH   2   9
TORSDOF 3
ENDMDL
MODEL 3
REMARK VINA RESULT:      -6.2      2.004      4.175
REMARK  3 active torsions:
REMARK  status: ('A' for Active; 'I' for Inactive)
REMARK    1  A    between atoms: S_8  and  C_2 
REMARK       I    between atoms: N_6  and  C_7 
REMARK    2  A    between atoms: C_7  and  C_9 
REMARK    3  A    between atoms: C_9  and  S_8 
ROOT
ATOM      1  N   UNL d   1     -47.453  11.907  23.490  0.00  0.00    -0.267 N 
ATOM      2  C   UNL d   1     -48.278  11.825  23.490  0.00  0.00     0.272 C 
ATOM      3  O   UNL d   1     -48.621  11.098  23.698  0.00  0.00    -0.266 OA
ATOM      4  O   UNL d   1     -45.816  12.075  23.489  0.00  0.00    -0.300 OA
ATOM      5  C   UNL d   1     -46.976  11.271  23.696  0.00  0.00     0.110 A 
ATOM      6  C   UNL d   1     -47.114  12.628  23.283  0.00  0.00     0.110 A 
ATOM      7  C   UNL d   1     -46.297  12.712  23.283  0.00  0.00     0.142 A 
ATOM      8  C   UNL d   1     -46.155  11.355  23.696  0.00  0.00     0.142 A 
ENDROOT
BRANCH   2   9
ATOM      9  C   UNL d   1     -48.759  12.463  23.283  0.00  0.00     0.099 C 
BRANCH   9  10
ATOM     10  S   UNL d   1     -49.572  12.357  23.206  0.00  0.00    -0.041 SA
BRANCH  10  11
ATOM     11  C   UNL d   1     -50.050  12.989  22.992  0.00  0.00     0.233 A 
ATOM     12  N   UNL d   1     -50.183  13.730  23.342  0.00  0.00    -0.029 NA
ATOM     13  C   UNL d   1     -50.726  14.133  22.872  0.00  0.00     0.788 A 
ATOM     14  N   UNL d   1     -50.931  13.662  22.242  0.00  0.00     0.050 NA
ATOM     15  N   UNL d   1     -51.014  14.906  23.028  0.00  0.00     0.064 N 
ATOM     16  N   UNL d   1     -50.515  12.948  22.308  0.00  0.00    -0.105 NA
ENDBRANCH  10  11
ENDBRANCH   9  10
ENDBRANCH   2   9
TORSDOF 3
ENDMDL
MODEL 4
REMARK VINA RESULT:      -6.2      1.413      1.542
REMARK  3 active torsions:
REMARK  status: ('A' for Active; 'I' for Inactive)
REMARK    1  A    between atoms: S_8  and  C_2 
REMARK       I    between atoms: N_6  and  C_7 
REMARK    2  A    between atoms: C_7  and  C_9 
REMARK    3  A    between atoms: C_9  and  S_8 
ROOT
ATOM      1  N   UNL d   1     -49.640  12.524  22.734  0.00  0.00    -0.267 N 
ATOM      2  C   UNL d   1     -48.932  12.191  23.007  0.00  0.00     0.272 C 
ATOM      3  O   UNL d   1     -48.952  11.506  23.478  0.00  0.00    -0.266 OA
ATOM      4  O   UNL d   1     -51.044  13.189  22.189  0.00  0.00    -0.300 OA
ATOM      5  C   UNL d   1     -50.360  12.178  22.928  0.00  0.00     0.110 A 
ATOM      6  C   UNL d   1     -49.620  13.201  22.268  0.00  0.00     0.110 A 
ATOM      7  C   UNL d   1     -50.320  13.534  21.996  0.00  0.00     0.142 A 
ATOM      8  C   UNL d   1     -51.064  12.511  22.655  0.00  0.00     0.142 A 
ENDROOT
BRANCH   2   9
ATOM      9  C   UNL d   1     -48.208  12.536  22.813  0.00  0.00     0.099 C 
BRANCH   9  10
ATOM     10  S   UNL d   1     -47.525  12.313  23.215  0.00  0.00    -0.041 SA
BRANCH  10  11
ATOM     11  C   UNL d   1     -46.812  12.685  23.051  0.00  0.00     0.233 A 
ATOM     12  N   UNL d   1     -46.367  12.752  22.354  0.00  0.00    -0.029 NA
ATOM     13  C   UNL d   1     -45.695  13.193  22.530  0.00  0.00     0.788 A 
ATOM     14  N   UNL d   1     -45.713  13.401  23.316  0.00  0.00     0.050 NA
ATOM     15  N   UNL d   1     -45.093  13.393  21.979  0.00  0.00     0.064 N 
ATOM     16  N   UNL d   1     -46.405  13.088  23.649  0.00  0.00    -0.105 NA
ENDBRANCH  10  11
ENDBRANCH   9  10
ENDBRANCH   2   9
TORSDOF 3
ENDMDL
MODEL 5
REMARK VINA RESULT:      -5.2      2.172      3.644
REMARK  3 active torsions:
REMARK  status: ('A' for Active; 'I' for Inactive)
REMARK    1  A    between atoms: S_8  and  C_2 
REMARK       I    between atoms: N_6  and  C_7 
REMARK    2  A    between atoms: C_7  and  C_9 
REMARK    3  A    between atoms: C_9  and  S_8 
ROOT
ATOM      1  N   UNL d   1     -46.797  13.475  23.034  0.00  0.00    -0.267 N 
ATOM      2  C   UNL d   1     -47.029  12.718  23.279  0.00  0.00     0.272 C 
ATOM      3  O   UNL d   1     -46.466  12.109  23.326  0.00  0.00    -0.266 OA
ATOM      4  O   UNL d   1     -46.341  14.980  22.547  0.00  0.00    -0.300 OA
ATOM      5  C   UNL d   1     -46.013  13.622  22.837  0.00  0.00     0.110 A 
ATOM      6  C   UNL d   1     -47.354  14.079  22.988  0.00  0.00     0.110 A 
ATOM      7  C   UNL d   1     -47.128  14.830  22.745  0.00  0.00     0.142 A 
ATOM      8  C   UNL d   1     -45.784  14.377  22.593  0.00  0.00     0.142 A 
ENDROOT
BRANCH   2   9
ATOM      9  C   UNL d   1     -47.816  12.569  23.477  0.00  0.00     0.099 C 
BRANCH   9  10
ATOM     10  S   UNL d   1     -48.141  11.826  23.335  0.00  0.00    -0.041 SA
BRANCH  10  11
ATOM     11  C   UNL d   1     -48.953  11.717  23.386  0.00  0.00     0.233 A 
ATOM     12  N   UNL d   1     -49.594  12.206  23.191  0.00  0.00    -0.029 NA
ATOM     13  C   UNL d   1     -50.285  11.794  23.365  0.00  0.00     0.788 A 
ATOM     14  N   UNL d   1     -50.088  11.063  23.662  0.00  0.00     0.050 NA
ATOM     15  N   UNL d   1     -51.062  12.089  23.250  0.00  0.00     0.064 N 
ATOM     16  N   UNL d   1     -49.261  11.006  23.679  0.00  0.00    -0.105 NA
ENDBRANCH  10  11
ENDBRANCH   9  10
ENDBRANCH   2   9
TORSDOF 3
ENDMDL
MODEL 6
REMARK VINA RESULT:      -4.3      1.898      4.305
REMARK  3 active torsions:
REMARK  status: ('A' for Active; 'I' for Inactive)
REMARK    1  A    between atoms: S_8  and  C_2 
REMARK       I    between atoms: N_6  and  C_7 
REMARK    2  A    between atoms: C_7  and  C_9 
REMARK    3  A    between atoms: C_9  and  S_8 
ROOT
ATOM      1  N   UNL d   1     -45.560  12.657  22.625  0.00  0.00    -0.267 N 
ATOM      2  C   UNL d   1     -46.285  12.750  23.015  0.00  0.00     0.272 C 
ATOM      3  O   UNL d   1     -46.450  12.300  23.694  0.00  0.00    -0.266 OA
ATOM      4  O   UNL d   1     -44.121  12.475  21.846  0.00  0.00    -0.300 OA
ATOM      5  C   UNL d   1     -45.006  12.120  22.908  0.00  0.00     0.110 A 
ATOM      6  C   UNL d   1     -45.396  13.103  21.953  0.00  0.00     0.110 A 
ATOM      7  C   UNL d   1     -44.679  13.013  21.564  0.00  0.00     0.142 A 
ATOM      8  C   UNL d   1     -44.284  12.028  22.518  0.00  0.00     0.142 A 
ENDROOT
BRANCH   2   9
ATOM      9  C   UNL d   1     -46.843  13.289  22.732  0.00  0.00     0.099 C 
BRANCH   9  10
ATOM     10  S   UNL d   1     -47.514  13.458  23.178  0.00  0.00    -0.041 SA
BRANCH  10  11
ATOM     11  C   UNL d   1     -48.144  13.859  22.837  0.00  0.00     0.233 A 
ATOM     12  N   UNL d   1     -48.741  13.616  22.315  0.00  0.00    -0.029 NA
ATOM     13  C   UNL d   1     -49.221  14.268  22.165  0.00  0.00     0.788 A 
ATOM     14  N   UNL d   1     -48.936  14.907  22.580  0.00  0.00     0.050 NA
ATOM     15  N   UNL d   1     -49.894  14.264  21.663  0.00  0.00     0.064 N 
ATOM     16  N   UNL d   1     -48.265  14.662  23.001  0.00  0.00    -0.105 NA
ENDBRANCH  10  11
ENDBRANCH   9  10
ENDBRANCH   2   9
TORSDOF 3
ENDMDL
MODEL 7
REMARK VINA RESULT:      -4.3      8.581      9.999
REMARK  3 active torsions:
REMARK  status: ('A' for Active; 'I' for Inactive)
REMARK    1  A    between atoms: S_8  and  C_2 
REMARK       I    between atoms: N_6  and  C_7 
REMARK    2  A    between atoms: C_7  and  C_9 
REMARK    3  A    between atoms: C_9  and  S_8 
ROOT
ATOM      1  N   UNL d   1     -39.512  14.703  17.482  0.00  0.00    -0.267 N 
ATOM      2  C   UNL d   1     -40.017  14.486  18.103  0.00  0.00     0.272 C 
ATOM      3  O   UNL d   1     -40.452  13.779  18.053  0.00  0.00    -0.266 OA
ATOM      4  O   UNL d   1     -38.508  15.139  16.252  0.00  0.00    -0.300 OA
ATOM      5  C   UNL d   1     -39.442  14.221  16.820  0.00  0.00     0.110 A 
ATOM      6  C   UNL d   1     -39.082  15.403  17.531  0.00  0.00     0.110 A 
ATOM      7  C   UNL d   1     -38.581  15.621  16.918  0.00  0.00     0.142 A 
ATOM      8  C   UNL d   1     -38.939  14.439  16.204  0.00  0.00     0.142 A 
ENDROOT
BRANCH   2   9
ATOM      9  C   UNL d   1     -40.089  14.969  18.768  0.00  0.00     0.099 C 
BRANCH   9  10
ATOM     10  S   UNL d   1     -40.544  14.721  19.408  0.00  0.00    -0.041 SA
BRANCH  10  11
ATOM     11  C   UNL d   1     -40.513  15.133  20.118  0.00  0.00     0.233 A 
ATOM     12  N   UNL d   1     -39.917  15.212  20.690  0.00  0.00    -0.029 NA
ATOM     13  C   UNL d   1     -40.208  15.698  21.286  0.00  0.00     0.788 A 
ATOM     14  N   UNL d   1     -40.967  15.922  21.099  0.00  0.00     0.050 NA
ATOM     15  N   UNL d   1     -39.782  15.922  21.974  0.00  0.00     0.064 N 
ATOM     16  N   UNL d   1     -41.166  15.574  20.372  0.00  0.00    -0.105 NA
ENDBRANCH  10  11
ENDBRANCH   9  10
ENDBRANCH   2   9
TORSDOF 3
ENDMDL
MODEL 8
REMARK VINA RESULT:      -3.9      9.317      9.895
REMARK  3 active torsions:
REMARK  status: ('A' for Active; 'I' for Inactive)
REMARK    1  A    between atoms: S_8  and  C_2 
REMARK       I    between atoms: N_6  and  C_7 
REMARK    2  A    between atoms: C_7  and  C_9 
REMARK    3  A    between atoms: C_9  and  S_8 
ROOT
ATOM      1  N   UNL d   1     -39.797  15.165  18.253  0.00  0.00    -0.267 N 
ATOM      2  C   UNL d   1     -39.213  15.247  18.836  0.00  0.00     0.272 C 
ATOM      3  O   UNL d   1     -38.660  15.864  18.782  0.00  0.00    -0.266 OA
ATOM      4  O   UNL d   1     -40.958  14.998  17.097  0.00  0.00    -0.300 OA
ATOM      5  C   UNL d   1     -39.827  15.693  17.624  0.00  0.00     0.110 A 
ATOM      6  C   UNL d   1     -40.345  14.554  18.306  0.00  0.00     0.110 A 
ATOM      7  C   UNL d   1     -40.924  14.470  17.730  0.00  0.00     0.142 A 
ATOM      8  C   UNL d   1     -40.409  15.609  17.044  0.00  0.00     0.142 A 
ENDROOT
BRANCH   2   9
ATOM      9  C   UNL d   1     -39.181  14.718  19.469  0.00  0.00     0.099 C 
BRANCH   9  10
ATOM     10  S   UNL d   1     -38.584  14.787  20.031  0.00  0.00    -0.041 SA
BRANCH  10  11
ATOM     11  C   UNL d   1     -38.570  14.282  20.679  0.00  0.00     0.233 A 
ATOM     12  N   UNL d   1     -39.002  14.274  21.388  0.00  0.00    -0.029 NA
ATOM     13  C   UNL d   1     -38.744  13.628  21.828  0.00  0.00     0.788 A 
ATOM     14  N   UNL d   1     -38.165  13.238  21.412  0.00  0.00     0.050 NA
ATOM     15  N   UNL d   1     -39.038  13.416  22.586  0.00  0.00     0.064 N 
ATOM     16  N   UNL d   1     -38.050  13.638  20.694  0.00  0.00    -0.105 NA
ENDBRANCH  10  11
ENDBRANCH   9  10
ENDBRANCH   2   9
TORSDOF 3
ENDMDL
