MODEL 1
REMARK VINA RESULT:      -2.7      0.000      0.000
REMARK  6 active torsions:
REMARK  status: ('A' for Active; 'I' for Inactive)
REMARK    1  A    between atoms: C_6  and  N_2 
REMARK    2  A    between atoms: C_7  and  C_3 
REMARK    3  A    between atoms: C_14  and  C_6 
REMARK    4  A    between atoms: C_8  and  O_16 
REMARK    5  A    between atoms: C_19  and  C_14 
REMARK    6  A    between atoms: O_16  and  C_19 
ROOT
ATOM      1  N   UNL d   1      32.790  23.477 -21.769  0.00  0.00    -0.224 NA
ATOM      2  N   UNL d   1      33.084  22.166 -21.880  0.00  0.00    -0.286 N 
ATOM      3  C   UNL d   1      32.937  22.858 -22.314  0.00  0.00     0.191 A 
ATOM      4  C   UNL d   1      33.030  22.349 -21.068  0.00  0.00     0.083 A 
ATOM      5  C   UNL d   1      32.849  23.154 -20.998  0.00  0.00     0.099 A 
ATOM      6  C   UNL d   1      33.120  21.895 -20.384  0.00  0.00     0.019 A 
ATOM      7  C   UNL d   1      32.760  23.500 -20.256  0.00  0.00     0.021 A 
ATOM      8  C   UNL d   1      33.030  22.242 -19.640  0.00  0.00     0.002 A 
ATOM      9  C   UNL d   1      32.850  23.045 -19.579  0.00  0.00     0.002 A 
ENDROOT
BRANCH   2  10
ATOM     10  C   UNL d   1      33.239  21.505 -22.345  0.00  0.00     0.084 C 
BRANCH  10  11
ATOM     11  C   UNL d   1      33.017  20.765 -22.079  0.00  0.00     0.046 C 
BRANCH  11  12
ATOM     12  C   UNL d   1      33.119  20.117 -22.575  0.00  0.00     0.124 C 
BRANCH  12  13
ATOM     13  O   UNL d   1      32.916  19.362 -22.313  0.00  0.00    -0.305 OA
BRANCH  13  14
ATOM     14  C   UNL d   1      32.878  18.735 -22.849  0.00  0.00     0.100 A 
ATOM     15  C   UNL d   1      32.480  18.830 -23.567  0.00  0.00     0.025 A 
ATOM     16  C   UNL d   1      32.442  18.208 -24.100  0.00  0.00     0.002 A 
ATOM     17  C   UNL d   1      32.802  17.484 -23.922  0.00  0.00     0.000 A 
ATOM     18  C   UNL d   1      33.203  17.394 -23.197  0.00  0.00     0.002 A 
ATOM     19  C   UNL d   1      32.766  16.861 -24.453  0.00  0.00     0.000 C 
ATOM     20  C   UNL d   1      33.238  18.021 -22.665  0.00  0.00     0.025 A 
ENDBRANCH  13  14
ENDBRANCH  12  13
ENDBRANCH  11  12
ENDBRANCH  10  11
ENDBRANCH   2  10
BRANCH   3  21
ATOM     21  C   UNL d   1      32.935  22.928 -23.136  0.00  0.00     0.271 C 
ATOM     22  O   UNL d   1      33.024  23.668 -23.487  0.00  0.00    -0.280 OA
ENDBRANCH   3  21
TORSDOF 6
ENDMDL
MODEL 2
REMARK VINA RESULT:      -1.9      1.285      2.073
REMARK  6 active torsions:
REMARK  status: ('A' for Active; 'I' for Inactive)
REMARK    1  A    between atoms: C_6  and  N_2 
REMARK    2  A    between atoms: C_7  and  C_3 
REMARK    3  A    between atoms: C_14  and  C_6 
REMARK    4  A    between atoms: C_8  and  O_16 
REMARK    5  A    between atoms: C_19  and  C_14 
REMARK    6  A    between atoms: O_16  and  C_19 
ROOT
ATOM      1  N   UNL d   1      33.157  22.646 -21.164  0.00  0.00    -0.224 NA
ATOM      2  N   UNL d   1      33.214  21.539 -21.930  0.00  0.00    -0.286 N 
ATOM      3  C   UNL d   1      33.181  21.809 -21.146  0.00  0.00     0.191 A 
ATOM      4  C   UNL d   1      33.210  22.200 -22.437  0.00  0.00     0.083 A 
ATOM      5  C   UNL d   1      33.175  22.882 -21.968  0.00  0.00     0.099 A 
ATOM      6  C   UNL d   1      33.234  22.278 -23.259  0.00  0.00     0.019 A 
ATOM      7  C   UNL d   1      33.164  23.629 -22.315  0.00  0.00     0.021 A 
ATOM      8  C   UNL d   1      33.223  23.027 -23.606  0.00  0.00     0.002 A 
ATOM      9  C   UNL d   1      33.188  23.701 -23.132  0.00  0.00     0.002 A 
ENDROOT
BRANCH   2  10
ATOM     10  C   UNL d   1      33.241  20.719 -22.002  0.00  0.00     0.084 C 
BRANCH  10  11
ATOM     11  C   UNL d   1      32.974  20.366 -22.688  0.00  0.00     0.046 C 
BRANCH  11  12
ATOM     12  C   UNL d   1      32.912  19.546 -22.716  0.00  0.00     0.124 C 
BRANCH  12  13
ATOM     13  O   UNL d   1      33.025  19.149 -23.430  0.00  0.00    -0.305 OA
BRANCH  13  14
ATOM     14  C   UNL d   1      32.663  18.419 -23.557  0.00  0.00     0.100 A 
ATOM     15  C   UNL d   1      32.807  17.791 -23.040  0.00  0.00     0.025 A 
ATOM     16  C   UNL d   1      32.447  17.064 -23.165  0.00  0.00     0.002 A 
ATOM     17  C   UNL d   1      31.939  16.957 -23.810  0.00  0.00     0.000 A 
ATOM     18  C   UNL d   1      31.797  17.593 -24.329  0.00  0.00     0.002 A 
ATOM     19  C   UNL d   1      31.578  16.232 -23.938  0.00  0.00     0.000 C 
ATOM     20  C   UNL d   1      32.160  18.320 -24.199  0.00  0.00     0.025 A 
ENDBRANCH  13  14
ENDBRANCH  12  13
ENDBRANCH  11  12
ENDBRANCH  10  11
ENDBRANCH   2  10
BRANCH   3  21
ATOM     21  C   UNL d   1      33.174  21.340 -20.467  0.00  0.00     0.271 C 
ATOM     22  O   UNL d   1      33.020  21.680 -19.733  0.00  0.00    -0.280 OA
ENDBRANCH   3  21
TORSDOF 6
ENDMDL
MODEL 3
REMARK VINA RESULT:      -1.6      1.177      1.655
REMARK  6 active torsions:
REMARK  status: ('A' for Active; 'I' for Inactive)
REMARK    1  A    between atoms: C_6  and  N_2 
REMARK    2  A    between atoms: C_7  and  C_3 
REMARK    3  A    between atoms: C_14  and  C_6 
REMARK    4  A    between atoms: C_8  and  O_16 
REMARK    5  A    between atoms: C_19  and  C_14 
REMARK    6  A    between atoms: O_16  and  C_19 
ROOT
ATOM      1  N   UNL d   1      31.720  23.702 -20.169  0.00  0.00    -0.224 NA
ATOM      2  N   UNL d   1      32.713  22.858 -20.514  0.00  0.00    -0.286 N 
ATOM      3  C   UNL d   1      32.086  23.312 -20.813  0.00  0.00     0.191 A 
ATOM      4  C   UNL d   1      32.741  22.962 -19.687  0.00  0.00     0.083 A 
ATOM      5  C   UNL d   1      32.132  23.481 -19.474  0.00  0.00     0.099 A 
ATOM      6  C   UNL d   1      33.236  22.658 -19.100  0.00  0.00     0.019 A 
ATOM      7  C   UNL d   1      32.019  23.692 -18.685  0.00  0.00     0.021 A 
ATOM      8  C   UNL d   1      33.123  22.870 -18.310  0.00  0.00     0.002 A 
ATOM      9  C   UNL d   1      32.514  23.387 -18.105  0.00  0.00     0.002 A 
ENDROOT
BRANCH   2  10
ATOM     10  C   UNL d   1      33.128  22.439 -21.088  0.00  0.00     0.084 C 
BRANCH  10  11
ATOM     11  C   UNL d   1      33.172  21.624 -21.038  0.00  0.00     0.046 C 
BRANCH  11  12
ATOM     12  C   UNL d   1      33.241  21.187 -21.731  0.00  0.00     0.124 C 
BRANCH  12  13
ATOM     13  O   UNL d   1      32.934  20.421 -21.766  0.00  0.00    -0.305 OA
BRANCH  13  14
ATOM     14  C   UNL d   1      32.989  19.988 -22.466  0.00  0.00     0.100 A 
ATOM     15  C   UNL d   1      33.129  20.376 -23.182  0.00  0.00     0.025 A 
ATOM     16  C   UNL d   1      33.184  19.946 -23.879  0.00  0.00     0.002 A 
ATOM     17  C   UNL d   1      33.098  19.123 -23.867  0.00  0.00     0.000 A 
ATOM     18  C   UNL d   1      32.956  18.736 -23.143  0.00  0.00     0.002 A 
ATOM     19  C   UNL d   1      33.151  18.690 -24.561  0.00  0.00     0.000 C 
ATOM     20  C   UNL d   1      32.902  19.172 -22.447  0.00  0.00     0.025 A 
ENDBRANCH  13  14
ENDBRANCH  12  13
ENDBRANCH  11  12
ENDBRANCH  10  11
ENDBRANCH   2  10
BRANCH   3  21
ATOM     21  C   UNL d   1      31.859  23.370 -21.604  0.00  0.00     0.271 C 
ATOM     22  O   UNL d   1      31.128  23.696 -21.801  0.00  0.00    -0.280 OA
ENDBRANCH   3  21
TORSDOF 6
ENDMDL
MODEL 4
REMARK VINA RESULT:      -1.0      1.449      2.102
REMARK  6 active torsions:
REMARK  status: ('A' for Active; 'I' for Inactive)
REMARK    1  A    between atoms: C_6  and  N_2 
REMARK    2  A    between atoms: C_7  and  C_3 
REMARK    3  A    between atoms: C_14  and  C_6 
REMARK    4  A    between atoms: C_8  and  O_16 
REMARK    5  A    between atoms: C_19  and  C_14 
REMARK    6  A    between atoms: O_16  and  C_19 
ROOT
ATOM      1  N   UNL d   1      33.086  21.924 -23.014  0.00  0.00    -0.224 NA
ATOM      2  N   UNL d   1      33.051  20.578 -22.971  0.00  0.00    -0.286 N 
ATOM      3  C   UNL d   1      33.096  21.230 -23.482  0.00  0.00     0.191 A 
ATOM      4  C   UNL d   1      33.013  20.859 -22.188  0.00  0.00     0.083 A 
ATOM      5  C   UNL d   1      33.034  21.687 -22.212  0.00  0.00     0.099 A 
ATOM      6  C   UNL d   1      32.962  20.479 -21.457  0.00  0.00     0.019 A 
ATOM      7  C   UNL d   1      33.005  22.127 -21.516  0.00  0.00     0.021 A 
ATOM      8  C   UNL d   1      32.933  20.920 -20.759  0.00  0.00     0.002 A 
ATOM      9  C   UNL d   1      32.954  21.744 -20.792  0.00  0.00     0.002 A 
ENDROOT
BRANCH   2  10
ATOM     10  C   UNL d   1      33.056  19.850 -23.355  0.00  0.00     0.084 C 
BRANCH  10  11
ATOM     11  C   UNL d   1      32.679  19.211 -23.013  0.00  0.00     0.046 C 
BRANCH  11  12
ATOM     12  C   UNL d   1      32.705  18.482 -23.393  0.00  0.00     0.124 C 
BRANCH  12  13
ATOM     13  O   UNL d   1      32.157  18.306 -23.983  0.00  0.00    -0.305 OA
BRANCH  13  14
ATOM     14  C   UNL d   1      31.741  17.594 -23.960  0.00  0.00     0.100 A 
ATOM     15  C   UNL d   1      32.134  16.891 -23.772  0.00  0.00     0.025 A 
ATOM     16  C   UNL d   1      31.722  16.183 -23.748  0.00  0.00     0.002 A 
ATOM     17  C   UNL d   1      30.910  16.169 -23.912  0.00  0.00     0.000 A 
ATOM     18  C   UNL d   1      30.518  16.878 -24.100  0.00  0.00     0.002 A 
ATOM     19  C   UNL d   1      30.495  15.462 -23.889  0.00  0.00     0.000 C 
ATOM     20  C   UNL d   1      30.936  17.587 -24.123  0.00  0.00     0.025 A 
ENDBRANCH  13  14
ENDBRANCH  12  13
ENDBRANCH  11  12
ENDBRANCH  10  11
ENDBRANCH   2  10
BRANCH   3  21
ATOM     21  C   UNL d   1      33.142  21.204 -24.306  0.00  0.00     0.271 C 
ATOM     22  O   UNL d   1      33.171  21.904 -24.739  0.00  0.00    -0.280 OA
ENDBRANCH   3  21
TORSDOF 6
ENDMDL
MODEL 5
REMARK VINA RESULT:      -0.7      2.843      5.836
REMARK  6 active torsions:
REMARK  status: ('A' for Active; 'I' for Inactive)
REMARK    1  A    between atoms: C_6  and  N_2 
REMARK    2  A    between atoms: C_7  and  C_3 
REMARK    3  A    between atoms: C_14  and  C_6 
REMARK    4  A    between atoms: C_8  and  O_16 
REMARK    5  A    between atoms: C_19  and  C_14 
REMARK    6  A    between atoms: O_16  and  C_19 
ROOT
ATOM      1  N   UNL d   1      30.554  16.009 -24.737  0.00  0.00    -0.224 NA
ATOM      2  N   UNL d   1      31.193  17.008 -24.096  0.00  0.00    -0.286 N 
ATOM      3  C   UNL d   1      31.282  16.238 -24.391  0.00  0.00     0.191 A 
ATOM      4  C   UNL d   1      30.416  17.263 -24.255  0.00  0.00     0.083 A 
ATOM      5  C   UNL d   1      30.021  16.650 -24.648  0.00  0.00     0.099 A 
ATOM      6  C   UNL d   1      30.012  17.965 -24.096  0.00  0.00     0.019 A 
ATOM      7  C   UNL d   1      29.235  16.739 -24.880  0.00  0.00     0.021 A 
ATOM      8  C   UNL d   1      29.224  18.054 -24.328  0.00  0.00     0.002 A 
ATOM      9  C   UNL d   1      28.838  17.439 -24.720  0.00  0.00     0.002 A 
ENDROOT
BRANCH   2  10
ATOM     10  C   UNL d   1      31.870  17.310 -23.738  0.00  0.00     0.084 C 
BRANCH  10  11
ATOM     11  C   UNL d   1      32.172  18.027 -23.986  0.00  0.00     0.046 C 
BRANCH  11  12
ATOM     12  C   UNL d   1      32.758  18.390 -23.538  0.00  0.00     0.124 C 
BRANCH  12  13
ATOM     13  O   UNL d   1      32.877  19.204 -23.597  0.00  0.00    -0.305 OA
BRANCH  13  14
ATOM     14  C   UNL d   1      32.968  19.658 -22.913  0.00  0.00     0.100 A 
ATOM     15  C   UNL d   1      33.088  19.287 -22.184  0.00  0.00     0.025 A 
ATOM     16  C   UNL d   1      33.178  19.737 -21.505  0.00  0.00     0.002 A 
ATOM     17  C   UNL d   1      33.151  20.563 -21.546  0.00  0.00     0.000 A 
ATOM     18  C   UNL d   1      33.030  20.932 -22.282  0.00  0.00     0.002 A 
ATOM     19  C   UNL d   1      33.241  21.015 -20.868  0.00  0.00     0.000 C 
ATOM     20  C   UNL d   1      32.939  20.477 -22.962  0.00  0.00     0.025 A 
ENDBRANCH  13  14
ENDBRANCH  12  13
ENDBRANCH  11  12
ENDBRANCH  10  11
ENDBRANCH   2  10
BRANCH   3  21
ATOM     21  C   UNL d   1      31.964  15.775 -24.353  0.00  0.00     0.271 C 
ATOM     22  O   UNL d   1      32.289  15.463 -25.043  0.00  0.00    -0.280 OA
ENDBRANCH   3  21
TORSDOF 6
ENDMDL
MODEL 6
REMARK VINA RESULT:      -0.3      3.358      5.816
REMARK  6 active torsions:
REMARK  status: ('A' for Active; 'I' for Inactive)
REMARK    1  A    between atoms: C_6  and  N_2 
REMARK    2  A    between atoms: C_7  and  C_3 
REMARK    3  A    between atoms: C_14  and  C_6 
REMARK    4  A    between atoms: C_8  and  O_16 
REMARK    5  A    between atoms: C_19  and  C_14 
REMARK    6  A    between atoms: O_16  and  C_19 
ROOT
ATOM      1  N   UNL d   1      28.588  17.462 -24.064  0.00  0.00    -0.224 NA
ATOM      2  N   UNL d   1      29.818  17.170 -24.530  0.00  0.00    -0.286 N 
ATOM      3  C   UNL d   1      29.188  17.706 -24.594  0.00  0.00     0.191 A 
ATOM      4  C   UNL d   1      29.615  16.593 -23.964  0.00  0.00     0.083 A 
ATOM      5  C   UNL d   1      28.860  16.771 -23.677  0.00  0.00     0.099 A 
ATOM      6  C   UNL d   1      30.012  15.930 -23.671  0.00  0.00     0.019 A 
ATOM      7  C   UNL d   1      28.506  16.294 -23.104  0.00  0.00     0.021 A 
ATOM      8  C   UNL d   1      29.658  15.453 -23.098  0.00  0.00     0.002 A 
ATOM      9  C   UNL d   1      28.905  15.637 -22.816  0.00  0.00     0.002 A 
ENDROOT
BRANCH   2  10
ATOM     10  C   UNL d   1      30.455  17.339 -25.023  0.00  0.00     0.084 C 
BRANCH  10  11
ATOM     11  C   UNL d   1      31.195  17.459 -24.699  0.00  0.00     0.046 C 
BRANCH  11  12
ATOM     12  C   UNL d   1      31.631  18.116 -24.933  0.00  0.00     0.124 C 
BRANCH  12  13
ATOM     13  O   UNL d   1      32.412  18.202 -24.682  0.00  0.00    -0.305 OA
BRANCH  13  14
ATOM     14  C   UNL d   1      32.620  18.829 -24.188  0.00  0.00     0.100 A 
ATOM     15  C   UNL d   1      32.935  19.522 -24.511  0.00  0.00     0.025 A 
ATOM     16  C   UNL d   1      33.141  20.147 -24.021  0.00  0.00     0.002 A 
ATOM     17  C   UNL d   1      33.035  20.086 -23.202  0.00  0.00     0.000 A 
ATOM     18  C   UNL d   1      32.718  19.386 -22.881  0.00  0.00     0.002 A 
ATOM     19  C   UNL d   1      33.241  20.709 -22.710  0.00  0.00     0.000 C 
ATOM     20  C   UNL d   1      32.512  18.762 -23.377  0.00  0.00     0.025 A 
ENDBRANCH  13  14
ENDBRANCH  12  13
ENDBRANCH  11  12
ENDBRANCH  10  11
ENDBRANCH   2  10
BRANCH   3  21
ATOM     21  C   UNL d   1      29.156  18.365 -25.091  0.00  0.00     0.271 C 
ATOM     22  O   UNL d   1      28.556  18.922 -24.997  0.00  0.00    -0.280 OA
ENDBRANCH   3  21
TORSDOF 6
ENDMDL
MODEL 7
REMARK VINA RESULT:       0.2      3.492      6.068
REMARK  6 active torsions:
REMARK  status: ('A' for Active; 'I' for Inactive)
REMARK    1  A    between atoms: C_6  and  N_2 
REMARK    2  A    between atoms: C_7  and  C_3 
REMARK    3  A    between atoms: C_14  and  C_6 
REMARK    4  A    between atoms: C_8  and  O_16 
REMARK    5  A    between atoms: C_19  and  C_14 
REMARK    6  A    between atoms: O_16  and  C_19 
ROOT
ATOM      1  N   UNL d   1      28.689  16.485 -23.219  0.00  0.00    -0.224 NA
ATOM      2  N   UNL d   1      29.895  16.386 -23.815  0.00  0.00    -0.286 N 
ATOM      3  C   UNL d   1      29.416  16.069 -23.215  0.00  0.00     0.191 A 
ATOM      4  C   UNL d   1      29.472  16.997 -24.193  0.00  0.00     0.083 A 
ATOM      5  C   UNL d   1      28.731  17.059 -23.828  0.00  0.00     0.099 A 
ATOM      6  C   UNL d   1      29.658  17.504 -24.817  0.00  0.00     0.019 A 
ATOM      7  C   UNL d   1      28.184  17.620 -24.083  0.00  0.00     0.021 A 
ATOM      8  C   UNL d   1      29.110  18.067 -25.073  0.00  0.00     0.002 A 
ATOM      9  C   UNL d   1      28.373  18.123 -24.704  0.00  0.00     0.002 A 
ENDROOT
BRANCH   2  10
ATOM     10  C   UNL d   1      30.633  16.029 -23.878  0.00  0.00     0.084 C 
BRANCH  10  11
ATOM     11  C   UNL d   1      31.273  16.470 -24.131  0.00  0.00     0.046 C 
BRANCH  11  12
ATOM     12  C   UNL d   1      31.915  16.566 -23.626  0.00  0.00     0.124 C 
BRANCH  12  13
ATOM     13  O   UNL d   1      32.577  16.990 -23.877  0.00  0.00    -0.305 OA
BRANCH  13  14
ATOM     14  C   UNL d   1      32.742  17.728 -23.547  0.00  0.00     0.100 A 
ATOM     15  C   UNL d   1      32.927  17.790 -22.744  0.00  0.00     0.025 A 
ATOM     16  C   UNL d   1      33.092  18.523 -22.416  0.00  0.00     0.002 A 
ATOM     17  C   UNL d   1      33.074  19.203 -22.887  0.00  0.00     0.000 A 
ATOM     18  C   UNL d   1      32.887  19.137 -23.696  0.00  0.00     0.002 A 
ATOM     19  C   UNL d   1      33.238  19.938 -22.561  0.00  0.00     0.000 C 
ATOM     20  C   UNL d   1      32.722  18.399 -24.021  0.00  0.00     0.025 A 
ENDBRANCH  13  14
ENDBRANCH  12  13
ENDBRANCH  11  12
ENDBRANCH  10  11
ENDBRANCH   2  10
BRANCH   3  21
ATOM     21  C   UNL d   1      29.617  15.453 -22.704  0.00  0.00     0.271 C 
ATOM     22  O   UNL d   1      29.340  15.454 -21.928  0.00  0.00    -0.280 OA
ENDBRANCH   3  21
TORSDOF 6
ENDMDL
