MODEL 1
REMARK VINA RESULT:      60.3      0.000      0.000
REMARK  3 active torsions:
REMARK  status: ('A' for Active; 'I' for Inactive)
REMARK    1  A    between atoms: N_4  and  C_8 
REMARK    2  A    between atoms: N_12  and  C_6 
REMARK       I    between atoms: C_11  and  N_12 
REMARK    3  A    between atoms: C_14  and  C_11 
ROOT
ATOM      1  C   UNL d   1     -54.957-101.591 -41.357  0.00  0.00     0.279 C 
ATOM      2  N   UNL d   1     -54.711-100.954 -40.950  0.00  0.00    -0.208 NA
ATOM      3  O   UNL d   1     -55.295-102.260 -40.957  0.00  0.00    -0.265 OA
ENDROOT
BRANCH   1   4
ATOM      4  C   UNL d   1     -54.889-101.616 -42.177  0.00  0.00     0.059 A 
ATOM      5  C   UNL d   1     -54.868-100.917 -42.624  0.00  0.00     0.022 A 
ATOM      6  C   UNL d   1     -54.801-100.955 -43.444  0.00  0.00     0.070 A 
ATOM      7  C   UNL d   1     -54.752-101.626 -43.856  0.00  0.00     0.018 A 
ATOM      8  C   UNL d   1     -54.769-102.336 -43.454  0.00  0.00     0.002 A 
ATOM      9  C   UNL d   1     -54.837-102.373 -42.619  0.00  0.00     0.005 A 
BRANCH   6  10
ATOM     10  N   UNL d   1     -54.781-100.213 -43.889  0.00  0.00    -0.242 N 
ATOM     11  C   UNL d   1     -54.763-100.225 -44.714  0.00  0.00     0.267 A 
ATOM     12  C   UNL d   1     -54.747 -99.440 -44.962  0.00  0.00     0.066 A 
ATOM     13  O   UNL d   1     -54.761-100.957 -45.211  0.00  0.00    -0.267 OA
ATOM     14  C   UNL d   1     -54.755 -98.958 -44.326  0.00  0.00     0.066 A 
ATOM     15  C   UNL d   1     -54.777 -99.437 -43.638  0.00  0.00     0.267 A 
ATOM     16  O   UNL d   1     -54.792 -99.191 -42.820  0.00  0.00    -0.267 OA
ENDBRANCH   6  10
ENDBRANCH   1   4
BRANCH   2  17
ATOM     17  C   UNL d   1     -54.781-100.928 -40.100  0.00  0.00     0.089 A 
ATOM     18  C   UNL d   1     -54.811-101.611 -39.641  0.00  0.00     0.080 A 
ATOM     19  C   UNL d   1     -54.783-102.432 -39.855  0.00  0.00     0.283 A 
ATOM     20  C   UNL d   1     -54.882-101.584 -38.771  0.00  0.00     0.064 A 
ATOM     21  N   UNL d   1     -54.835-102.880 -39.159  0.00  0.00    -0.169 NA
ATOM     22  O   UNL d   1     -54.714-102.757 -40.652  0.00  0.00    -0.265 OA
ATOM     23  C   UNL d   1     -54.896-102.361 -38.493  0.00  0.00     0.282 A 
ATOM     24  O   UNL d   1     -54.961-102.575 -37.667  0.00  0.00    -0.265 OA
ATOM     25  C   UNL d   1     -54.920-100.851 -38.415  0.00  0.00     0.005 A 
ATOM     26  C   UNL d   1     -54.892-100.168 -38.849  0.00  0.00     0.002 A 
ATOM     27  C   UNL d   1     -54.821-100.182 -39.712  0.00  0.00     0.019 A 
ENDBRANCH   2  17
TORSDOF 3
ENDMDL
