MODEL 1
REMARK VINA RESULT:      10.9      0.000      0.000
REMARK  4 active torsions:
REMARK  status: ('A' for Active; 'I' for Inactive)
REMARK    1  A    between atoms: C_5  and  C_3 
REMARK    2  A    between atoms: C_8  and  C_5 
REMARK    3  A    between atoms: C_7  and  C_9 
REMARK    4  A    between atoms: C_9  and  C_8 
ROOT
ATOM      1  C   UNL d   1      45.925 -16.930  43.926  0.00  0.00     0.042 C 
ENDROOT
BRANCH   1   2
ATOM      2  C   UNL d   1      45.697 -16.395  44.507  0.00  0.00     0.006 C 
BRANCH   2   3
ATOM      3  C   UNL d   1      45.823 -15.580  44.390  0.00  0.00     0.039 A 
ATOM      4  C   UNL d   1      46.463 -15.154  44.065  0.00  0.00     0.122 A 
ATOM      5  N   UNL d   1      46.271 -14.364  44.095  0.00  0.00    -0.164 NA
ATOM      6  N   UNL d   1      45.526 -14.276  44.430  0.00  0.00    -0.227 N 
ATOM      7  C   UNL d   1      45.247 -15.040  44.614  0.00  0.00     0.085 A 
ATOM      8  C   UNL d   1      45.081 -13.599  44.584  0.00  0.00     0.121 C 
ATOM      9  C   UNL d   1      44.545 -15.307  44.955  0.00  0.00     0.021 C 
ENDBRANCH   2   3
ENDBRANCH   1   2
BRANCH   1  10
ATOM     10  C   UNL d   1      46.128 -17.704  44.143  0.00  0.00     0.199 C 
ATOM     11  O   UNL d   1      46.163 -17.919  44.949  0.00  0.00    -0.286 OA
BRANCH  10  12
ATOM     12  C   UNL d   1      46.299 -18.272  43.556  0.00  0.00     0.078 A 
ATOM     13  C   UNL d   1      46.480 -19.046  43.766  0.00  0.00     0.199 A 
ATOM     14  O   UNL d   1      46.491 -19.258  44.558  0.00  0.00    -0.286 OA
ATOM     15  C   UNL d   1      46.647 -19.598  43.177  0.00  0.00     0.042 A 
ATOM     16  C   UNL d   1      46.634 -19.378  42.377  0.00  0.00     0.003 A 
ATOM     17  C   UNL d   1      46.455 -18.612  42.174  0.00  0.00     0.000 A 
ATOM     18  C   UNL d   1      46.286 -18.052  42.756  0.00  0.00     0.006 A 
ENDBRANCH  10  12
ENDBRANCH   1  10
TORSDOF 4
ENDMDL
MODEL 2
REMARK VINA RESULT:      11.4      1.894      4.202
REMARK  4 active torsions:
REMARK  status: ('A' for Active; 'I' for Inactive)
REMARK    1  A    between atoms: C_5  and  C_3 
REMARK    2  A    between atoms: C_8  and  C_5 
REMARK    3  A    between atoms: C_7  and  C_9 
REMARK    4  A    between atoms: C_9  and  C_8 
ROOT
ATOM      1  C   UNL d   1      45.993 -16.364  44.236  0.00  0.00     0.042 C 
ENDROOT
BRANCH   1   2
ATOM      2  C   UNL d   1      45.998 -17.162  44.431  0.00  0.00     0.006 C 
BRANCH   2   3
ATOM      3  C   UNL d   1      46.240 -17.724  43.865  0.00  0.00     0.039 A 
ATOM      4  C   UNL d   1      46.466 -17.649  43.065  0.00  0.00     0.122 A 
ATOM      5  N   UNL d   1      46.647 -18.395  42.792  0.00  0.00    -0.164 NA
ATOM      6  N   UNL d   1      46.541 -18.940  43.397  0.00  0.00    -0.227 N 
ATOM      7  C   UNL d   1      46.286 -18.518  44.069  0.00  0.00     0.085 A 
ATOM      8  C   UNL d   1      46.647 -19.758  43.409  0.00  0.00     0.121 C 
ATOM      9  C   UNL d   1      46.092 -18.756  44.835  0.00  0.00     0.021 C 
ENDBRANCH   2   3
ENDBRANCH   1   2
BRANCH   1  10
ATOM     10  C   UNL d   1      45.452 -15.858  44.607  0.00  0.00     0.199 C 
ATOM     11  O   UNL d   1      44.758 -16.166  44.955  0.00  0.00    -0.286 OA
BRANCH  10  12
ATOM     12  C   UNL d   1      45.598 -15.037  44.635  0.00  0.00     0.078 A 
ATOM     13  C   UNL d   1      44.979 -14.507  44.748  0.00  0.00     0.199 A 
ATOM     14  O   UNL d   1      44.214 -14.792  44.835  0.00  0.00    -0.286 OA
ATOM     15  C   UNL d   1      45.135 -13.698  44.774  0.00  0.00     0.042 A 
ATOM     16  C   UNL d   1      45.911 -13.416  44.686  0.00  0.00     0.003 A 
ATOM     17  C   UNL d   1      46.519 -13.943  44.574  0.00  0.00     0.000 A 
ATOM     18  C   UNL d   1      46.373 -14.755  44.547  0.00  0.00     0.006 A 
ENDBRANCH  10  12
ENDBRANCH   1  10
TORSDOF 4
ENDMDL
