MODEL 1
REMARK VINA RESULT:       5.7      0.000      0.000
REMARK  5 active torsions:
REMARK  status: ('A' for Active; 'I' for Inactive)
REMARK    1  A    between atoms: N_2  and  C_7 
REMARK    2  A    between atoms: N_6  and  C_3 
REMARK    3  A    between atoms: N_8  and  N_6 
REMARK    4  A    between atoms: C_15  and  N_8 
REMARK    5  A    between atoms: C_16  and  C_15 
ROOT
ATOM      1  C   UNL d   1      45.517 -13.619  44.195  0.00  0.00     0.127 A 
ATOM      2  C   UNL d   1      44.855 -13.997  44.508  0.00  0.00     0.024 A 
ATOM      3  C   UNL d   1      46.225 -14.041  44.136  0.00  0.00     0.024 A 
ATOM      4  C   UNL d   1      45.597 -15.194  44.701  0.00  0.00     0.021 A 
ATOM      5  C   UNL d   1      46.259 -14.830  44.391  0.00  0.00     0.003 A 
ATOM      6  C   UNL d   1      44.907 -14.781  44.757  0.00  0.00     0.003 A 
ENDROOT
BRANCH   4   7
ATOM      7  C   UNL d   1      45.632 -15.980  44.955  0.00  0.00     0.122 C 
BRANCH   7   8
ATOM      8  N   UNL d   1      45.867 -16.566  44.433  0.00  0.00    -0.144 NA
BRANCH   8   9
ATOM      9  N   UNL d   1      45.977 -17.355  44.721  0.00  0.00    -0.121 NA
BRANCH   9  10
ATOM     10  C   UNL d   1      46.205 -17.940  44.165  0.00  0.00     0.217 A 
ATOM     11  N   UNL d   1      46.282 -17.794  43.380  0.00  0.00    -0.181 NA
ATOM     12  C   UNL d   1      46.514 -18.498  43.003  0.00  0.00     0.288 A 
ATOM     13  O   UNL d   1      46.647 -18.552  42.176  0.00  0.00    -0.265 OA
ATOM     14  C   UNL d   1      46.580 -19.079  43.560  0.00  0.00     0.101 A 
ATOM     15  S   UNL d   1      46.386 -18.727  44.289  0.00  0.00    -0.041 SA
ENDBRANCH   9  10
ENDBRANCH   8   9
ENDBRANCH   7   8
ENDBRANCH   4   7
BRANCH   1  16
ATOM     16  N   UNL d   1      45.497 -12.861  43.946  0.00  0.00    -0.114 N 
ATOM     17  O   UNL d   1      45.846 -12.229  44.355  0.00  0.00    -0.532 OA
ATOM     18  O   UNL d   1      45.146 -12.585  43.275  0.00  0.00    -0.532 OA
ENDBRANCH   1  16
TORSDOF 5
ENDMDL
MODEL 2
REMARK VINA RESULT:       6.9      1.395      4.790
REMARK  5 active torsions:
REMARK  status: ('A' for Active; 'I' for Inactive)
REMARK    1  A    between atoms: N_2  and  C_7 
REMARK    2  A    between atoms: N_6  and  C_3 
REMARK    3  A    between atoms: N_8  and  N_6 
REMARK    4  A    between atoms: C_15  and  N_8 
REMARK    5  A    between atoms: C_16  and  C_15 
ROOT
ATOM      1  C   UNL d   1      46.460 -18.953  42.497  0.00  0.00     0.127 A 
ATOM      2  C   UNL d   1      46.378 -19.220  43.272  0.00  0.00     0.024 A 
ATOM      3  C   UNL d   1      46.422 -18.140  42.350  0.00  0.00     0.024 A 
ATOM      4  C   UNL d   1      46.224 -17.887  43.743  0.00  0.00     0.021 A 
ATOM      5  C   UNL d   1      46.304 -17.611  42.978  0.00  0.00     0.003 A 
ATOM      6  C   UNL d   1      46.261 -18.679  43.884  0.00  0.00     0.003 A 
ENDROOT
BRANCH   4   7
ATOM      7  C   UNL d   1      46.106 -17.359  44.368  0.00  0.00     0.122 C 
BRANCH   7   8
ATOM      8  N   UNL d   1      46.014 -16.560  44.214  0.00  0.00    -0.144 NA
BRANCH   8   9
ATOM      9  N   UNL d   1      46.042 -16.009  44.857  0.00  0.00    -0.121 NA
BRANCH   9  10
ATOM     10  C   UNL d   1      45.714 -15.248  44.728  0.00  0.00     0.217 A 
ATOM     11  N   UNL d   1      46.101 -14.663  44.340  0.00  0.00    -0.181 NA
ATOM     12  C   UNL d   1      45.609 -13.993  44.318  0.00  0.00     0.288 A 
ATOM     13  O   UNL d   1      45.835 -13.271  43.953  0.00  0.00    -0.265 OA
ATOM     14  C   UNL d   1      44.916 -14.169  44.695  0.00  0.00     0.101 A 
ATOM     15  S   UNL d   1      44.984 -14.957  44.952  0.00  0.00    -0.041 SA
ENDBRANCH   9  10
ENDBRANCH   8   9
ENDBRANCH   7   8
ENDBRANCH   4   7
BRANCH   1  16
ATOM     16  N   UNL d   1      46.574 -19.451  41.885  0.00  0.00    -0.114 N 
ATOM     17  O   UNL d   1      46.647 -20.274  41.962  0.00  0.00    -0.532 OA
ATOM     18  O   UNL d   1      46.638 -19.249  41.106  0.00  0.00    -0.532 OA
ENDBRANCH   1  16
TORSDOF 5
ENDMDL
