MODEL 1
REMARK VINA RESULT:       3.1      0.000      0.000
REMARK  5 active torsions:
REMARK  status: ('A' for Active; 'I' for Inactive)
REMARK       I    between atoms: N_2  and  C_1 
REMARK    1  A    between atoms: C_8  and  C_1 
REMARK    2  A    between atoms: C_4  and  N_2 
REMARK    3  A    between atoms: C_3  and  C_4 
REMARK    4  A    between atoms: C_5  and  C_3 
REMARK    5  A    between atoms: N_6  and  C_3 
ROOT
ATOM      1  C   UNL d   1     -41.645-122.197 -52.488  0.00  0.00     0.088 C 
ENDROOT
BRANCH   1   2
ATOM      2  C   UNL d   1     -41.592-122.821 -51.954  0.00  0.00     0.101 C 
ATOM      3  C   UNL d   1     -41.126-123.468 -52.131  0.00  0.00     0.022 C 
BRANCH   2   4
ATOM      4  N   UNL d   1     -42.009-122.785 -51.248  0.00  0.00    -0.206 NA
ATOM      5  C   UNL d   1     -41.803-123.286 -50.622  0.00  0.00     0.279 C 
ATOM      6  O   UNL d   1     -41.183-123.816 -50.715  0.00  0.00    -0.265 OA
BRANCH   5   7
ATOM      7  C   UNL d   1     -42.220-123.250 -49.916  0.00  0.00     0.058 A 
ATOM      8  C   UNL d   1     -41.823-123.271 -49.188  0.00  0.00     0.005 A 
ATOM      9  C   UNL d   1     -42.247-123.234 -48.475  0.00  0.00     0.000 A 
ATOM     10  C   UNL d   1     -41.848-123.255 -47.764  0.00  0.00     0.000 C 
ATOM     11  C   UNL d   1     -43.074-123.177 -48.502  0.00  0.00     0.000 A 
ATOM     12  C   UNL d   1     -43.478-123.157 -49.225  0.00  0.00     0.000 A 
ATOM     13  C   UNL d   1     -43.049-123.193 -49.924  0.00  0.00     0.005 A 
ENDBRANCH   5   7
ENDBRANCH   2   4
ENDBRANCH   1   2
BRANCH   1  14
ATOM     14  C   UNL d   1     -41.867-122.339 -53.267  0.00  0.00     0.047 A 
ATOM     15  S   UNL d   1     -42.576-122.112 -53.626  0.00  0.00    -0.085 SA
ATOM     16  C   UNL d   1     -42.562-122.368 -54.407  0.00  0.00     0.035 A 
ATOM     17  C   UNL d   1     -41.847-122.757 -54.546  0.00  0.00     0.007 A 
ATOM     18  C   UNL d   1     -41.411-122.742 -53.838  0.00  0.00     0.009 A 
ENDBRANCH   1  14
BRANCH   1  19
ATOM     19  N   UNL d   1     -41.476-121.424 -52.245  0.00  0.00    -0.299 N 
ATOM     20  C   UNL d   1     -41.306-120.849 -52.798  0.00  0.00     0.107 A 
ATOM     21  C   UNL d   1     -41.137-120.080 -52.565  0.00  0.00     0.142 A 
ATOM     22  O   UNL d   1     -41.137-119.876 -51.760  0.00  0.00    -0.300 OA
ATOM     23  C   UNL d   1     -41.310-120.463 -51.199  0.00  0.00     0.142 A 
ATOM     24  C   UNL d   1     -41.478-121.233 -51.442  0.00  0.00     0.107 A 
ENDBRANCH   1  19
TORSDOF 5
ENDMDL
MODEL 2
REMARK VINA RESULT:       5.2      1.006      1.316
REMARK  5 active torsions:
REMARK  status: ('A' for Active; 'I' for Inactive)
REMARK       I    between atoms: N_2  and  C_1 
REMARK    1  A    between atoms: C_8  and  C_1 
REMARK    2  A    between atoms: C_4  and  N_2 
REMARK    3  A    between atoms: C_3  and  C_4 
REMARK    4  A    between atoms: C_5  and  C_3 
REMARK    5  A    between atoms: N_6  and  C_3 
ROOT
ATOM      1  C   UNL d   1     -41.819-122.550 -53.497  0.00  0.00     0.088 C 
ENDROOT
BRANCH   1   2
ATOM      2  C   UNL d   1     -41.644-122.994 -52.828  0.00  0.00     0.101 C 
ATOM      3  C   UNL d   1     -41.123-123.621 -52.881  0.00  0.00     0.022 C 
BRANCH   2   4
ATOM      4  N   UNL d   1     -41.995-122.800 -52.112  0.00  0.00    -0.206 NA
ATOM      5  C   UNL d   1     -41.782-123.210 -51.424  0.00  0.00     0.279 C 
ATOM      6  O   UNL d   1     -41.220-123.807 -51.466  0.00  0.00    -0.265 OA
BRANCH   5   7
ATOM      7  C   UNL d   1     -42.134-123.017 -50.708  0.00  0.00     0.058 A 
ATOM      8  C   UNL d   1     -41.784-123.240 -49.990  0.00  0.00     0.005 A 
ATOM      9  C   UNL d   1     -42.142-123.044 -49.268  0.00  0.00     0.000 A 
ATOM     10  C   UNL d   1     -41.791-123.268 -48.567  0.00  0.00     0.000 C 
ATOM     11  C   UNL d   1     -42.855-122.620 -49.274  0.00  0.00     0.000 A 
ATOM     12  C   UNL d   1     -43.210-122.393 -49.987  0.00  0.00     0.000 A 
ATOM     13  C   UNL d   1     -42.849-122.592 -50.696  0.00  0.00     0.005 A 
ENDBRANCH   5   7
ENDBRANCH   2   4
ENDBRANCH   1   2
BRANCH   1  14
ATOM     14  C   UNL d   1     -42.008-122.926 -54.204  0.00  0.00     0.047 A 
ATOM     15  S   UNL d   1     -41.476-123.212 -54.768  0.00  0.00    -0.085 SA
ATOM     16  C   UNL d   1     -41.908-123.545 -55.383  0.00  0.00     0.035 A 
ATOM     17  C   UNL d   1     -42.712-123.472 -55.212  0.00  0.00     0.007 A 
ATOM     18  C   UNL d   1     -42.780-123.086 -54.478  0.00  0.00     0.009 A 
ENDBRANCH   1  14
BRANCH   1  19
ATOM     19  N   UNL d   1     -41.805-121.722 -53.465  0.00  0.00    -0.299 N 
ATOM     20  C   UNL d   1     -41.145-121.335 -53.183  0.00  0.00     0.107 A 
ATOM     21  C   UNL d   1     -41.123-120.515 -53.147  0.00  0.00     0.142 A 
ATOM     22  O   UNL d   1     -41.775-120.066 -53.399  0.00  0.00    -0.300 OA
ATOM     23  C   UNL d   1     -42.446-120.464 -53.686  0.00  0.00     0.142 A 
ATOM     24  C   UNL d   1     -42.459-121.288 -53.718  0.00  0.00     0.107 A 
ENDBRANCH   1  19
TORSDOF 5
ENDMDL
