MODEL 1
REMARK VINA RESULT:      -4.8      0.000      0.000
REMARK  2 active torsions:
REMARK  status: ('A' for Active; 'I' for Inactive)
REMARK    1  A    between atoms: N_9  and  C_3 
REMARK    2  A    between atoms: C_11  and  C_4 
ROOT
ATOM      1  N   UNL d   1     -41.712-122.773 -51.672  0.00  0.00    -0.196 N 
ATOM      2  C   UNL d   1     -41.600-122.316 -52.344  0.00  0.00     0.167 A 
ATOM      3  C   UNL d   1     -41.630-122.437 -50.922  0.00  0.00     0.153 A 
ATOM      4  C   UNL d   1     -41.718-122.794 -52.999  0.00  0.00     0.057 A 
ATOM      5  N   UNL d   1     -41.900-123.534 -51.910  0.00  0.00    -0.161 NA
ATOM      6  N   UNL d   1     -41.404-121.517 -52.276  0.00  0.00    -0.227 NA
ATOM      7  C   UNL d   1     -41.433-121.636 -50.853  0.00  0.00     0.057 A 
ATOM      8  C   UNL d   1     -41.902-123.542 -52.734  0.00  0.00     0.124 A 
ATOM      9  C   UNL d   1     -41.321-121.179 -51.524  0.00  0.00     0.086 A 
ATOM     10  C   UNL d   1     -41.123-120.372 -51.446  0.00  0.00     0.021 C 
ENDROOT
BRANCH   3  11
ATOM     11  N   UNL d   1     -41.742-122.894 -50.251  0.00  0.00    -0.285 N 
ATOM     12  C   UNL d   1     -42.478-122.902 -49.870  0.00  0.00     0.108 A 
ATOM     13  C   UNL d   1     -42.590-123.360 -49.195  0.00  0.00     0.142 A 
ATOM     14  O   UNL d   1     -41.968-123.814 -48.896  0.00  0.00    -0.300 OA
ATOM     15  C   UNL d   1     -41.235-123.808 -49.273  0.00  0.00     0.142 A 
ATOM     16  C   UNL d   1     -41.123-123.349 -49.948  0.00  0.00     0.108 A 
ENDBRANCH   3  11
BRANCH   4  17
ATOM     17  C   UNL d   1     -41.681-122.642 -53.808  0.00  0.00     0.004 A 
ATOM     18  C   UNL d   1     -41.156-123.068 -54.295  0.00  0.00     0.000 A 
ATOM     19  C   UNL d   1     -41.125-122.911 -55.100  0.00  0.00     0.000 A 
ATOM     20  C   UNL d   1     -41.614-122.330 -55.436  0.00  0.00     0.000 A 
ATOM     21  C   UNL d   1     -42.134-121.908 -54.953  0.00  0.00     0.000 A 
ATOM     22  C   UNL d   1     -42.170-122.062 -54.140  0.00  0.00     0.000 A 
ENDBRANCH   4  17
TORSDOF 2
ENDMDL
MODEL 2
REMARK VINA RESULT:      -4.7      1.472      4.007
REMARK  2 active torsions:
REMARK  status: ('A' for Active; 'I' for Inactive)
REMARK    1  A    between atoms: N_9  and  C_3 
REMARK    2  A    between atoms: C_11  and  C_4 
ROOT
ATOM      1  N   UNL d   1     -41.691-122.813 -51.833  0.00  0.00    -0.196 N 
ATOM      2  C   UNL d   1     -41.650-122.535 -51.062  0.00  0.00     0.167 A 
ATOM      3  C   UNL d   1     -41.544-122.305 -52.467  0.00  0.00     0.153 A 
ATOM      4  C   UNL d   1     -41.820-123.157 -50.557  0.00  0.00     0.057 A 
ATOM      5  N   UNL d   1     -41.887-123.608 -51.806  0.00  0.00    -0.161 NA
ATOM      6  N   UNL d   1     -41.461-121.745 -50.915  0.00  0.00    -0.227 NA
ATOM      7  C   UNL d   1     -41.355-121.512 -52.320  0.00  0.00     0.057 A 
ATOM      8  C   UNL d   1     -41.966-123.817 -51.013  0.00  0.00     0.124 A 
ATOM      9  C   UNL d   1     -41.314-121.234 -51.550  0.00  0.00     0.086 A 
ATOM     10  C   UNL d   1     -41.122-120.434 -51.410  0.00  0.00     0.021 C 
ENDROOT
BRANCH   3  11
ATOM     11  N   UNL d   1     -41.585-122.583 -53.237  0.00  0.00    -0.285 N 
ATOM     12  C   UNL d   1     -42.091-122.222 -53.784  0.00  0.00     0.108 A 
ATOM     13  C   UNL d   1     -42.133-122.501 -54.558  0.00  0.00     0.142 A 
ATOM     14  O   UNL d   1     -41.668-123.144 -54.790  0.00  0.00    -0.300 OA
ATOM     15  C   UNL d   1     -41.164-123.505 -54.248  0.00  0.00     0.142 A 
ATOM     16  C   UNL d   1     -41.123-123.225 -53.474  0.00  0.00     0.108 A 
ENDBRANCH   3  11
BRANCH   4  17
ATOM     17  C   UNL d   1     -41.862-123.208 -49.736  0.00  0.00     0.004 A 
ATOM     18  C   UNL d   1     -41.184-123.395 -49.288  0.00  0.00     0.000 A 
ATOM     19  C   UNL d   1     -41.234-123.443 -48.470  0.00  0.00     0.000 A 
ATOM     20  C   UNL d   1     -41.955-123.308 -48.083  0.00  0.00     0.000 A 
ATOM     21  C   UNL d   1     -42.626-123.124 -48.527  0.00  0.00     0.000 A 
ATOM     22  C   UNL d   1     -42.583-123.073 -49.352  0.00  0.00     0.000 A 
ENDBRANCH   4  17
TORSDOF 2
ENDMDL
MODEL 3
REMARK VINA RESULT:      -2.2      1.436      2.288
REMARK  2 active torsions:
REMARK  status: ('A' for Active; 'I' for Inactive)
REMARK    1  A    between atoms: N_9  and  C_3 
REMARK    2  A    between atoms: C_11  and  C_4 
ROOT
ATOM      1  N   UNL d   1     -42.122-123.118 -49.772  0.00  0.00    -0.196 N 
ATOM      2  C   UNL d   1     -42.284-122.918 -50.551  0.00  0.00     0.167 A 
ATOM      3  C   UNL d   1     -42.653-122.918 -49.173  0.00  0.00     0.153 A 
ATOM      4  C   UNL d   1     -41.665-123.185 -51.017  0.00  0.00     0.057 A 
ATOM      5  N   UNL d   1     -41.402-123.508 -49.754  0.00  0.00    -0.161 NA
ATOM      6  N   UNL d   1     -42.980-122.516 -50.741  0.00  0.00    -0.227 NA
ATOM      7  C   UNL d   1     -43.351-122.514 -49.362  0.00  0.00     0.057 A 
ATOM      8  C   UNL d   1     -41.123-123.548 -50.529  0.00  0.00     0.124 A 
ATOM      9  C   UNL d   1     -43.513-122.315 -50.141  0.00  0.00     0.086 A 
ATOM     10  C   UNL d   1     -44.219-121.909 -50.323  0.00  0.00     0.021 C 
ENDROOT
BRANCH   3  11
ATOM     11  N   UNL d   1     -42.490-123.117 -48.394  0.00  0.00    -0.285 N 
ATOM     12  C   UNL d   1     -43.003-123.615 -47.975  0.00  0.00     0.108 A 
ATOM     13  C   UNL d   1     -42.840-123.815 -47.193  0.00  0.00     0.142 A 
ATOM     14  O   UNL d   1     -42.163-123.518 -46.824  0.00  0.00    -0.300 OA
ATOM     15  C   UNL d   1     -41.652-123.023 -47.238  0.00  0.00     0.142 A 
ATOM     16  C   UNL d   1     -41.815-122.823 -48.020  0.00  0.00     0.108 A 
ENDBRANCH   3  11
BRANCH   4  17
ATOM     17  C   UNL d   1     -41.525-123.144 -51.828  0.00  0.00     0.004 A 
ATOM     18  C   UNL d   1     -41.628-123.816 -52.310  0.00  0.00     0.000 A 
ATOM     19  C   UNL d   1     -41.486-123.767 -53.117  0.00  0.00     0.000 A 
ATOM     20  C   UNL d   1     -41.241-123.052 -53.459  0.00  0.00     0.000 A 
ATOM     21  C   UNL d   1     -41.139-122.387 -52.981  0.00  0.00     0.000 A 
ATOM     22  C   UNL d   1     -41.280-122.430 -52.166  0.00  0.00     0.000 A 
ENDBRANCH   4  17
TORSDOF 2
ENDMDL
