MODEL 1
REMARK VINA RESULT:      -3.8      0.000      0.000
REMARK  4 active torsions:
REMARK  status: ('A' for Active; 'I' for Inactive)
REMARK    1  A    between atoms: C_9  and  C_1 
REMARK    2  A    between atoms: C_8  and  C_6 
REMARK    3  A    between atoms: C_14  and  C_9 
REMARK    4  A    between atoms: C_15  and  C_10 
ROOT
ATOM      1  C   UNL d   1      57.774  -0.375  30.545  0.00  0.00     0.089 A 
ATOM      2  C   UNL d   1      58.885  -0.740  29.904  0.00  0.00     0.048 A 
ATOM      3  C   UNL d   1      58.483  -0.105  30.246  0.00  0.00     0.114 A 
ATOM      4  C   UNL d   1      58.410  -1.409  29.997  0.00  0.00     0.112 A 
ATOM      5  S   UNL d   1      57.721  -1.178  30.396  0.00  0.00    -0.063 SA
ATOM      6  C   UNL d   1      59.617  -0.800  29.521  0.00  0.00     0.076 A 
ATOM      7  N   UNL d   1      58.672  -2.130  29.706  0.00  0.00    -0.239 NA
ATOM      8  C   UNL d   1      59.390  -2.198  29.329  0.00  0.00     0.082 A 
ATOM      9  C   UNL d   1      59.866  -1.529  29.235  0.00  0.00     0.023 A 
ATOM     10  N   UNL d   1      58.766   0.682  30.276  0.00  0.00    -0.147 N 
ENDROOT
BRANCH   1  11
ATOM     11  C   UNL d   1      57.209   0.080  30.930  0.00  0.00     0.203 C 
ATOM     12  O   UNL d   1      56.837   0.678  30.543  0.00  0.00    -0.286 OA
BRANCH  11  13
ATOM     13  C   UNL d   1      57.027  -0.085  31.722  0.00  0.00     0.040 A 
ATOM     14  C   UNL d   1      56.573  -0.739  31.928  0.00  0.00     0.003 A 
ATOM     15  C   UNL d   1      56.399  -0.894  32.707  0.00  0.00     0.000 A 
ATOM     16  C   UNL d   1      56.684  -0.383  33.308  0.00  0.00     0.000 A 
ATOM     17  C   UNL d   1      57.132   0.266  33.110  0.00  0.00     0.000 A 
ATOM     18  C   UNL d   1      57.311   0.427  32.323  0.00  0.00     0.003 A 
ENDBRANCH  11  13
ENDBRANCH   1  11
BRANCH   6  19
ATOM     19  C   UNL d   1      60.090  -0.132  29.428  0.00  0.00     0.419 C 
ATOM     20  F   UNL d   1      60.558   0.526  29.336  0.00  0.00    -0.166 F 
ATOM     21  F   UNL d   1      59.767  -0.008  28.674  0.00  0.00    -0.166 F 
ATOM     22  F   UNL d   1      60.411  -0.256  30.175  0.00  0.00    -0.166 F 
ENDBRANCH   6  19
BRANCH   8  23
ATOM     23  C   UNL d   1      59.653  -2.920  29.038  0.00  0.00     0.018 A 
ATOM     24  C   UNL d   1      59.128  -3.561  29.010  0.00  0.00     0.002 A 
ATOM     25  C   UNL d   1      59.369  -4.298  28.721  0.00  0.00     0.000 A 
ATOM     26  C   UNL d   1      60.161  -4.384  28.455  0.00  0.00     0.000 A 
ATOM     27  C   UNL d   1      60.686  -3.744  28.483  0.00  0.00     0.000 A 
ATOM     28  C   UNL d   1      60.419  -3.018  28.776  0.00  0.00     0.002 A 
ENDBRANCH   8  23
TORSDOF 4
ENDMDL
MODEL 2
REMARK VINA RESULT:      -1.1      1.393      4.413
REMARK  4 active torsions:
REMARK  status: ('A' for Active; 'I' for Inactive)
REMARK    1  A    between atoms: C_9  and  C_1 
REMARK    2  A    between atoms: C_8  and  C_6 
REMARK    3  A    between atoms: C_14  and  C_9 
REMARK    4  A    between atoms: C_15  and  C_10 
ROOT
ATOM      1  C   UNL d   1      59.212  -2.405  29.300  0.00  0.00     0.089 A 
ATOM      2  C   UNL d   1      58.691  -1.223  29.629  0.00  0.00     0.048 A 
ATOM      3  C   UNL d   1      59.183  -1.617  29.096  0.00  0.00     0.114 A 
ATOM      4  C   UNL d   1      58.415  -1.785  30.168  0.00  0.00     0.112 A 
ATOM      5  S   UNL d   1      58.741  -2.518  29.960  0.00  0.00    -0.063 SA
ATOM      6  C   UNL d   1      58.456  -0.432  29.697  0.00  0.00     0.076 A 
ATOM      7  N   UNL d   1      57.908  -1.549  30.769  0.00  0.00    -0.239 NA
ATOM      8  C   UNL d   1      57.672  -0.773  30.843  0.00  0.00     0.082 A 
ATOM      9  C   UNL d   1      57.948  -0.211  30.304  0.00  0.00     0.023 A 
ATOM     10  N   UNL d   1      59.582  -1.255  28.455  0.00  0.00    -0.147 N 
ENDROOT
BRANCH   1  11
ATOM     11  C   UNL d   1      59.640  -2.989  28.910  0.00  0.00     0.203 C 
ATOM     12  O   UNL d   1      60.398  -2.850  28.681  0.00  0.00    -0.286 OA
BRANCH  11  13
ATOM     13  C   UNL d   1      59.282  -3.720  28.757  0.00  0.00     0.040 A 
ATOM     14  C   UNL d   1      58.476  -3.777  28.604  0.00  0.00     0.003 A 
ATOM     15  C   UNL d   1      58.132  -4.498  28.455  0.00  0.00     0.000 A 
ATOM     16  C   UNL d   1      58.602  -5.193  28.457  0.00  0.00     0.000 A 
ATOM     17  C   UNL d   1      59.399  -5.143  28.608  0.00  0.00     0.000 A 
ATOM     18  C   UNL d   1      59.752  -4.415  28.760  0.00  0.00     0.003 A 
ENDBRANCH  11  13
ENDBRANCH   1  11
BRANCH   6  19
ATOM     19  C   UNL d   1      58.731   0.129  29.160  0.00  0.00     0.419 C 
ATOM     20  F   UNL d   1      59.002   0.682  28.629  0.00  0.00    -0.166 F 
ATOM     21  F   UNL d   1      59.328   0.347  29.693  0.00  0.00    -0.166 F 
ATOM     22  F   UNL d   1      58.140  -0.088  28.631  0.00  0.00    -0.166 F 
ENDBRANCH   6  19
BRANCH   8  23
ATOM     23  C   UNL d   1      57.165  -0.537  31.444  0.00  0.00     0.018 A 
ATOM     24  C   UNL d   1      57.206   0.242  31.726  0.00  0.00     0.002 A 
ATOM     25  C   UNL d   1      56.705   0.503  32.331  0.00  0.00     0.000 A 
ATOM     26  C   UNL d   1      56.152  -0.039  32.656  0.00  0.00     0.000 A 
ATOM     27  C   UNL d   1      56.111  -0.818  32.374  0.00  0.00     0.000 A 
ATOM     28  C   UNL d   1      56.623  -1.053  31.769  0.00  0.00     0.002 A 
ENDBRANCH   8  23
TORSDOF 4
ENDMDL
