MODEL 1
REMARK VINA RESULT:      64.5      0.000      0.000
REMARK  4 active torsions:
REMARK  status: ('A' for Active; 'I' for Inactive)
REMARK    1  A    between atoms: C_3  and  C_1 
REMARK    2  A    between atoms: N_10  and  C_3 
REMARK    3  A    between atoms: C_13  and  C_3 
REMARK    4  A    between atoms: C_5  and  N_10 
ROOT
ATOM      1  C   UNL d   1     -55.224-100.453 -44.163  0.00  0.00     0.086 C 
ENDROOT
BRANCH   1   2
ATOM      2  C   UNL d   1     -55.732 -99.840 -44.415  0.00  0.00     0.037 A 
ATOM      3  C   UNL d   1     -55.522 -99.232 -44.953  0.00  0.00     0.083 A 
ATOM      4  N   UNL d   1     -56.145 -98.761 -45.053  0.00  0.00    -0.245 NA
ATOM      5  C   UNL d   1     -54.789 -99.143 -45.316  0.00  0.00     0.021 C 
ATOM      6  C   UNL d   1     -56.769 -99.033 -44.599  0.00  0.00     0.081 A 
ATOM      7  C   UNL d   1     -56.509 -99.710 -44.198  0.00  0.00     0.021 A 
ATOM      8  C   UNL d   1     -57.538 -98.755 -44.495  0.00  0.00     0.019 A 
ATOM      9  C   UNL d   1     -57.023-100.101 -43.699  0.00  0.00     0.002 A 
ATOM     10  C   UNL d   1     -57.787 -99.838 -43.587  0.00  0.00     0.000 A 
ATOM     11  C   UNL d   1     -58.046 -99.161 -43.987  0.00  0.00     0.002 A 
ENDBRANCH   1   2
BRANCH   1  12
ATOM     12  N   UNL d   1     -54.716-100.325 -43.539  0.00  0.00    -0.225 NA
BRANCH  12  13
ATOM     13  C   UNL d   1     -54.786-100.789 -42.880  0.00  0.00     0.191 A 
ATOM     14  N   UNL d   1     -54.921-101.617 -42.757  0.00  0.00    -0.107 NA
ATOM     15  O   UNL d   1     -54.938-101.761 -41.951  0.00  0.00    -0.210 OA
ATOM     16  C   UNL d   1     -54.820-101.053 -41.552  0.00  0.00     0.128 A 
ATOM     17  C   UNL d   1     -54.725-100.448 -42.119  0.00  0.00     0.068 A 
ATOM     18  C   UNL d   1     -54.804-100.996 -40.725  0.00  0.00     0.029 C 
ENDBRANCH  12  13
ENDBRANCH   1  12
BRANCH   1  19
ATOM     19  C   UNL d   1     -55.247-101.177 -44.554  0.00  0.00     0.037 A 
ATOM     20  C   UNL d   1     -54.712-101.340 -45.125  0.00  0.00     0.100 A 
ATOM     21  N   UNL d   1     -54.715-102.060 -45.531  0.00  0.00    -0.242 NA
ATOM     22  C   UNL d   1     -55.299-102.623 -45.329  0.00  0.00     0.099 A 
ATOM     23  C   UNL d   1     -55.848-102.448 -44.737  0.00  0.00     0.021 A 
ATOM     24  C   UNL d   1     -55.836-101.737 -44.345  0.00  0.00     0.005 A 
ENDBRANCH   1  19
TORSDOF 4
ENDMDL
