MODEL 1
REMARK VINA RESULT:      -0.6      0.000      0.000
REMARK  7 active torsions:
REMARK  status: ('A' for Active; 'I' for Inactive)
REMARK    1  A    between atoms: C_9  and  N_1 
REMARK    2  A    between atoms: C_12  and  N_3 
REMARK    3  A    between atoms: N_7  and  C_11 
REMARK    4  A    between atoms: C_13  and  C_9 
REMARK    5  A    between atoms: C_21  and  C_12 
REMARK       I    between atoms: N_20  and  C_13 
REMARK    6  A    between atoms: C_23  and  N_20 
REMARK    7  A    between atoms: C_24  and  C_23 
ROOT
ATOM      1  N   UNL d   1      32.390  18.239 -23.612  0.00  0.00    -0.220 N 
ATOM      2  C   UNL d   1      31.903  18.041 -24.247  0.00  0.00     0.342 A 
ATOM      3  N   UNL d   1      31.779  17.246 -24.440  0.00  0.00    -0.258 N 
ATOM      4  C   UNL d   1      32.629  16.853 -23.361  0.00  0.00     0.102 A 
ATOM      5  C   UNL d   1      32.753  17.644 -23.169  0.00  0.00     0.276 A 
ATOM      6  C   UNL d   1      32.142  16.654 -23.996  0.00  0.00     0.079 A 
ATOM      7  S   UNL d   1      32.910  16.155 -23.028  0.00  0.00    -0.080 SA
ATOM      8  C   UNL d   1      32.126  15.834 -24.052  0.00  0.00     0.025 A 
ATOM      9  O   UNL d   1      31.534  18.638 -24.698  0.00  0.00    -0.245 OA
ATOM     10  C   UNL d   1      32.598  15.520 -23.456  0.00  0.00     0.037 A 
ATOM     11  O   UNL d   1      33.240  17.843 -22.533  0.00  0.00    -0.266 OA
ENDROOT
BRANCH   1  12
ATOM     12  C   UNL d   1      32.513  19.038 -23.421  0.00  0.00     0.150 C 
BRANCH  12  13
ATOM     13  C   UNL d   1      32.177  19.355 -22.737  0.00  0.00     0.297 C 
ATOM     14  N   UNL d   1      32.443  20.086 -22.443  0.00  0.00    -0.205 NA
ATOM     15  O   UNL d   1      31.575  18.951 -22.337  0.00  0.00    -0.264 OA
BRANCH  14  16
ATOM     16  C   UNL d   1      32.917  20.413 -22.751  0.00  0.00     0.102 C 
BRANCH  16  17
ATOM     17  C   UNL d   1      32.999  21.232 -22.605  0.00  0.00     0.019 A 
ATOM     18  C   UNL d   1      33.010  21.753 -23.251  0.00  0.00     0.002 A 
ATOM     19  C   UNL d   1      33.091  22.572 -23.118  0.00  0.00     0.000 A 
ATOM     20  C   UNL d   1      33.159  22.850 -22.353  0.00  0.00     0.000 A 
ATOM     21  C   UNL d   1      33.148  22.328 -21.706  0.00  0.00     0.000 A 
ATOM     22  C   UNL d   1      33.240  23.674 -22.227  0.00  0.00     0.000 C 
ATOM     23  C   UNL d   1      33.068  21.517 -21.834  0.00  0.00     0.002 A 
ENDBRANCH  16  17
ENDBRANCH  14  16
ENDBRANCH  12  13
ENDBRANCH   1  12
BRANCH   3  24
ATOM     24  C   UNL d   1      31.292  17.047 -25.075  0.00  0.00     0.085 C 
BRANCH  24  25
ATOM     25  C   UNL d   1      30.504  16.851 -24.945  0.00  0.00     0.019 A 
ATOM     26  C   UNL d   1      29.961  17.437 -24.737  0.00  0.00     0.025 A 
ATOM     27  C   UNL d   1      29.172  17.241 -24.607  0.00  0.00     0.127 A 
ATOM     28  C   UNL d   1      28.923  16.456 -24.683  0.00  0.00     0.024 A 
ATOM     29  C   UNL d   1      29.466  15.871 -24.890  0.00  0.00     0.002 A 
ATOM     30  C   UNL d   1      30.254  16.067 -25.021  0.00  0.00     0.002 A 
BRANCH  27  31
ATOM     31  N   UNL d   1      28.636  17.833 -24.400  0.00  0.00    -0.114 N 
ATOM     32  O   UNL d   1      28.505  18.476 -24.904  0.00  0.00    -0.532 OA
ATOM     33  O   UNL d   1      28.225  17.785 -23.683  0.00  0.00    -0.532 OA
ENDBRANCH  27  31
ENDBRANCH  24  25
ENDBRANCH   3  24
TORSDOF 7
ENDMDL
MODEL 2
REMARK VINA RESULT:       2.1      2.298      5.997
REMARK  7 active torsions:
REMARK  status: ('A' for Active; 'I' for Inactive)
REMARK    1  A    between atoms: C_9  and  N_1 
REMARK    2  A    between atoms: C_12  and  N_3 
REMARK    3  A    between atoms: N_7  and  C_11 
REMARK    4  A    between atoms: C_13  and  C_9 
REMARK    5  A    between atoms: C_21  and  C_12 
REMARK       I    between atoms: N_20  and  C_13 
REMARK    6  A    between atoms: C_23  and  N_20 
REMARK    7  A    between atoms: C_24  and  C_23 
ROOT
ATOM      1  N   UNL d   1      33.217  21.232 -23.320  0.00  0.00    -0.220 N 
ATOM      2  C   UNL d   1      33.228  21.829 -22.751  0.00  0.00     0.342 A 
ATOM      3  N   UNL d   1      33.225  22.622 -22.985  0.00  0.00    -0.258 N 
ATOM      4  C   UNL d   1      33.201  22.218 -24.355  0.00  0.00     0.102 A 
ATOM      5  C   UNL d   1      33.204  21.428 -24.123  0.00  0.00     0.276 A 
ATOM      6  C   UNL d   1      33.212  22.815 -23.786  0.00  0.00     0.079 A 
ATOM      7  S   UNL d   1      33.190  22.574 -25.097  0.00  0.00    -0.080 SA
ATOM      8  C   UNL d   1      33.207  23.536 -24.180  0.00  0.00     0.025 A 
ATOM      9  O   UNL d   1      33.241  21.637 -21.939  0.00  0.00    -0.245 OA
ATOM     10  C   UNL d   1      33.193  23.393 -24.990  0.00  0.00     0.037 A 
ATOM     11  O   UNL d   1      33.193  20.830 -24.692  0.00  0.00    -0.266 OA
ENDROOT
BRANCH   1  12
ATOM     12  C   UNL d   1      33.220  20.436 -23.082  0.00  0.00     0.150 C 
BRANCH  12  13
ATOM     13  C   UNL d   1      32.568  20.122 -22.687  0.00  0.00     0.297 C 
ATOM     14  N   UNL d   1      32.300  19.357 -22.869  0.00  0.00    -0.205 NA
ATOM     15  O   UNL d   1      32.174  20.563 -22.105  0.00  0.00    -0.264 OA
BRANCH  14  16
ATOM     16  C   UNL d   1      32.602  19.000 -23.325  0.00  0.00     0.102 C 
BRANCH  16  17
ATOM     17  C   UNL d   1      32.271  18.265 -23.545  0.00  0.00     0.019 A 
ATOM     18  C   UNL d   1      31.714  18.247 -24.161  0.00  0.00     0.002 A 
ATOM     19  C   UNL d   1      31.377  17.520 -24.389  0.00  0.00     0.000 A 
ATOM     20  C   UNL d   1      31.598  16.836 -24.003  0.00  0.00     0.000 A 
ATOM     21  C   UNL d   1      32.155  16.853 -23.386  0.00  0.00     0.000 A 
ATOM     22  C   UNL d   1      31.254  16.108 -24.237  0.00  0.00     0.000 C 
ATOM     23  C   UNL d   1      32.492  17.571 -23.157  0.00  0.00     0.002 A 
ENDBRANCH  16  17
ENDBRANCH  14  16
ENDBRANCH  12  13
ENDBRANCH   1  12
BRANCH   3  24
ATOM     24  C   UNL d   1      33.235  23.220 -22.416  0.00  0.00     0.085 C 
BRANCH  24  25
ATOM     25  C   UNL d   1      32.592  23.322 -21.914  0.00  0.00     0.019 A 
ATOM     26  C   UNL d   1      32.662  23.149 -21.111  0.00  0.00     0.025 A 
ATOM     27  C   UNL d   1      32.017  23.251 -20.608  0.00  0.00     0.127 A 
ATOM     28  C   UNL d   1      31.299  23.529 -20.909  0.00  0.00     0.024 A 
ATOM     29  C   UNL d   1      31.229  23.702 -21.713  0.00  0.00     0.002 A 
ATOM     30  C   UNL d   1      31.873  23.599 -22.214  0.00  0.00     0.002 A 
BRANCH  27  31
ATOM     31  N   UNL d   1      32.096  23.076 -19.806  0.00  0.00    -0.114 N 
ATOM     32  O   UNL d   1      32.508  23.586 -19.303  0.00  0.00    -0.532 OA
ATOM     33  O   UNL d   1      31.761  22.383 -19.501  0.00  0.00    -0.532 OA
ENDBRANCH  27  31
ENDBRANCH  24  25
ENDBRANCH   3  24
TORSDOF 7
ENDMDL
