MODEL 1
REMARK VINA RESULT:      70.8      0.000      0.000
REMARK  5 active torsions:
REMARK  status: ('A' for Active; 'I' for Inactive)
REMARK    1  A    between atoms: C_7  and  C_1 
REMARK    2  A    between atoms: C_12  and  N_2 
REMARK    3  A    between atoms: C_8  and  C_7 
REMARK    4  A    between atoms: O_25  and  C_20 
REMARK    5  A    between atoms: C_26  and  O_25 
ROOT
ATOM      1  N   UNL d   1     -54.781-101.176 -41.713  0.00  0.00    -0.242 N 
ATOM      2  C   UNL d   1     -54.775-101.503 -42.482  0.00  0.00     0.267 A 
ATOM      3  C   UNL d   1     -54.788-100.352 -41.791  0.00  0.00     0.267 A 
ATOM      4  C   UNL d   1     -54.787-100.172 -42.594  0.00  0.00     0.062 A 
ATOM      5  C   UNL d   1     -54.780-100.880 -43.024  0.00  0.00     0.066 A 
ATOM      6  O   UNL d   1     -54.768-102.310 -42.661  0.00  0.00    -0.267 OA
ATOM      7  O   UNL d   1     -54.795 -99.810 -41.170  0.00  0.00    -0.267 OA
ENDROOT
BRANCH   4   8
ATOM      8  C   UNL d   1     -54.793 -99.423 -42.915  0.00  0.00     0.018 C 
BRANCH   8   9
ATOM      9  C   UNL d   1     -55.434 -99.268 -43.417  0.00  0.00     0.045 A 
ATOM     10  N   UNL d   1     -56.221 -99.161 -43.203  0.00  0.00    -0.308 N 
ATOM     11  C   UNL d   1     -56.660 -99.022 -43.884  0.00  0.00     0.060 A 
ATOM     12  C   UNL d   1     -56.511 -99.190 -42.438  0.00  0.00     0.099 C 
ATOM     13  C   UNL d   1     -57.458 -98.880 -44.003  0.00  0.00     0.017 A 
ATOM     14  C   UNL d   1     -56.143 -99.043 -44.526  0.00  0.00    -0.002 A 
ATOM     15  C   UNL d   1     -57.748 -98.758 -44.761  0.00  0.00     0.002 A 
ATOM     16  C   UNL d   1     -57.222 -98.780 -45.407  0.00  0.00    -0.000 A 
ATOM     17  C   UNL d   1     -56.423 -98.922 -45.288  0.00  0.00    -0.003 A 
ATOM     18  C   UNL d   1     -55.385 -99.195 -44.237  0.00  0.00     0.054 A 
ATOM     19  C   UNL d   1     -55.476 -99.099 -45.061  0.00  0.00     0.010 C 
ATOM     20  C   UNL d   1     -54.721 -99.254 -44.739  0.00  0.00     0.010 C 
ENDBRANCH   8   9
ENDBRANCH   4   8
BRANCH   1  21
ATOM     21  C   UNL d   1     -54.779-101.599 -41.013  0.00  0.00     0.070 A 
ATOM     22  C   UNL d   1     -54.834-102.420 -41.022  0.00  0.00     0.020 A 
ATOM     23  C   UNL d   1     -54.832-102.848 -40.308  0.00  0.00     0.026 A 
ATOM     24  C   UNL d   1     -54.774-102.450 -39.588  0.00  0.00     0.100 A 
ATOM     25  C   UNL d   1     -54.718-101.622 -39.577  0.00  0.00     0.026 A 
ATOM     26  C   UNL d   1     -54.720-101.197 -40.284  0.00  0.00     0.020 A 
BRANCH  24  27
ATOM     27  O   UNL d   1     -54.771-102.869 -38.878  0.00  0.00    -0.305 OA
BRANCH  27  28
ATOM     28  C   UNL d   1     -55.193-102.593 -38.230  0.00  0.00     0.123 C 
ATOM     29  C   UNL d   1     -54.990-102.830 -37.468  0.00  0.00     0.029 C 
ENDBRANCH  27  28
ENDBRANCH  24  27
ENDBRANCH   1  21
TORSDOF 5
ENDMDL
