MODEL 1
REMARK VINA RESULT:      51.1      0.000      0.000
REMARK  3 active torsions:
REMARK  status: ('A' for Active; 'I' for Inactive)
REMARK    1  A    between atoms: C_10  and  N_4 
REMARK    2  A    between atoms: C_11  and  N_6 
REMARK    3  A    between atoms: C_16  and  C_11 
ROOT
ATOM      1  C   UNL d   1     -51.346  25.058  33.382  0.00  0.00     0.172 A 
ATOM      2  C   UNL d   1     -50.531  24.929  33.349  0.00  0.00     0.113 A 
ATOM      3  N   UNL d   1     -51.642  25.823  33.405  0.00  0.00    -0.206 NA
ATOM      4  N   UNL d   1     -51.715  24.315  33.385  0.00  0.00    -0.212 N 
ATOM      5  C   UNL d   1     -50.013  25.565  33.339  0.00  0.00     0.270 A 
ATOM      6  N   UNL d   1     -50.307  26.338  33.362  0.00  0.00    -0.254 N 
ATOM      7  N   UNL d   1     -51.128  23.745  33.354  0.00  0.00    -0.162 NA
ATOM      8  C   UNL d   1     -51.122  26.467  33.395  0.00  0.00     0.187 A 
ATOM      9  C   UNL d   1     -50.412  24.108  33.332  0.00  0.00     0.129 A 
ATOM     10  O   UNL d   1     -49.199  25.436  33.306  0.00  0.00    -0.266 OA
ENDROOT
BRANCH   4  11
ATOM     11  C   UNL d   1     -52.509  24.140  33.412  0.00  0.00     0.085 A 
ATOM     12  C   UNL d   1     -53.074  24.744  33.307  0.00  0.00     0.021 A 
ATOM     13  C   UNL d   1     -53.871  24.562  33.336  0.00  0.00     0.031 A 
ATOM     14  C   UNL d   1     -54.121  23.769  33.471  0.00  0.00     0.140 A 
ATOM     15  C   UNL d   1     -53.561  23.190  33.573  0.00  0.00     0.031 A 
ATOM     16  F   UNL d   1     -54.936  23.573  33.503  0.00  0.00    -0.204 F 
ATOM     17  C   UNL d   1     -52.757  23.363  33.545  0.00  0.00     0.021 A 
ENDBRANCH   4  11
BRANCH   6  18
ATOM     18  C   UNL d   1     -49.787  26.991  33.352  0.00  0.00     0.104 C 
BRANCH  18  19
ATOM     19  C   UNL d   1     -49.546  27.342  34.065  0.00  0.00     0.099 A 
ATOM     20  N   UNL d   1     -50.119  27.624  34.586  0.00  0.00    -0.242 NA
ATOM     21  C   UNL d   1     -49.880  27.979  35.308  0.00  0.00     0.099 A 
ATOM     22  C   UNL d   1     -49.080  28.032  35.467  0.00  0.00     0.021 A 
ATOM     23  C   UNL d   1     -48.504  27.746  34.939  0.00  0.00     0.003 A 
ATOM     24  C   UNL d   1     -48.750  27.402  34.239  0.00  0.00     0.021 A 
ENDBRANCH  18  19
ENDBRANCH   6  18
TORSDOF 3
ENDMDL
