MODEL 1
REMARK VINA RESULT:      -5.8      0.000      0.000
REMARK  7 active torsions:
REMARK  status: ('A' for Active; 'I' for Inactive)
REMARK    1  A    between atoms: C_16  and  N_3 
REMARK    2  A    between atoms: C_15  and  N_8 
REMARK    3  A    between atoms: C_12  and  C_10 
REMARK    4  A    between atoms: C_11  and  N_14 
REMARK    5  A    between atoms: O_22  and  C_12 
REMARK    6  A    between atoms: C_13  and  C_15 
REMARK       I    between atoms: N_14  and  C_13 
REMARK    7  A    between atoms: C_28  and  O_22 
ROOT
ATOM      1  C   UNL d   1     -44.713  12.889  22.131  0.00  0.00     0.191 A 
ATOM      2  C   UNL d   1     -44.160  12.290  22.304  0.00  0.00     0.196 A 
ATOM      3  N   UNL d   1     -45.398  12.729  22.571  0.00  0.00    -0.193 N 
ATOM      4  N   UNL d   1     -45.264  12.046  23.001  0.00  0.00    -0.058 NA
ATOM      5  N   UNL d   1     -44.518  11.774  22.846  0.00  0.00    -0.122 NA
ATOM      6  N   UNL d   1     -44.515  13.484  21.608  0.00  0.00    -0.204 NA
ATOM      7  C   UNL d   1     -43.426  12.303  21.948  0.00  0.00     0.289 A 
ATOM      8  N   UNL d   1     -43.221  12.900  21.420  0.00  0.00    -0.249 N 
ATOM      9  C   UNL d   1     -43.774  13.499  21.247  0.00  0.00     0.187 A 
ATOM     10  O   UNL d   1     -42.874  11.703  22.121  0.00  0.00    -0.265 OA
ENDROOT
BRANCH   8  11
ATOM     11  C   UNL d   1     -42.476  12.920  21.053  0.00  0.00     0.147 C 
BRANCH  11  12
ATOM     12  C   UNL d   1     -42.025  13.619  21.052  0.00  0.00     0.297 C 
ATOM     13  N   UNL d   1     -41.580  13.810  20.388  0.00  0.00    -0.207 NA
ATOM     14  O   UNL d   1     -42.029  14.112  21.713  0.00  0.00    -0.264 OA
BRANCH  13  15
ATOM     15  C   UNL d   1     -41.130  14.504  20.380  0.00  0.00     0.090 A 
ATOM     16  C   UNL d   1     -40.673  14.680  19.729  0.00  0.00     0.081 A 
ATOM     17  C   UNL d   1     -40.223  15.374  19.721  0.00  0.00     0.007 A 
ATOM     18  C   UNL d   1     -40.238  15.882  20.370  0.00  0.00     0.000 A 
ATOM     19  C   UNL d   1     -40.694  15.707  21.020  0.00  0.00     0.002 A 
ATOM     20  C   UNL d   1     -41.140  15.018  21.025  0.00  0.00     0.019 A 
BRANCH  16  21
ATOM     21  C   UNL d   1     -40.658  14.171  19.079  0.00  0.00     0.302 C 
ATOM     22  O   UNL d   1     -41.339  14.067  18.621  0.00  0.00    -0.259 OA
BRANCH  21  23
ATOM     23  O   UNL d   1     -39.962  13.767  18.889  0.00  0.00    -0.271 OA
BRANCH  23  24
ATOM     24  C   UNL d   1     -39.780  13.597  18.100  0.00  0.00     0.126 C 
ATOM     25  C   UNL d   1     -39.078  13.218  17.913  0.00  0.00     0.029 C 
ENDBRANCH  23  24
ENDBRANCH  21  23
ENDBRANCH  16  21
ENDBRANCH  13  15
ENDBRANCH  11  12
ENDBRANCH   8  11
BRANCH   3  26
ATOM     26  C   UNL d   1     -46.091  13.142  22.599  0.00  0.00     0.086 A 
ATOM     27  C   UNL d   1     -46.765  12.865  22.182  0.00  0.00     0.019 A 
ATOM     28  C   UNL d   1     -47.457  13.285  22.215  0.00  0.00     0.002 A 
ATOM     29  C   UNL d   1     -47.507  13.996  22.664  0.00  0.00     0.000 A 
ATOM     30  C   UNL d   1     -46.850  14.256  23.064  0.00  0.00     0.002 A 
ATOM     31  C   UNL d   1     -48.229  14.437  22.700  0.00  0.00     0.000 C 
ATOM     32  C   UNL d   1     -46.141  13.840  23.039  0.00  0.00     0.019 A 
ENDBRANCH   3  26
TORSDOF 7
ENDMDL
MODEL 2
REMARK VINA RESULT:      -5.7      2.376      6.486
REMARK  7 active torsions:
REMARK  status: ('A' for Active; 'I' for Inactive)
REMARK    1  A    between atoms: C_16  and  N_3 
REMARK    2  A    between atoms: C_15  and  N_8 
REMARK    3  A    between atoms: C_12  and  C_10 
REMARK    4  A    between atoms: C_11  and  N_14 
REMARK    5  A    between atoms: O_22  and  C_12 
REMARK    6  A    between atoms: C_13  and  C_15 
REMARK       I    between atoms: N_14  and  C_13 
REMARK    7  A    between atoms: C_28  and  O_22 
ROOT
ATOM      1  C   UNL d   1     -44.163  12.656  22.144  0.00  0.00     0.191 A 
ATOM      2  C   UNL d   1     -44.444  12.015  22.597  0.00  0.00     0.196 A 
ATOM      3  N   UNL d   1     -43.384  12.478  21.919  0.00  0.00    -0.193 N 
ATOM      4  N   UNL d   1     -43.196  11.745  22.229  0.00  0.00    -0.058 NA
ATOM      5  N   UNL d   1     -43.831  11.457  22.641  0.00  0.00    -0.122 NA
ATOM      6  N   UNL d   1     -44.650  13.296  22.004  0.00  0.00    -0.204 NA
ATOM      7  C   UNL d   1     -45.202  12.034  22.897  0.00  0.00     0.289 A 
ATOM      8  N   UNL d   1     -45.697  12.678  22.759  0.00  0.00    -0.249 N 
ATOM      9  C   UNL d   1     -45.417  13.318  22.306  0.00  0.00     0.187 A 
ATOM     10  O   UNL d   1     -45.482  11.393  23.350  0.00  0.00    -0.265 OA
ENDROOT
BRANCH   8  11
ATOM     11  C   UNL d   1     -46.470  12.705  23.061  0.00  0.00     0.147 C 
BRANCH  11  12
ATOM     12  C   UNL d   1     -46.948  13.374  22.939  0.00  0.00     0.297 C 
ATOM     13  N   UNL d   1     -47.737  13.275  22.734  0.00  0.00    -0.207 NA
ATOM     14  O   UNL d   1     -46.627  14.129  23.025  0.00  0.00    -0.264 OA
BRANCH  13  15
ATOM     15  C   UNL d   1     -48.218  13.937  22.611  0.00  0.00     0.090 A 
ATOM     16  C   UNL d   1     -49.013  13.835  22.466  0.00  0.00     0.081 A 
ATOM     17  C   UNL d   1     -49.493  14.497  22.343  0.00  0.00     0.007 A 
ATOM     18  C   UNL d   1     -49.166  15.254  22.368  0.00  0.00     0.000 A 
ATOM     19  C   UNL d   1     -48.372  15.355  22.513  0.00  0.00     0.002 A 
ATOM     20  C   UNL d   1     -47.898  14.697  22.635  0.00  0.00     0.019 A 
BRANCH  16  21
ATOM     21  C   UNL d   1     -49.340  13.078  22.441  0.00  0.00     0.302 C 
ATOM     22  O   UNL d   1     -49.272  12.623  21.753  0.00  0.00    -0.259 OA
BRANCH  21  23
ATOM     23  O   UNL d   1     -49.735  12.778  23.102  0.00  0.00    -0.271 OA
BRANCH  23  24
ATOM     24  C   UNL d   1     -50.216  12.108  23.032  0.00  0.00     0.126 C 
ATOM     25  C   UNL d   1     -50.578  11.792  23.697  0.00  0.00     0.029 C 
ENDBRANCH  23  24
ENDBRANCH  21  23
ENDBRANCH  16  21
ENDBRANCH  13  15
ENDBRANCH  11  12
ENDBRANCH   8  11
BRANCH   3  26
ATOM     26  C   UNL d   1     -42.871  12.918  21.477  0.00  0.00     0.086 A 
ATOM     27  C   UNL d   1     -42.951  12.947  20.642  0.00  0.00     0.019 A 
ATOM     28  C   UNL d   1     -42.432  13.390  20.205  0.00  0.00     0.002 A 
ATOM     29  C   UNL d   1     -41.814  13.821  20.581  0.00  0.00     0.000 A 
ATOM     30  C   UNL d   1     -41.744  13.787  21.389  0.00  0.00     0.002 A 
ATOM     31  C   UNL d   1     -41.270  14.285  20.126  0.00  0.00     0.000 C 
ATOM     32  C   UNL d   1     -42.264  13.341  21.844  0.00  0.00     0.019 A 
ENDBRANCH   3  26
TORSDOF 7
ENDMDL
