MODEL 1
REMARK VINA RESULT:      -6.4      0.000      0.000
REMARK  5 active torsions:
REMARK  status: ('A' for Active; 'I' for Inactive)
REMARK       I    between atoms: C_2  and  N_1 
REMARK    1  A    between atoms: C_3  and  N_1 
REMARK    2  A    between atoms: C_7  and  C_2 
REMARK    3  A    between atoms: N_5  and  C_3 
REMARK    4  A    between atoms: C_8  and  N_5 
REMARK    5  A    between atoms: C_9  and  C_8 
ROOT
ATOM      1  C   UNL d   1     -47.969  14.124  22.666  0.00  0.00     0.179 C 
ATOM      2  S   UNL d   1     -48.059  14.947  22.573  0.00  0.00    -0.040 SA
ENDROOT
BRANCH   1   3
ATOM      3  N   UNL d   1     -48.560  13.685  23.024  0.00  0.00    -0.299 N 
ATOM      4  C   UNL d   1     -49.251  13.488  22.602  0.00  0.00     0.259 C 
ATOM      5  O   UNL d   1     -49.334  13.741  21.818  0.00  0.00    -0.267 OA
ATOM      6  H   UNL d   1     -48.467  13.438  23.804  0.00  0.00     0.171 HD
BRANCH   4   7
ATOM      7  C   UNL d   1     -49.843  13.045  22.968  0.00  0.00     0.056 A 
ATOM      8  C   UNL d   1     -50.471  13.427  23.330  0.00  0.00     0.005 A 
ATOM      9  C   UNL d   1     -51.064  12.976  23.697  0.00  0.00     0.000 A 
ATOM     10  C   UNL d   1     -51.021  12.148  23.698  0.00  0.00     0.000 A 
ATOM     11  C   UNL d   1     -50.382  11.768  23.330  0.00  0.00     0.000 A 
ATOM     12  C   UNL d   1     -49.784  12.223  22.960  0.00  0.00     0.005 A 
ENDBRANCH   4   7
ENDBRANCH   1   3
BRANCH   1  13
ATOM     13  N   UNL d   1     -47.279  13.754  22.394  0.00  0.00    -0.330 N 
ATOM     14  H   UNL d   1     -47.311  13.303  21.706  0.00  0.00     0.168 HD
BRANCH  13  15
ATOM     15  C   UNL d   1     -46.580  13.838  22.802  0.00  0.00     0.074 C 
BRANCH  15  16
ATOM     16  C   UNL d   1     -45.932  13.326  22.630  0.00  0.00     0.017 A 
ATOM     17  C   UNL d   1     -45.368  13.555  22.082  0.00  0.00     0.002 A 
ATOM     18  C   UNL d   1     -44.742  13.065  21.913  0.00  0.00     0.000 A 
ATOM     19  C   UNL d   1     -44.671  12.338  22.291  0.00  0.00     0.000 A 
ATOM     20  C   UNL d   1     -45.247  12.105  22.851  0.00  0.00     0.000 A 
ATOM     21  C   UNL d   1     -45.874  12.605  23.014  0.00  0.00     0.002 A 
ENDBRANCH  15  16
ENDBRANCH  13  15
ENDBRANCH   1  13
TORSDOF 5
ENDMDL
MODEL 2
REMARK VINA RESULT:      -6.2      0.777      4.450
REMARK  5 active torsions:
REMARK  status: ('A' for Active; 'I' for Inactive)
REMARK       I    between atoms: C_2  and  N_1 
REMARK    1  A    between atoms: C_3  and  N_1 
REMARK    2  A    between atoms: C_7  and  C_2 
REMARK    3  A    between atoms: N_5  and  C_3 
REMARK    4  A    between atoms: C_8  and  N_5 
REMARK    5  A    between atoms: C_9  and  C_8 
ROOT
ATOM      1  C   UNL d   1     -47.887  14.008  22.652  0.00  0.00     0.179 C 
ATOM      2  S   UNL d   1     -47.877  14.820  22.461  0.00  0.00    -0.040 SA
ENDROOT
BRANCH   1   3
ATOM      3  N   UNL d   1     -47.243  13.536  22.471  0.00  0.00    -0.299 N 
ATOM      4  C   UNL d   1     -46.497  13.700  22.805  0.00  0.00     0.259 C 
ATOM      5  O   UNL d   1     -46.414  14.343  23.319  0.00  0.00    -0.267 OA
ATOM      6  H   UNL d   1     -47.337  12.899  21.959  0.00  0.00     0.171 HD
BRANCH   4   7
ATOM      7  C   UNL d   1     -45.852  13.220  22.619  0.00  0.00     0.056 A 
ATOM      8  C   UNL d   1     -45.299  13.477  22.071  0.00  0.00     0.005 A 
ATOM      9  C   UNL d   1     -44.651  12.990  21.888  0.00  0.00     0.000 A 
ATOM     10  C   UNL d   1     -44.564  12.253  22.256  0.00  0.00     0.000 A 
ATOM     11  C   UNL d   1     -45.128  12.000  22.811  0.00  0.00     0.000 A 
ATOM     12  C   UNL d   1     -45.780  12.490  22.995  0.00  0.00     0.005 A 
ENDBRANCH   4   7
ENDBRANCH   1   3
BRANCH   1  13
ATOM     13  N   UNL d   1     -48.552  13.684  23.024  0.00  0.00    -0.330 N 
ATOM     14  H   UNL d   1     -48.567  13.632  23.845  0.00  0.00     0.168 HD
BRANCH  13  15
ATOM     15  C   UNL d   1     -49.183  13.421  22.582  0.00  0.00     0.074 C 
BRANCH  15  16
ATOM     16  C   UNL d   1     -49.809  12.998  22.957  0.00  0.00     0.017 A 
ATOM     17  C   UNL d   1     -50.459  13.406  23.247  0.00  0.00     0.002 A 
ATOM     18  C   UNL d   1     -51.064  13.002  23.609  0.00  0.00     0.000 A 
ATOM     19  C   UNL d   1     -51.029  12.184  23.687  0.00  0.00     0.000 A 
ATOM     20  C   UNL d   1     -50.365  11.768  23.391  0.00  0.00     0.000 A 
ATOM     21  C   UNL d   1     -49.761  12.184  23.028  0.00  0.00     0.002 A 
ENDBRANCH  15  16
ENDBRANCH  13  15
ENDBRANCH   1  13
TORSDOF 5
ENDMDL
MODEL 3
REMARK VINA RESULT:      -5.6      8.950     10.126
REMARK  5 active torsions:
REMARK  status: ('A' for Active; 'I' for Inactive)
REMARK       I    between atoms: C_2  and  N_1 
REMARK    1  A    between atoms: C_3  and  N_1 
REMARK    2  A    between atoms: C_7  and  C_2 
REMARK    3  A    between atoms: N_5  and  C_3 
REMARK    4  A    between atoms: C_8  and  N_5 
REMARK    5  A    between atoms: C_9  and  C_8 
ROOT
ATOM      1  C   UNL d   1     -39.854  14.483  19.391  0.00  0.00     0.179 C 
ATOM      2  S   UNL d   1     -40.546  14.947  19.400  0.00  0.00    -0.040 SA
ENDROOT
BRANCH   1   3
ATOM      3  N   UNL d   1     -39.400  14.435  18.711  0.00  0.00    -0.299 N 
ATOM      4  C   UNL d   1     -39.695  14.039  18.038  0.00  0.00     0.259 C 
ATOM      5  O   UNL d   1     -40.448  13.697  18.065  0.00  0.00    -0.267 OA
ATOM      6  H   UNL d   1     -38.653  14.778  18.694  0.00  0.00     0.171 HD
BRANCH   4   7
ATOM      7  C   UNL d   1     -39.234  13.993  17.356  0.00  0.00     0.056 A 
ATOM      8  C   UNL d   1     -39.262  14.600  16.805  0.00  0.00     0.005 A 
ATOM      9  C   UNL d   1     -38.795  14.549  16.119  0.00  0.00     0.000 A 
ATOM     10  C   UNL d   1     -38.307  13.891  15.993  0.00  0.00     0.000 A 
ATOM     11  C   UNL d   1     -38.284  13.281  16.555  0.00  0.00     0.000 A 
ATOM     12  C   UNL d   1     -38.754  13.333  17.246  0.00  0.00     0.005 A 
ENDBRANCH   4   7
ENDBRANCH   1   3
BRANCH   1  13
ATOM     13  N   UNL d   1     -39.628  14.072  20.074  0.00  0.00    -0.330 N 
ATOM     14  H   UNL d   1     -39.780  13.265  20.125  0.00  0.00     0.168 HD
BRANCH  13  15
ATOM     15  C   UNL d   1     -39.260  14.463  20.686  0.00  0.00     0.074 C 
BRANCH  15  16
ATOM     16  C   UNL d   1     -38.953  14.025  21.337  0.00  0.00     0.017 A 
ATOM     17  C   UNL d   1     -38.241  13.626  21.259  0.00  0.00     0.002 A 
ATOM     18  C   UNL d   1     -37.941  13.202  21.884  0.00  0.00     0.000 A 
ATOM     19  C   UNL d   1     -38.348  13.172  22.598  0.00  0.00     0.000 A 
ATOM     20  C   UNL d   1     -39.074  13.579  22.678  0.00  0.00     0.000 A 
ATOM     21  C   UNL d   1     -39.369  14.003  22.042  0.00  0.00     0.002 A 
ENDBRANCH  15  16
ENDBRANCH  13  15
ENDBRANCH   1  13
TORSDOF 5
ENDMDL
MODEL 4
REMARK VINA RESULT:      -5.5      8.518      9.485
REMARK  5 active torsions:
REMARK  status: ('A' for Active; 'I' for Inactive)
REMARK       I    between atoms: C_2  and  N_1 
REMARK    1  A    between atoms: C_3  and  N_1 
REMARK    2  A    between atoms: C_7  and  C_2 
REMARK    3  A    between atoms: N_5  and  C_3 
REMARK    4  A    between atoms: C_8  and  N_5 
REMARK    5  A    between atoms: C_9  and  C_8 
ROOT
ATOM      1  C   UNL d   1     -40.374  14.802  20.352  0.00  0.00     0.179 C 
ATOM      2  S   UNL d   1     -41.027  15.199  20.683  0.00  0.00    -0.040 SA
ENDROOT
BRANCH   1   3
ATOM      3  N   UNL d   1     -39.925  14.295  20.813  0.00  0.00    -0.299 N 
ATOM      4  C   UNL d   1     -39.440  14.598  21.420  0.00  0.00     0.259 C 
ATOM      5  O   UNL d   1     -39.417  15.415  21.552  0.00  0.00    -0.267 OA
ATOM      6  H   UNL d   1     -39.955  13.484  20.674  0.00  0.00     0.171 HD
BRANCH   4   7
ATOM      7  C   UNL d   1     -38.990  14.082  21.881  0.00  0.00     0.056 A 
ATOM      8  C   UNL d   1     -39.136  14.025  22.685  0.00  0.00     0.005 A 
ATOM      9  C   UNL d   1     -38.680  13.504  23.145  0.00  0.00     0.000 A 
ATOM     10  C   UNL d   1     -38.084  13.047  22.793  0.00  0.00     0.000 A 
ATOM     11  C   UNL d   1     -37.942  13.111  21.978  0.00  0.00     0.000 A 
ATOM     12  C   UNL d   1     -38.402  13.636  21.515  0.00  0.00     0.005 A 
ENDBRANCH   4   7
ENDBRANCH   1   3
BRANCH   1  13
ATOM     13  N   UNL d   1     -40.182  14.923  19.556  0.00  0.00    -0.330 N 
ATOM     14  H   UNL d   1     -39.488  15.325  19.367  0.00  0.00     0.168 HD
BRANCH  13  15
ATOM     15  C   UNL d   1     -40.673  14.649  18.968  0.00  0.00     0.074 C 
BRANCH  15  16
ATOM     16  C   UNL d   1     -40.468  14.771  18.160  0.00  0.00     0.017 A 
ATOM     17  C   UNL d   1     -40.829  15.374  17.736  0.00  0.00     0.002 A 
ATOM     18  C   UNL d   1     -40.633  15.495  16.956  0.00  0.00     0.000 A 
ATOM     19  C   UNL d   1     -40.075  15.017  16.589  0.00  0.00     0.000 A 
ATOM     20  C   UNL d   1     -39.707  14.402  17.022  0.00  0.00     0.000 A 
ATOM     21  C   UNL d   1     -39.910  14.287  17.807  0.00  0.00     0.002 A 
ENDBRANCH  15  16
ENDBRANCH  13  15
ENDBRANCH   1  13
TORSDOF 5
ENDMDL
MODEL 5
REMARK VINA RESULT:      -5.4      1.708      4.700
REMARK  5 active torsions:
REMARK  status: ('A' for Active; 'I' for Inactive)
REMARK       I    between atoms: C_2  and  N_1 
REMARK    1  A    between atoms: C_3  and  N_1 
REMARK    2  A    between atoms: C_7  and  C_2 
REMARK    3  A    between atoms: N_5  and  C_3 
REMARK    4  A    between atoms: C_8  and  N_5 
REMARK    5  A    between atoms: C_9  and  C_8 
ROOT
ATOM      1  C   UNL d   1     -47.344  12.730  23.022  0.00  0.00     0.179 C 
ATOM      2  S   UNL d   1     -47.594  11.986  23.304  0.00  0.00    -0.040 SA
ENDROOT
BRANCH   1   3
ATOM      3  N   UNL d   1     -46.648  12.795  22.597  0.00  0.00    -0.299 N 
ATOM      4  C   UNL d   1     -45.927  12.540  22.931  0.00  0.00     0.259 C 
ATOM      5  O   UNL d   1     -45.923  12.221  23.695  0.00  0.00    -0.267 OA
ATOM      6  H   UNL d   1     -46.662  13.114  21.839  0.00  0.00     0.171 HD
BRANCH   4   7
ATOM      7  C   UNL d   1     -45.228  12.609  22.498  0.00  0.00     0.056 A 
ATOM      8  C   UNL d   1     -44.640  12.045  22.584  0.00  0.00     0.005 A 
ATOM      9  C   UNL d   1     -43.938  12.119  22.145  0.00  0.00     0.000 A 
ATOM     10  C   UNL d   1     -43.834  12.756  21.626  0.00  0.00     0.000 A 
ATOM     11  C   UNL d   1     -44.434  13.324  21.544  0.00  0.00     0.000 A 
ATOM     12  C   UNL d   1     -45.141  13.249  21.986  0.00  0.00     0.005 A 
ENDBRANCH   4   7
ENDBRANCH   1   3
BRANCH   1  13
ATOM     13  N   UNL d   1     -47.805  13.400  23.176  0.00  0.00    -0.330 N 
ATOM     14  H   UNL d   1     -47.504  13.991  23.663  0.00  0.00     0.168 HD
BRANCH  13  15
ATOM     15  C   UNL d   1     -48.547  13.473  22.848  0.00  0.00     0.074 C 
BRANCH  15  16
ATOM     16  C   UNL d   1     -48.978  14.191  22.943  0.00  0.00     0.017 A 
ATOM     17  C   UNL d   1     -48.702  14.880  22.594  0.00  0.00     0.002 A 
ATOM     18  C   UNL d   1     -49.115  15.575  22.684  0.00  0.00     0.000 A 
ATOM     19  C   UNL d   1     -49.809  15.591  23.124  0.00  0.00     0.000 A 
ATOM     20  C   UNL d   1     -50.090  14.888  23.481  0.00  0.00     0.000 A 
ATOM     21  C   UNL d   1     -49.667  14.193  23.385  0.00  0.00     0.002 A 
ENDBRANCH  15  16
ENDBRANCH  13  15
ENDBRANCH   1  13
TORSDOF 5
ENDMDL
MODEL 6
REMARK VINA RESULT:      -5.1      8.467     10.281
REMARK  5 active torsions:
REMARK  status: ('A' for Active; 'I' for Inactive)
REMARK       I    between atoms: C_2  and  N_1 
REMARK    1  A    between atoms: C_3  and  N_1 
REMARK    2  A    between atoms: C_7  and  C_2 
REMARK    3  A    between atoms: N_5  and  C_3 
REMARK    4  A    between atoms: C_8  and  N_5 
REMARK    5  A    between atoms: C_9  and  C_8 
ROOT
ATOM      1  C   UNL d   1     -40.493  15.260  17.969  0.00  0.00     0.179 C 
ATOM      2  S   UNL d   1     -41.129  15.557  17.519  0.00  0.00    -0.040 SA
ENDROOT
BRANCH   1   3
ATOM      3  N   UNL d   1     -39.964  14.732  17.634  0.00  0.00    -0.299 N 
ATOM      4  C   UNL d   1     -39.538  14.944  16.950  0.00  0.00     0.259 C 
ATOM      5  O   UNL d   1     -39.653  15.692  16.613  0.00  0.00    -0.267 OA
ATOM      6  H   UNL d   1     -39.857  13.991  17.976  0.00  0.00     0.171 HD
BRANCH   4   7
ATOM      7  C   UNL d   1     -39.006  14.408  16.616  0.00  0.00     0.056 A 
ATOM      8  C   UNL d   1     -38.870  13.689  16.985  0.00  0.00     0.005 A 
ATOM      9  C   UNL d   1     -38.333  13.153  16.644  0.00  0.00     0.000 A 
ATOM     10  C   UNL d   1     -37.940  13.344  15.940  0.00  0.00     0.000 A 
ATOM     11  C   UNL d   1     -38.083  14.075  15.573  0.00  0.00     0.000 A 
ATOM     12  C   UNL d   1     -38.624  14.614  15.916  0.00  0.00     0.005 A 
ENDBRANCH   4   7
ENDBRANCH   1   3
BRANCH   1  13
ATOM     13  N   UNL d   1     -40.401  15.501  18.756  0.00  0.00    -0.330 N 
ATOM     14  H   UNL d   1     -39.967  16.182  18.918  0.00  0.00     0.168 HD
BRANCH  13  15
ATOM     15  C   UNL d   1     -40.736  15.070  19.360  0.00  0.00     0.074 C 
BRANCH  15  16
ATOM     16  C   UNL d   1     -40.517  15.230  20.158  0.00  0.00     0.017 A 
ATOM     17  C   UNL d   1     -40.955  15.765  20.600  0.00  0.00     0.002 A 
ATOM     18  C   UNL d   1     -40.748  15.922  21.371  0.00  0.00     0.000 A 
ATOM     19  C   UNL d   1     -40.100  15.547  21.710  0.00  0.00     0.000 A 
ATOM     20  C   UNL d   1     -39.653  15.002  21.259  0.00  0.00     0.000 A 
ATOM     21  C   UNL d   1     -39.870  14.850  20.484  0.00  0.00     0.002 A 
ENDBRANCH  15  16
ENDBRANCH  13  15
ENDBRANCH   1  13
TORSDOF 5
ENDMDL
MODEL 7
REMARK VINA RESULT:      -5.0      1.458      2.035
REMARK  5 active torsions:
REMARK  status: ('A' for Active; 'I' for Inactive)
REMARK       I    between atoms: C_2  and  N_1 
REMARK    1  A    between atoms: C_3  and  N_1 
REMARK    2  A    between atoms: C_7  and  C_2 
REMARK    3  A    between atoms: N_5  and  C_3 
REMARK    4  A    between atoms: C_8  and  N_5 
REMARK    5  A    between atoms: C_9  and  C_8 
ROOT
ATOM      1  C   UNL d   1     -46.758  12.842  22.850  0.00  0.00     0.179 C 
ATOM      2  S   UNL d   1     -46.557  13.649  22.906  0.00  0.00    -0.040 SA
ENDROOT
BRANCH   1   3
ATOM      3  N   UNL d   1     -47.544  12.615  22.821  0.00  0.00    -0.299 N 
ATOM      4  C   UNL d   1     -48.070  12.994  22.295  0.00  0.00     0.259 C 
ATOM      5  O   UNL d   1     -47.790  13.599  21.805  0.00  0.00    -0.267 OA
ATOM      6  H   UNL d   1     -47.813  12.013  23.312  0.00  0.00     0.171 HD
BRANCH   4   7
ATOM      7  C   UNL d   1     -48.861  12.762  22.270  0.00  0.00     0.056 A 
ATOM      8  C   UNL d   1     -49.286  12.691  22.968  0.00  0.00     0.005 A 
ATOM      9  C   UNL d   1     -50.083  12.456  22.936  0.00  0.00     0.000 A 
ATOM     10  C   UNL d   1     -50.444  12.296  22.208  0.00  0.00     0.000 A 
ATOM     11  C   UNL d   1     -50.007  12.370  21.506  0.00  0.00     0.000 A 
ATOM     12  C   UNL d   1     -49.205  12.606  21.537  0.00  0.00     0.005 A 
ENDBRANCH   4   7
ENDBRANCH   1   3
BRANCH   1  13
ATOM     13  N   UNL d   1     -46.158  12.272  22.824  0.00  0.00    -0.330 N 
ATOM     14  H   UNL d   1     -45.729  12.171  22.129  0.00  0.00     0.168 HD
BRANCH  13  15
ATOM     15  C   UNL d   1     -45.994  11.817  23.480  0.00  0.00     0.074 C 
BRANCH  15  16
ATOM     16  C   UNL d   1     -45.366  11.255  23.453  0.00  0.00     0.017 A 
ATOM     17  C   UNL d   1     -45.500  10.484  23.698  0.00  0.00     0.002 A 
ATOM     18  C   UNL d   1     -44.897   9.939  23.674  0.00  0.00     0.000 A 
ATOM     19  C   UNL d   1     -44.152  10.158  23.404  0.00  0.00     0.000 A 
ATOM     20  C   UNL d   1     -44.015  10.945  23.154  0.00  0.00     0.000 A 
ATOM     21  C   UNL d   1     -44.629  11.486  23.182  0.00  0.00     0.002 A 
ENDBRANCH  15  16
ENDBRANCH  13  15
ENDBRANCH   1  13
TORSDOF 5
ENDMDL
