MODEL 1
REMARK VINA RESULT:      -1.8      0.000      0.000
REMARK  3 active torsions:
REMARK  status: ('A' for Active; 'I' for Inactive)
REMARK    1  A    between atoms: N_8  and  C_1 
REMARK    2  A    between atoms: N_7  and  C_2 
REMARK    3  A    between atoms: C_11  and  N_8 
ROOT
ATOM      1  C   UNL d   1      31.716  17.605 -24.388  0.00  0.00     0.139 A 
ATOM      2  C   UNL d   1      31.516  16.894 -24.029  0.00  0.00     0.124 A 
ATOM      3  C   UNL d   1      30.724  16.627 -24.005  0.00  0.00     0.213 A 
ATOM      4  C   UNL d   1      31.129  18.072 -24.735  0.00  0.00     0.215 A 
ATOM      5  C   UNL d   1      30.149  17.111 -24.359  0.00  0.00     0.044 A 
ATOM      6  C   UNL d   1      30.348  17.822 -24.718  0.00  0.00     0.044 A 
ATOM      7  O   UNL d   1      30.522  15.909 -23.643  0.00  0.00    -0.285 OA
ATOM      8  O   UNL d   1      31.331  18.790 -25.097  0.00  0.00    -0.285 OA
ATOM      9  C   UNL d   1      29.356  16.844 -24.335  0.00  0.00     0.003 A 
ATOM     10  C   UNL d   1      29.761  18.290 -25.064  0.00  0.00     0.003 A 
ATOM     11  C   UNL d   1      28.778  17.329 -24.689  0.00  0.00     0.000 A 
ATOM     12  C   UNL d   1      28.977  18.040 -25.048  0.00  0.00     0.000 A 
ENDROOT
BRANCH   1  13
ATOM     13  N   UNL d   1      32.522  17.851 -24.399  0.00  0.00    -0.241 NA
BRANCH  13  14
ATOM     14  C   UNL d   1      32.721  18.607 -24.122  0.00  0.00     0.082 A 
ATOM     15  C   UNL d   1      33.013  19.173 -24.645  0.00  0.00     0.019 A 
ATOM     16  C   UNL d   1      33.210  19.925 -24.370  0.00  0.00     0.002 A 
ATOM     17  C   UNL d   1      33.112  20.100 -23.574  0.00  0.00     0.000 A 
ATOM     18  C   UNL d   1      32.824  19.544 -23.054  0.00  0.00     0.002 A 
ATOM     19  C   UNL d   1      32.627  18.792 -23.330  0.00  0.00     0.019 A 
ENDBRANCH  13  14
ENDBRANCH   1  13
BRANCH   2  20
ATOM     20  N   UNL d   1      32.099  16.409 -23.674  0.00  0.00    -0.300 N 
ATOM     21  C   UNL d   1      32.675  16.024 -24.130  0.00  0.00     0.080 A 
ATOM     22  C   UNL d   1      33.238  15.552 -23.765  0.00  0.00     0.019 A 
ATOM     23  C   UNL d   1      33.241  15.453 -22.933  0.00  0.00     0.003 A 
ATOM     24  C   UNL d   1      32.665  15.837 -22.477  0.00  0.00     0.019 A 
ATOM     25  C   UNL d   1      32.076  16.328 -22.845  0.00  0.00     0.080 A 
ENDBRANCH   2  20
TORSDOF 3
ENDMDL
