MODEL 1
REMARK VINA RESULT:     -10.3      0.000      0.000
REMARK  1 active torsions:
REMARK  status: ('A' for Active; 'I' for Inactive)
REMARK    1  A    between atoms: C_7  and  C_4 
ROOT
ATOM      1  N   UNL d   1      52.780  34.013  53.944  0.00  0.00    -0.242 NA
ATOM      2  C   UNL d   1      52.664  32.720  53.329  0.00  0.00     0.156 A 
ATOM      3  N   UNL d   1      53.341  32.471  53.731  0.00  0.00    -0.231 NA
ATOM      4  C   UNL d   1      52.382  33.496  53.437  0.00  0.00     0.110 A 
ATOM      5  C   UNL d   1      53.457  33.755  54.342  0.00  0.00     0.099 A 
ATOM      6  C   UNL d   1      53.732  32.985  54.232  0.00  0.00     0.100 A 
ATOM      7 CL   UNL d   1      52.265  32.207  52.822  0.00  0.00    -0.060 Cl
ATOM      8  C   UNL d   1      53.862  34.270  54.854  0.00  0.00     0.021 A 
ATOM      9  C   UNL d   1      54.412  32.730  54.634  0.00  0.00     0.021 A 
ATOM     10  C   UNL d   1      54.812  33.242  55.140  0.00  0.00     0.002 A 
ATOM     11  C   UNL d   1      54.536  34.012  55.250  0.00  0.00     0.002 A 
ENDROOT
BRANCH   4  12
ATOM     12  C   UNL d   1      51.711  33.746  53.040  0.00  0.00     0.020 A 
ATOM     13  C   UNL d   1      51.773  34.083  52.295  0.00  0.00     0.002 A 
ATOM     14  C   UNL d   1      51.104  34.335  51.893  0.00  0.00     0.000 A 
ATOM     15  C   UNL d   1      50.353  34.249  52.243  0.00  0.00     0.000 A 
ATOM     16  C   UNL d   1      50.292  33.906  53.000  0.00  0.00     0.000 A 
ATOM     17  C   UNL d   1      49.673  34.499  51.846  0.00  0.00     0.000 C 
ATOM     18  C   UNL d   1      50.971  33.657  53.394  0.00  0.00     0.002 A 
ENDBRANCH   4  12
TORSDOF 1
ENDMDL
MODEL 2
REMARK VINA RESULT:     -10.1      2.270      3.922
REMARK  1 active torsions:
REMARK  status: ('A' for Active; 'I' for Inactive)
REMARK    1  A    between atoms: C_7  and  C_4 
ROOT
ATOM      1  N   UNL d   1      53.800  31.141  54.083  0.00  0.00    -0.242 NA
ATOM      2  C   UNL d   1      53.167  32.103  53.224  0.00  0.00     0.156 A 
ATOM      3  N   UNL d   1      52.737  31.496  52.865  0.00  0.00    -0.231 NA
ATOM      4  C   UNL d   1      53.702  31.923  53.837  0.00  0.00     0.110 A 
ATOM      5  C   UNL d   1      53.366  30.539  53.718  0.00  0.00     0.099 A 
ATOM      6  C   UNL d   1      52.838  30.722  53.111  0.00  0.00     0.100 A 
ATOM      7 CL   UNL d   1      53.071  32.884  52.982  0.00  0.00    -0.060 Cl
ATOM      8  C   UNL d   1      53.460  29.750  53.960  0.00  0.00     0.021 A 
ATOM      9  C   UNL d   1      52.403  30.115  52.747  0.00  0.00     0.021 A 
ATOM     10  C   UNL d   1      52.499  29.334  52.989  0.00  0.00     0.002 A 
ATOM     11  C   UNL d   1      53.027  29.151  53.595  0.00  0.00     0.002 A 
ENDROOT
BRANCH   4  12
ATOM     12  C   UNL d   1      54.129  32.523  54.195  0.00  0.00     0.020 A 
ATOM     13  C   UNL d   1      54.774  32.853  53.815  0.00  0.00     0.002 A 
ATOM     14  C   UNL d   1      55.206  33.455  54.169  0.00  0.00     0.000 A 
ATOM     15  C   UNL d   1      54.987  33.733  54.923  0.00  0.00     0.000 A 
ATOM     16  C   UNL d   1      54.330  33.395  55.309  0.00  0.00     0.000 A 
ATOM     17  C   UNL d   1      55.415  34.338  55.288  0.00  0.00     0.000 C 
ATOM     18  C   UNL d   1      53.905  32.792  54.942  0.00  0.00     0.002 A 
ENDBRANCH   4  12
TORSDOF 1
ENDMDL
MODEL 3
REMARK VINA RESULT:      -9.9      0.994      1.349
REMARK  1 active torsions:
REMARK  status: ('A' for Active; 'I' for Inactive)
REMARK    1  A    between atoms: C_7  and  C_4 
ROOT
ATOM      1  N   UNL d   1      52.771  33.380  53.887  0.00  0.00    -0.242 NA
ATOM      2  C   UNL d   1      52.800  34.814  53.974  0.00  0.00     0.156 A 
ATOM      3  N   UNL d   1      53.455  34.768  54.475  0.00  0.00    -0.231 NA
ATOM      4  C   UNL d   1      52.456  34.115  53.678  0.00  0.00     0.110 A 
ATOM      5  C   UNL d   1      53.426  33.343  54.389  0.00  0.00     0.099 A 
ATOM      6  C   UNL d   1      53.763  34.038  54.680  0.00  0.00     0.100 A 
ATOM      7 CL   UNL d   1      52.484  35.545  53.763  0.00  0.00    -0.060 Cl
ATOM      8  C   UNL d   1      53.747  32.607  54.604  0.00  0.00     0.021 A 
ATOM      9  C   UNL d   1      54.421  33.997  55.185  0.00  0.00     0.021 A 
ATOM     10  C   UNL d   1      54.737  33.266  55.395  0.00  0.00     0.002 A 
ATOM     11  C   UNL d   1      54.400  32.572  55.105  0.00  0.00     0.002 A 
ENDROOT
BRANCH   4  12
ATOM     12  C   UNL d   1      51.808  34.158  53.180  0.00  0.00     0.020 A 
ATOM     13  C   UNL d   1      51.912  34.220  52.370  0.00  0.00     0.002 A 
ATOM     14  C   UNL d   1      51.265  34.263  51.867  0.00  0.00     0.000 A 
ATOM     15  C   UNL d   1      50.494  34.244  52.181  0.00  0.00     0.000 A 
ATOM     16  C   UNL d   1      50.390  34.181  53.005  0.00  0.00     0.000 A 
ATOM     17  C   UNL d   1      49.837  34.287  51.683  0.00  0.00     0.000 C 
ATOM     18  C   UNL d   1      51.047  34.138  53.500  0.00  0.00     0.002 A 
ENDBRANCH   4  12
TORSDOF 1
ENDMDL
MODEL 4
REMARK VINA RESULT:      -9.6      1.874      3.645
REMARK  1 active torsions:
REMARK  status: ('A' for Active; 'I' for Inactive)
REMARK    1  A    between atoms: C_7  and  C_4 
ROOT
ATOM      1  N   UNL d   1      52.245  32.424  53.306  0.00  0.00    -0.242 NA
ATOM      2  C   UNL d   1      53.662  32.628  53.428  0.00  0.00     0.156 A 
ATOM      3  N   UNL d   1      53.555  33.437  53.300  0.00  0.00    -0.231 NA
ATOM      4  C   UNL d   1      53.002  32.119  53.431  0.00  0.00     0.110 A 
ATOM      5  C   UNL d   1      52.146  33.235  53.179  0.00  0.00     0.099 A 
ATOM      6  C   UNL d   1      52.803  33.735  53.177  0.00  0.00     0.100 A 
ATOM      7 CL   UNL d   1      54.416  32.320  53.553  0.00  0.00    -0.060 Cl
ATOM      8  C   UNL d   1      51.388  33.549  53.053  0.00  0.00     0.021 A 
ATOM      9  C   UNL d   1      52.700  34.549  53.049  0.00  0.00     0.021 A 
ATOM     10  C   UNL d   1      51.947  34.858  52.924  0.00  0.00     0.002 A 
ATOM     11  C   UNL d   1      51.291  34.358  52.926  0.00  0.00     0.002 A 
ENDROOT
BRANCH   4  12
ATOM     12  C   UNL d   1      53.106  31.317  53.557  0.00  0.00     0.020 A 
ATOM     13  C   UNL d   1      53.310  31.039  54.300  0.00  0.00     0.002 A 
ATOM     14  C   UNL d   1      53.415  30.236  54.432  0.00  0.00     0.000 A 
ATOM     15  C   UNL d   1      53.313  29.696  53.806  0.00  0.00     0.000 A 
ATOM     16  C   UNL d   1      53.106  29.981  53.051  0.00  0.00     0.000 A 
ATOM     17  C   UNL d   1      53.417  28.886  53.928  0.00  0.00     0.000 C 
ATOM     18  C   UNL d   1      53.003  30.789  52.931  0.00  0.00     0.002 A 
ENDBRANCH   4  12
TORSDOF 1
ENDMDL
MODEL 5
REMARK VINA RESULT:      -9.5      1.090      1.655
REMARK  1 active torsions:
REMARK  status: ('A' for Active; 'I' for Inactive)
REMARK    1  A    between atoms: C_7  and  C_4 
ROOT
ATOM      1  N   UNL d   1      52.276  32.897  53.007  0.00  0.00    -0.242 NA
ATOM      2  C   UNL d   1      52.600  34.250  53.368  0.00  0.00     0.156 A 
ATOM      3  N   UNL d   1      53.318  33.991  53.682  0.00  0.00    -0.231 NA
ATOM      4  C   UNL d   1      52.076  33.698  53.028  0.00  0.00     0.110 A 
ATOM      5  C   UNL d   1      52.997  32.647  53.324  0.00  0.00     0.099 A 
ATOM      6  C   UNL d   1      53.513  33.196  53.659  0.00  0.00     0.100 A 
ATOM      7 CL   UNL d   1      52.397  35.048  53.387  0.00  0.00    -0.060 Cl
ATOM      8  C   UNL d   1      53.205  31.843  53.306  0.00  0.00     0.021 A 
ATOM      9  C   UNL d   1      54.237  32.942  53.977  0.00  0.00     0.021 A 
ATOM     10  C   UNL d   1      54.440  32.144  53.958  0.00  0.00     0.002 A 
ATOM     11  C   UNL d   1      53.924  31.594  53.622  0.00  0.00     0.002 A 
ENDROOT
BRANCH   4  12
ATOM     12  C   UNL d   1      51.363  33.952  52.715  0.00  0.00     0.020 A 
ATOM     13  C   UNL d   1      50.711  34.051  53.202  0.00  0.00     0.002 A 
ATOM     14  C   UNL d   1      49.994  34.305  52.894  0.00  0.00     0.000 A 
ATOM     15  C   UNL d   1      49.926  34.464  52.079  0.00  0.00     0.000 A 
ATOM     16  C   UNL d   1      50.590  34.362  51.586  0.00  0.00     0.000 A 
ATOM     17  C   UNL d   1      49.209  34.719  51.759  0.00  0.00     0.000 C 
ATOM     18  C   UNL d   1      51.304  34.107  51.907  0.00  0.00     0.002 A 
ENDBRANCH   4  12
TORSDOF 1
ENDMDL
MODEL 6
REMARK VINA RESULT:      -8.7      1.579      2.970
REMARK  1 active torsions:
REMARK  status: ('A' for Active; 'I' for Inactive)
REMARK    1  A    between atoms: C_7  and  C_4 
ROOT
ATOM      1  N   UNL d   1      53.218  33.097  54.227  0.00  0.00    -0.242 NA
ATOM      2  C   UNL d   1      52.547  33.200  52.960  0.00  0.00     0.156 A 
ATOM      3  N   UNL d   1      52.491  34.018  53.059  0.00  0.00    -0.231 NA
ATOM      4  C   UNL d   1      52.913  32.737  53.549  0.00  0.00     0.110 A 
ATOM      5  C   UNL d   1      53.158  33.917  54.318  0.00  0.00     0.099 A 
ATOM      6  C   UNL d   1      52.794  34.371  53.733  0.00  0.00     0.100 A 
ATOM      7 CL   UNL d   1      52.244  32.838  52.285  0.00  0.00    -0.060 Cl
ATOM      8  C   UNL d   1      53.462  34.286  54.997  0.00  0.00     0.021 A 
ATOM      9  C   UNL d   1      52.735  35.194  53.827  0.00  0.00     0.021 A 
ATOM     10  C   UNL d   1      53.037  35.556  54.502  0.00  0.00     0.002 A 
ATOM     11  C   UNL d   1      53.401  35.102  55.087  0.00  0.00     0.002 A 
ENDROOT
BRANCH   4  12
ATOM     12  C   UNL d   1      52.971  31.926  53.453  0.00  0.00     0.020 A 
ATOM     13  C   UNL d   1      52.294  31.470  53.387  0.00  0.00     0.002 A 
ATOM     14  C   UNL d   1      52.345  30.656  53.291  0.00  0.00     0.000 A 
ATOM     15  C   UNL d   1      53.092  30.290  53.261  0.00  0.00     0.000 A 
ATOM     16  C   UNL d   1      53.780  30.755  53.329  0.00  0.00     0.000 A 
ATOM     17  C   UNL d   1      53.155  29.472  53.165  0.00  0.00     0.000 C 
ATOM     18  C   UNL d   1      53.715  31.571  53.425  0.00  0.00     0.002 A 
ENDBRANCH   4  12
TORSDOF 1
ENDMDL
MODEL 7
REMARK VINA RESULT:      -8.4      0.771      3.714
REMARK  1 active torsions:
REMARK  status: ('A' for Active; 'I' for Inactive)
REMARK    1  A    between atoms: C_7  and  C_4 
ROOT
ATOM      1  N   UNL d   1      52.177  34.105  53.746  0.00  0.00    -0.242 NA
ATOM      2  C   UNL d   1      52.743  32.992  53.036  0.00  0.00     0.156 A 
ATOM      3  N   UNL d   1      52.086  32.982  52.534  0.00  0.00    -0.231 NA
ATOM      4  C   UNL d   1      52.787  33.557  53.646  0.00  0.00     0.110 A 
ATOM      5  C   UNL d   1      51.525  34.089  53.240  0.00  0.00     0.099 A 
ATOM      6  C   UNL d   1      51.484  33.527  52.637  0.00  0.00     0.100 A 
ATOM      7 CL   UNL d   1      53.353  32.447  52.938  0.00  0.00    -0.060 Cl
ATOM      8  C   UNL d   1      50.907  34.637  53.335  0.00  0.00     0.021 A 
ATOM      9  C   UNL d   1      50.827  33.513  52.130  0.00  0.00     0.021 A 
ATOM     10  C   UNL d   1      50.217  34.057  52.227  0.00  0.00     0.002 A 
ATOM     11  C   UNL d   1      50.257  34.619  52.829  0.00  0.00     0.002 A 
ENDROOT
BRANCH   4  12
ATOM     12  C   UNL d   1      53.436  33.569  54.145  0.00  0.00     0.020 A 
ATOM     13  C   UNL d   1      53.542  32.974  54.698  0.00  0.00     0.002 A 
ATOM     14  C   UNL d   1      54.191  32.981  55.201  0.00  0.00     0.000 A 
ATOM     15  C   UNL d   1      54.748  33.599  55.149  0.00  0.00     0.000 A 
ATOM     16  C   UNL d   1      54.638  34.203  54.586  0.00  0.00     0.000 A 
ATOM     17  C   UNL d   1      55.405  33.615  55.650  0.00  0.00     0.000 C 
ATOM     18  C   UNL d   1      53.983  34.184  54.087  0.00  0.00     0.002 A 
ENDBRANCH   4  12
TORSDOF 1
ENDMDL
