MODEL 1
REMARK VINA RESULT:      -8.3      0.000      0.000
REMARK  3 active torsions:
REMARK  status: ('A' for Active; 'I' for Inactive)
REMARK    1  A    between atoms: N_11  and  C_1 
REMARK    2  A    between atoms: N_5  and  C_4 
REMARK    3  A    between atoms: C_7  and  C_10 
REMARK       I    between atoms: C_10  and  N_12 
ROOT
ATOM      1  C   UNL d   1     -45.568  12.326  22.965  0.00  0.00     0.288 C 
ATOM      2  N   UNL d   1     -47.794  13.404  22.775  0.00  0.00    -0.281 N 
ATOM      3  N   UNL d   1     -46.314  12.690  22.899  0.00  0.00    -0.267 N 
ATOM      4  C   UNL d   1     -47.174  13.660  22.308  0.00  0.00     0.101 A 
ATOM      5  C   UNL d   1     -47.675  12.786  23.311  0.00  0.00     0.101 A 
ATOM      6  C   UNL d   1     -46.433  13.309  22.363  0.00  0.00     0.102 A 
ATOM      7  C   UNL d   1     -46.936  12.423  23.379  0.00  0.00     0.102 A 
ATOM      8  O   UNL d   1     -45.450  11.714  23.496  0.00  0.00    -0.264 OA
ENDROOT
BRANCH   2   9
ATOM      9  C   UNL d   1     -48.534  13.755  22.719  0.00  0.00     0.179 A 
ATOM     10  N   UNL d   1     -48.782  14.427  23.134  0.00  0.00    -0.222 NA
ATOM     11  C   UNL d   1     -49.556  14.595  22.919  0.00  0.00     0.089 A 
ATOM     12  C   UNL d   1     -50.073  15.181  23.147  0.00  0.00     0.018 A 
ATOM     13  C   UNL d   1     -49.792  14.026  22.369  0.00  0.00     0.050 A 
ATOM     14  C   UNL d   1     -50.829  15.212  22.834  0.00  0.00     0.002 A 
ATOM     15  C   UNL d   1     -49.836  15.749  23.697  0.00  0.00     0.002 C 
ATOM     16  C   UNL d   1     -51.064  14.644  22.285  0.00  0.00     0.001 A 
ATOM     17  C   UNL d   1     -50.539  14.050  22.055  0.00  0.00     0.007 A 
ATOM     18  C   UNL d   1     -50.775  13.485  21.507  0.00  0.00     0.001 C 
ATOM     19  S   UNL d   1     -49.171  13.510  22.243  0.00  0.00    -0.048 SA
ENDBRANCH   2   9
BRANCH   1  20
ATOM     20  C   UNL d   1     -44.951  12.594  22.486  0.00  0.00     0.158 A 
ATOM     21  O   UNL d   1     -44.288  12.154  22.247  0.00  0.00    -0.281 OA
ATOM     22  C   UNL d   1     -43.821  12.652  21.773  0.00  0.00     0.228 A 
ATOM     23  C   UNL d   1     -44.200  13.381  21.730  0.00  0.00     0.051 A 
ATOM     24  C   UNL d   1     -44.896  13.340  22.171  0.00  0.00     0.034 A 
BRANCH  22  25
ATOM     25  N   UNL d   1     -43.103  12.457  21.407  0.00  0.00    -0.089 N 
ATOM     26  O   UNL d   1     -43.018  12.563  20.577  0.00  0.00    -0.530 OA
ATOM     27  O   UNL d   1     -42.475  12.162  21.843  0.00  0.00    -0.530 OA
ENDBRANCH  22  25
ENDBRANCH   1  20
TORSDOF 3
ENDMDL
MODEL 2
REMARK VINA RESULT:      -8.2      1.228      2.056
REMARK  3 active torsions:
REMARK  status: ('A' for Active; 'I' for Inactive)
REMARK    1  A    between atoms: N_11  and  C_1 
REMARK    2  A    between atoms: N_5  and  C_4 
REMARK    3  A    between atoms: C_7  and  C_10 
REMARK       I    between atoms: C_10  and  N_12 
ROOT
ATOM      1  C   UNL d   1     -45.352  12.574  22.714  0.00  0.00     0.288 C 
ATOM      2  N   UNL d   1     -47.669  13.456  22.629  0.00  0.00    -0.281 N 
ATOM      3  N   UNL d   1     -46.131  12.868  22.687  0.00  0.00    -0.267 N 
ATOM      4  C   UNL d   1     -47.523  12.718  22.948  0.00  0.00     0.101 A 
ATOM      5  C   UNL d   1     -47.041  13.906  22.335  0.00  0.00     0.101 A 
ATOM      6  C   UNL d   1     -46.759  12.417  22.981  0.00  0.00     0.102 A 
ATOM      7  C   UNL d   1     -46.267  13.619  22.360  0.00  0.00     0.102 A 
ATOM      8  O   UNL d   1     -44.730  13.021  22.423  0.00  0.00    -0.264 OA
ENDROOT
BRANCH   2   9
ATOM      9  C   UNL d   1     -48.432  13.756  22.596  0.00  0.00     0.179 A 
ATOM     10  N   UNL d   1     -49.085  13.378  22.254  0.00  0.00    -0.222 NA
ATOM     11  C   UNL d   1     -49.741  13.865  22.340  0.00  0.00     0.089 A 
ATOM     12  C   UNL d   1     -50.518  13.779  22.113  0.00  0.00     0.018 A 
ATOM     13  C   UNL d   1     -49.497  14.547  22.736  0.00  0.00     0.050 A 
ATOM     14  C   UNL d   1     -51.064  14.368  22.275  0.00  0.00     0.002 A 
ATOM     15  C   UNL d   1     -50.761  13.097  21.717  0.00  0.00     0.002 C 
ATOM     16  C   UNL d   1     -50.821  15.049  22.671  0.00  0.00     0.001 A 
ATOM     17  C   UNL d   1     -50.032  15.134  22.900  0.00  0.00     0.007 A 
ATOM     18  C   UNL d   1     -49.791  15.813  23.295  0.00  0.00     0.001 C 
ATOM     19  S   UNL d   1     -48.698  14.485  22.895  0.00  0.00    -0.048 SA
ENDBRANCH   2   9
BRANCH   1  20
ATOM     20  C   UNL d   1     -45.219  11.827  23.040  0.00  0.00     0.158 A 
ATOM     21  O   UNL d   1     -44.490  11.431  23.080  0.00  0.00    -0.281 OA
ATOM     22  C   UNL d   1     -44.628  10.701  23.452  0.00  0.00     0.228 A 
ATOM     23  C   UNL d   1     -45.430  10.660  23.630  0.00  0.00     0.051 A 
ATOM     24  C   UNL d   1     -45.790  11.357  23.374  0.00  0.00     0.034 A 
BRANCH  22  25
ATOM     25  N   UNL d   1     -44.064  10.114  23.615  0.00  0.00    -0.089 N 
ATOM     26  O   UNL d   1     -43.255  10.329  23.698  0.00  0.00    -0.530 OA
ATOM     27  O   UNL d   1     -44.285   9.330  23.698  0.00  0.00    -0.530 OA
ENDBRANCH  22  25
ENDBRANCH   1  20
TORSDOF 3
ENDMDL
MODEL 3
REMARK VINA RESULT:      -7.5      2.606      5.647
REMARK  3 active torsions:
REMARK  status: ('A' for Active; 'I' for Inactive)
REMARK    1  A    between atoms: N_11  and  C_1 
REMARK    2  A    between atoms: N_5  and  C_4 
REMARK    3  A    between atoms: C_7  and  C_10 
REMARK       I    between atoms: C_10  and  N_12 
ROOT
ATOM      1  C   UNL d   1     -48.401  14.751  22.699  0.00  0.00     0.288 C 
ATOM      2  N   UNL d   1     -46.396  13.291  22.663  0.00  0.00    -0.281 N 
ATOM      3  N   UNL d   1     -47.730  14.259  22.687  0.00  0.00    -0.267 N 
ATOM      4  C   UNL d   1     -47.144  12.961  22.651  0.00  0.00     0.101 A 
ATOM      5  C   UNL d   1     -46.312  14.114  22.688  0.00  0.00     0.101 A 
ATOM      6  C   UNL d   1     -47.814  13.436  22.662  0.00  0.00     0.102 A 
ATOM      7  C   UNL d   1     -46.976  14.606  22.700  0.00  0.00     0.102 A 
ATOM      8  O   UNL d   1     -48.318  15.566  22.723  0.00  0.00    -0.264 OA
ENDROOT
BRANCH   2   9
ATOM      9  C   UNL d   1     -45.727  12.816  22.652  0.00  0.00     0.179 A 
ATOM     10  N   UNL d   1     -45.627  12.113  23.077  0.00  0.00    -0.222 NA
ATOM     11  C   UNL d   1     -44.882  11.812  22.911  0.00  0.00     0.089 A 
ATOM     12  C   UNL d   1     -44.492  11.145  23.167  0.00  0.00     0.018 A 
ATOM     13  C   UNL d   1     -44.516  12.328  22.380  0.00  0.00     0.050 A 
ATOM     14  C   UNL d   1     -43.734  10.980  22.902  0.00  0.00     0.002 A 
ATOM     15  C   UNL d   1     -44.858  10.630  23.697  0.00  0.00     0.002 C 
ATOM     16  C   UNL d   1     -43.369  11.496  22.372  0.00  0.00     0.001 A 
ATOM     17  C   UNL d   1     -43.767  12.171  22.113  0.00  0.00     0.007 A 
ATOM     18  C   UNL d   1     -43.401  12.684  21.585  0.00  0.00     0.001 C 
ATOM     19  S   UNL d   1     -45.028  12.944  22.219  0.00  0.00    -0.048 SA
ENDBRANCH   2   9
BRANCH   1  20
ATOM     20  C   UNL d   1     -49.150  14.404  22.686  0.00  0.00     0.158 A 
ATOM     21  O   UNL d   1     -49.485  13.982  22.053  0.00  0.00    -0.281 OA
ATOM     22  C   UNL d   1     -50.243  13.740  22.295  0.00  0.00     0.228 A 
ATOM     23  C   UNL d   1     -50.358  14.013  23.062  0.00  0.00     0.051 A 
ATOM     24  C   UNL d   1     -49.682  14.422  23.299  0.00  0.00     0.034 A 
BRANCH  22  25
ATOM     25  N   UNL d   1     -50.788  13.301  21.848  0.00  0.00    -0.089 N 
ATOM     26  O   UNL d   1     -51.064  12.563  22.141  0.00  0.00    -0.530 OA
ATOM     27  O   UNL d   1     -51.060  13.578  21.126  0.00  0.00    -0.530 OA
ENDBRANCH  22  25
ENDBRANCH   1  20
TORSDOF 3
ENDMDL
MODEL 4
REMARK VINA RESULT:      -7.4      2.951      5.670
REMARK  3 active torsions:
REMARK  status: ('A' for Active; 'I' for Inactive)
REMARK    1  A    between atoms: N_11  and  C_1 
REMARK    2  A    between atoms: N_5  and  C_4 
REMARK    3  A    between atoms: C_7  and  C_10 
REMARK       I    between atoms: C_10  and  N_12 
ROOT
ATOM      1  C   UNL d   1     -49.870  12.285  23.325  0.00  0.00     0.288 C 
ATOM      2  N   UNL d   1     -47.415  12.035  23.076  0.00  0.00    -0.281 N 
ATOM      3  N   UNL d   1     -49.046  12.204  23.240  0.00  0.00    -0.267 N 
ATOM      4  C   UNL d   1     -47.790  12.701  22.786  0.00  0.00     0.101 A 
ATOM      5  C   UNL d   1     -47.858  11.446  23.453  0.00  0.00     0.101 A 
ATOM      6  C   UNL d   1     -48.603  12.793  22.864  0.00  0.00     0.102 A 
ATOM      7  C   UNL d   1     -48.676  11.523  23.538  0.00  0.00     0.102 A 
ATOM      8  O   UNL d   1     -50.309  11.703  23.697  0.00  0.00    -0.264 OA
ENDROOT
BRANCH   2   9
ATOM      9  C   UNL d   1     -46.603  11.944  22.999  0.00  0.00     0.179 A 
ATOM     10  N   UNL d   1     -46.156  11.320  23.309  0.00  0.00    -0.222 NA
ATOM     11  C   UNL d   1     -45.369  11.438  23.107  0.00  0.00     0.089 A 
ATOM     12  C   UNL d   1     -44.694  11.010  23.260  0.00  0.00     0.018 A 
ATOM     13  C   UNL d   1     -45.326  12.137  22.668  0.00  0.00     0.050 A 
ATOM     14  C   UNL d   1     -43.968  11.266  22.982  0.00  0.00     0.002 A 
ATOM     15  C   UNL d   1     -44.739  10.312  23.698  0.00  0.00     0.002 C 
ATOM     16  C   UNL d   1     -43.924  11.964  22.544  0.00  0.00     0.001 A 
ATOM     17  C   UNL d   1     -44.610  12.397  22.390  0.00  0.00     0.007 A 
ATOM     18  C   UNL d   1     -44.565  13.092  21.954  0.00  0.00     0.001 C 
ATOM     19  S   UNL d   1     -46.077  12.450  22.599  0.00  0.00    -0.048 SA
ENDBRANCH   2   9
BRANCH   1  20
ATOM     20  C   UNL d   1     -50.237  12.963  23.027  0.00  0.00     0.158 A 
ATOM     21  O   UNL d   1     -50.150  13.737  23.318  0.00  0.00    -0.281 OA
ATOM     22  C   UNL d   1     -50.621  14.230  22.844  0.00  0.00     0.228 A 
ATOM     23  C   UNL d   1     -50.985  13.758  22.278  0.00  0.00     0.051 A 
ATOM     24  C   UNL d   1     -50.745  12.978  22.394  0.00  0.00     0.034 A 
BRANCH  22  25
ATOM     25  N   UNL d   1     -50.713  15.051  22.923  0.00  0.00    -0.089 N 
ATOM     26  O   UNL d   1     -50.927  15.511  22.252  0.00  0.00    -0.530 OA
ATOM     27  O   UNL d   1     -50.598  15.420  23.646  0.00  0.00    -0.530 OA
ENDBRANCH  22  25
ENDBRANCH   1  20
TORSDOF 3
ENDMDL
MODEL 5
REMARK VINA RESULT:      -6.8      1.299      2.188
REMARK  3 active torsions:
REMARK  status: ('A' for Active; 'I' for Inactive)
REMARK    1  A    between atoms: N_11  and  C_1 
REMARK    2  A    between atoms: N_5  and  C_4 
REMARK    3  A    between atoms: C_7  and  C_10 
REMARK       I    between atoms: C_10  and  N_12 
ROOT
ATOM      1  C   UNL d   1     -43.743  12.226  22.149  0.00  0.00     0.288 C 
ATOM      2  N   UNL d   1     -46.076  12.969  22.544  0.00  0.00    -0.281 N 
ATOM      3  N   UNL d   1     -44.526  12.478  22.280  0.00  0.00    -0.267 N 
ATOM      4  C   UNL d   1     -45.583  13.406  22.060  0.00  0.00     0.101 A 
ATOM      5  C   UNL d   1     -45.793  12.279  22.901  0.00  0.00     0.101 A 
ATOM      6  C   UNL d   1     -44.809  13.168  21.923  0.00  0.00     0.102 A 
ATOM      7  C   UNL d   1     -45.017  12.026  22.773  0.00  0.00     0.102 A 
ATOM      8  O   UNL d   1     -43.462  11.542  22.502  0.00  0.00    -0.264 OA
ENDROOT
BRANCH   2   9
ATOM      9  C   UNL d   1     -46.850  13.208  22.680  0.00  0.00     0.179 A 
ATOM     10  N   UNL d   1     -47.473  12.714  22.910  0.00  0.00    -0.222 NA
ATOM     11  C   UNL d   1     -48.152  13.171  22.986  0.00  0.00     0.089 A 
ATOM     12  C   UNL d   1     -48.916  12.984  23.195  0.00  0.00     0.018 A 
ATOM     13  C   UNL d   1     -47.950  13.950  22.804  0.00  0.00     0.050 A 
ATOM     14  C   UNL d   1     -49.491  13.566  23.225  0.00  0.00     0.002 A 
ATOM     15  C   UNL d   1     -49.116  12.204  23.377  0.00  0.00     0.002 C 
ATOM     16  C   UNL d   1     -49.291  14.345  23.043  0.00  0.00     0.001 A 
ATOM     17  C   UNL d   1     -48.515  14.532  22.832  0.00  0.00     0.007 A 
ATOM     18  C   UNL d   1     -48.317  15.308  22.650  0.00  0.00     0.001 C 
ATOM     19  S   UNL d   1     -47.156  13.979  22.616  0.00  0.00    -0.048 SA
ENDBRANCH   2   9
BRANCH   1  20
ATOM     20  C   UNL d   1     -43.256  12.677  21.658  0.00  0.00     0.158 A 
ATOM     21  O   UNL d   1     -42.669  13.212  21.904  0.00  0.00    -0.281 OA
ATOM     22  C   UNL d   1     -42.327  13.533  21.218  0.00  0.00     0.228 A 
ATOM     23  C   UNL d   1     -42.705  13.195  20.570  0.00  0.00     0.051 A 
ATOM     24  C   UNL d   1     -43.277  12.668  20.846  0.00  0.00     0.034 A 
BRANCH  22  25
ATOM     25  N   UNL d   1     -41.716  14.093  21.185  0.00  0.00    -0.089 N 
ATOM     26  O   UNL d   1     -41.904  14.908  21.097  0.00  0.00    -0.530 OA
ATOM     27  O   UNL d   1     -40.931  13.863  21.238  0.00  0.00    -0.530 OA
ENDBRANCH  22  25
ENDBRANCH   1  20
TORSDOF 3
ENDMDL
MODEL 6
REMARK VINA RESULT:      -6.5      7.915      9.032
REMARK  3 active torsions:
REMARK  status: ('A' for Active; 'I' for Inactive)
REMARK    1  A    between atoms: N_11  and  C_1 
REMARK    2  A    between atoms: N_5  and  C_4 
REMARK    3  A    between atoms: C_7  and  C_10 
REMARK       I    between atoms: C_10  and  N_12 
ROOT
ATOM      1  C   UNL d   1     -39.998  15.341  21.709  0.00  0.00     0.288 C 
ATOM      2  N   UNL d   1     -39.996  15.558  19.238  0.00  0.00    -0.281 N 
ATOM      3  N   UNL d   1     -39.995  15.412  20.879  0.00  0.00    -0.267 N 
ATOM      4  C   UNL d   1     -39.411  15.126  19.612  0.00  0.00     0.101 A 
ATOM      5  C   UNL d   1     -40.587  15.922  19.688  0.00  0.00     0.101 A 
ATOM      6  C   UNL d   1     -39.404  15.049  20.430  0.00  0.00     0.102 A 
ATOM      7  C   UNL d   1     -40.594  15.854  20.511  0.00  0.00     0.102 A 
ATOM      8  O   UNL d   1     -40.584  15.701  22.154  0.00  0.00    -0.264 OA
ENDROOT
BRANCH   2   9
ATOM      9  C   UNL d   1     -40.003  15.635  18.421  0.00  0.00     0.179 A 
ATOM     10  N   UNL d   1     -40.679  15.644  17.943  0.00  0.00    -0.222 NA
ATOM     11  C   UNL d   1     -40.443  15.731  17.161  0.00  0.00     0.089 A 
ATOM     12  C   UNL d   1     -40.863  15.774  16.465  0.00  0.00     0.018 A 
ATOM     13  C   UNL d   1     -39.619  15.777  17.152  0.00  0.00     0.050 A 
ATOM     14  C   UNL d   1     -40.473  15.863  15.751  0.00  0.00     0.002 A 
ATOM     15  C   UNL d   1     -41.687  15.729  16.476  0.00  0.00     0.002 C 
ATOM     16  C   UNL d   1     -39.649  15.909  15.741  0.00  0.00     0.001 A 
ATOM     17  C   UNL d   1     -39.226  15.865  16.448  0.00  0.00     0.007 A 
ATOM     18  C   UNL d   1     -38.406  15.910  16.436  0.00  0.00     0.001 C 
ATOM     19  S   UNL d   1     -39.345  15.719  17.919  0.00  0.00    -0.048 SA
ENDBRANCH   2   9
BRANCH   1  20
ATOM     20  C   UNL d   1     -39.401  14.902  22.074  0.00  0.00     0.158 A 
ATOM     21  O   UNL d   1     -39.420  14.087  22.234  0.00  0.00    -0.281 OA
ATOM     22  C   UNL d   1     -38.701  13.894  22.603  0.00  0.00     0.228 A 
ATOM     23  C   UNL d   1     -38.259  14.585  22.663  0.00  0.00     0.051 A 
ATOM     24  C   UNL d   1     -38.695  15.204  22.335  0.00  0.00     0.034 A 
BRANCH  22  25
ATOM     25  N   UNL d   1     -38.465  13.143  22.866  0.00  0.00    -0.089 N 
ATOM     26  O   UNL d   1     -37.974  12.668  22.377  0.00  0.00    -0.530 OA
ATOM     27  O   UNL d   1     -38.705  12.859  23.596  0.00  0.00    -0.530 OA
ENDBRANCH  22  25
ENDBRANCH   1  20
TORSDOF 3
ENDMDL
