MODEL 1
REMARK VINA RESULT:       5.3      0.000      0.000
REMARK  1 active torsions:
REMARK  status: ('A' for Active; 'I' for Inactive)
REMARK    1  A    between atoms: C_7  and  C_2 
ROOT
ATOM      1  C   UNL d   1      46.524 -19.040  42.104  0.00  0.00     0.070 A 
ATOM      2  C   UNL d   1      46.484 -18.510  41.500  0.00  0.00     0.170 A 
ATOM      3  C   UNL d   1      46.505 -18.639  42.828  0.00  0.00     0.108 A 
ATOM      4  N   UNL d   1      46.438 -17.738  41.837  0.00  0.00    -0.142 NA
ATOM      5  N   UNL d   1      46.452 -17.833  42.660  0.00  0.00    -0.148 NA
ATOM      6  C   UNL d   1      46.540 -19.072  43.533  0.00  0.00     0.042 A 
ATOM      7  C   UNL d   1      46.576 -19.863  42.085  0.00  0.00     0.126 A 
ATOM      8  O   UNL d   1      46.611 -20.296  42.790  0.00  0.00    -0.305 OA
ATOM      9  C   UNL d   1      46.592 -19.895  43.514  0.00  0.00     0.102 A 
ATOM     10  C   UNL d   1      46.521 -18.671  44.258  0.00  0.00     0.004 A 
ATOM     11  C   UNL d   1      46.627 -20.328  44.219  0.00  0.00     0.025 A 
ATOM     12  C   UNL d   1      46.556 -19.104  44.952  0.00  0.00     0.000 A 
ATOM     13  C   UNL d   1      46.608 -19.927  44.933  0.00  0.00     0.002 A 
ENDROOT
BRANCH   2  14
ATOM     14  C   UNL d   1      46.490 -18.723  40.714  0.00  0.00     0.231 C 
ATOM     15  O   UNL d   1      46.646 -19.495  40.499  0.00  0.00    -0.643 OA
ATOM     16  O   UNL d   1      46.338 -18.157  40.131  0.00  0.00    -0.643 OA
ENDBRANCH   2  14
TORSDOF 1
ENDMDL
