MODEL 1
REMARK VINA RESULT:      -2.8      0.000      0.000
REMARK  2 active torsions:
REMARK  status: ('A' for Active; 'I' for Inactive)
REMARK    1  A    between atoms: N_4  and  C_1 
REMARK    2  A    between atoms: C_6  and  C_2 
ROOT
ATOM      1  C   UNL d   1     -41.550-123.049 -51.126  0.00  0.00     0.149 A 
ATOM      2  C   UNL d   1     -41.410-122.236 -51.238  0.00  0.00     0.056 A 
ATOM      3  N   UNL d   1     -41.543-123.570 -51.757  0.00  0.00    -0.228 NA
ATOM      4  C   UNL d   1     -41.264-121.957 -51.993  0.00  0.00     0.006 A 
ATOM      5  C   UNL d   1     -41.398-123.294 -52.513  0.00  0.00     0.083 A 
ATOM      6  C   UNL d   1     -41.257-122.487 -52.636  0.00  0.00     0.019 A 
ATOM      7  C   UNL d   1     -41.122-121.150 -52.125  0.00  0.00     0.000 C 
ATOM      8  C   UNL d   1     -41.390-123.816 -53.153  0.00  0.00     0.021 C 
ENDROOT
BRANCH   1   9
ATOM      9  N   UNL d   1     -41.697-123.331 -50.363  0.00  0.00    -0.289 N 
ATOM     10  C   UNL d   1     -42.377-123.380 -50.124  0.00  0.00     0.082 A 
ATOM     11  C   UNL d   1     -42.497-123.626 -49.460  0.00  0.00     0.021 A 
ATOM     12  C   UNL d   1     -41.276-123.766 -49.290  0.00  0.00     0.021 A 
ATOM     13  C   UNL d   1     -41.157-123.522 -49.950  0.00  0.00     0.082 A 
ENDBRANCH   1   9
BRANCH   2  14
ATOM     14  C   UNL d   1     -41.418-121.723 -50.602  0.00  0.00     0.125 C 
ATOM     15  N   UNL d   1     -41.198-120.939 -50.704  0.00  0.00    -0.146 N 
ENDBRANCH   2  14
TORSDOF 2
ENDMDL
MODEL 2
REMARK VINA RESULT:      -2.2      1.327      3.510
REMARK  2 active torsions:
REMARK  status: ('A' for Active; 'I' for Inactive)
REMARK    1  A    between atoms: N_4  and  C_1 
REMARK    2  A    between atoms: C_6  and  C_2 
ROOT
ATOM      1  C   UNL d   1     -41.885-123.036 -49.304  0.00  0.00     0.149 A 
ATOM      2  C   UNL d   1     -42.633-123.369 -49.157  0.00  0.00     0.056 A 
ATOM      3  N   UNL d   1     -41.387-122.826 -48.690  0.00  0.00    -0.228 NA
ATOM      4  C   UNL d   1     -42.872-123.487 -48.384  0.00  0.00     0.006 A 
ATOM      5  C   UNL d   1     -41.622-122.943 -47.915  0.00  0.00     0.083 A 
ATOM      6  C   UNL d   1     -42.366-123.274 -47.757  0.00  0.00     0.019 A 
ATOM      7  C   UNL d   1     -43.614-123.817 -48.217  0.00  0.00     0.000 C 
ATOM      8  C   UNL d   1     -41.124-122.734 -47.292  0.00  0.00     0.021 C 
ENDROOT
BRANCH   1   9
ATOM      9  N   UNL d   1     -41.644-122.916 -50.086  0.00  0.00    -0.289 N 
ATOM     10  C   UNL d   1     -41.723-122.266 -50.391  0.00  0.00     0.082 A 
ATOM     11  C   UNL d   1     -41.511-122.170 -51.070  0.00  0.00     0.021 A 
ATOM     12  C   UNL d   1     -41.151-123.356 -51.127  0.00  0.00     0.021 A 
ATOM     13  C   UNL d   1     -41.361-123.451 -50.451  0.00  0.00     0.082 A 
ENDBRANCH   1   9
BRANCH   2  14
ATOM     14  C   UNL d   1     -43.124-123.575 -49.777  0.00  0.00     0.125 C 
ATOM     15  N   UNL d   1     -43.903-123.789 -49.631  0.00  0.00    -0.146 N 
ENDBRANCH   2  14
TORSDOF 2
ENDMDL
MODEL 3
REMARK VINA RESULT:      -1.4      1.057      2.738
REMARK  2 active torsions:
REMARK  status: ('A' for Active; 'I' for Inactive)
REMARK    1  A    between atoms: N_4  and  C_1 
REMARK    2  A    between atoms: C_6  and  C_2 
ROOT
ATOM      1  C   UNL d   1     -41.629-122.872 -52.551  0.00  0.00     0.149 A 
ATOM      2  C   UNL d   1     -41.383-122.113 -52.315  0.00  0.00     0.056 A 
ATOM      3  N   UNL d   1     -41.857-123.433 -52.002  0.00  0.00    -0.228 NA
ATOM      4  C   UNL d   1     -41.371-121.928 -51.518  0.00  0.00     0.006 A 
ATOM      5  C   UNL d   1     -41.847-123.252 -51.204  0.00  0.00     0.083 A 
ATOM      6  C   UNL d   1     -41.604-122.499 -50.957  0.00  0.00     0.019 A 
ATOM      7  C   UNL d   1     -41.129-121.177 -51.262  0.00  0.00     0.000 C 
ATOM      8  C   UNL d   1     -42.077-123.814 -50.645  0.00  0.00     0.021 C 
ENDROOT
BRANCH   1   9
ATOM      9  N   UNL d   1     -41.641-123.059 -53.356  0.00  0.00    -0.289 N 
ATOM     10  C   UNL d   1     -42.180-122.819 -53.772  0.00  0.00     0.082 A 
ATOM     11  C   UNL d   1     -42.183-122.986 -54.471  0.00  0.00     0.021 A 
ATOM     12  C   UNL d   1     -41.126-123.618 -54.327  0.00  0.00     0.021 A 
ATOM     13  C   UNL d   1     -41.123-123.453 -53.632  0.00  0.00     0.082 A 
ENDBRANCH   1   9
BRANCH   2  14
ATOM     14  C   UNL d   1     -41.156-121.559 -52.870  0.00  0.00     0.125 C 
ATOM     15  N   UNL d   1     -41.123-120.764 -52.669  0.00  0.00    -0.146 N 
ENDBRANCH   2  14
TORSDOF 2
ENDMDL
MODEL 4
REMARK VINA RESULT:      -1.3      1.733      2.866
REMARK  2 active torsions:
REMARK  status: ('A' for Active; 'I' for Inactive)
REMARK    1  A    between atoms: N_4  and  C_1 
REMARK    2  A    between atoms: C_6  and  C_2 
ROOT
ATOM      1  C   UNL d   1     -41.845-121.991 -53.164  0.00  0.00     0.149 A 
ATOM      2  C   UNL d   1     -41.487-122.734 -53.275  0.00  0.00     0.056 A 
ATOM      3  N   UNL d   1     -42.212-121.601 -53.782  0.00  0.00    -0.228 NA
ATOM      4  C   UNL d   1     -41.505-123.077 -54.018  0.00  0.00     0.006 A 
ATOM      5  C   UNL d   1     -42.232-121.941 -54.526  0.00  0.00     0.083 A 
ATOM      6  C   UNL d   1     -41.879-122.681 -54.648  0.00  0.00     0.019 A 
ATOM      7  C   UNL d   1     -41.155-123.817 -54.149  0.00  0.00     0.000 C 
ATOM      8  C   UNL d   1     -42.601-121.552 -55.153  0.00  0.00     0.021 C 
ENDROOT
BRANCH   1   9
ATOM      9  N   UNL d   1     -41.826-121.643 -52.414  0.00  0.00    -0.289 N 
ATOM     10  C   UNL d   1     -41.325-121.146 -52.260  0.00  0.00     0.082 A 
ATOM     11  C   UNL d   1     -41.316-120.850 -51.607  0.00  0.00     0.021 A 
ATOM     12  C   UNL d   1     -42.293-121.540 -51.278  0.00  0.00     0.021 A 
ATOM     13  C   UNL d   1     -42.302-121.835 -51.928  0.00  0.00     0.082 A 
ENDBRANCH   1   9
BRANCH   2  14
ATOM     14  C   UNL d   1     -41.123-123.116 -52.652  0.00  0.00     0.125 C 
ATOM     15  N   UNL d   1     -41.436-123.816 -52.359  0.00  0.00    -0.146 N 
ENDBRANCH   2  14
TORSDOF 2
ENDMDL
