MODEL 1
REMARK VINA RESULT:      -8.1      0.000      0.000
REMARK  1 active torsions:
REMARK  status: ('A' for Active; 'I' for Inactive)
REMARK       I    between atoms: N_2  and  C_1 
REMARK       I    between atoms: N_4  and  C_1 
REMARK    1  A    between atoms: C_5  and  N_3 
ROOT
ATOM      1  C   UNL d   1     -46.579  12.203  23.199  0.00  0.00     0.340 C 
ATOM      2  N   UNL d   1     -47.263  12.680  23.106  0.00  0.00    -0.254 N 
ATOM      3  N   UNL d   1     -48.600  13.613  22.924  0.00  0.00    -0.301 N 
ATOM      4  N   UNL d   1     -45.863  12.417  22.839  0.00  0.00    -0.253 N 
ATOM      5  O   UNL d   1     -46.624  11.509  23.660  0.00  0.00    -0.245 OA
ATOM      6  C   UNL d   1     -47.221  13.364  22.654  0.00  0.00     0.104 A 
ATOM      7  C   UNL d   1     -47.971  12.449  23.476  0.00  0.00     0.104 A 
ATOM      8  C   UNL d   1     -48.642  12.917  23.385  0.00  0.00     0.100 A 
ATOM      9  C   UNL d   1     -47.892  13.832  22.562  0.00  0.00     0.100 A 
ATOM     10  O   UNL d   1     -44.442  12.839  22.125  0.00  0.00    -0.300 OA
ATOM     11  C   UNL d   1     -45.195  11.939  22.938  0.00  0.00     0.111 A 
ATOM     12  C   UNL d   1     -45.825  13.103  22.386  0.00  0.00     0.111 A 
ATOM     13  C   UNL d   1     -45.110  13.317  22.025  0.00  0.00     0.142 A 
ATOM     14  C   UNL d   1     -44.486  12.153  22.579  0.00  0.00     0.142 A 
ENDROOT
BRANCH   3  15
ATOM     15  C   UNL d   1     -49.270  14.088  22.827  0.00  0.00     0.064 A 
ATOM     16  C   UNL d   1     -49.365  14.745  23.310  0.00  0.00     0.018 A 
ATOM     17  C   UNL d   1     -50.034  15.223  23.216  0.00  0.00     0.001 A 
ATOM     18  C   UNL d   1     -50.135  15.885  23.698  0.00  0.00     0.000 C 
ATOM     19  C   UNL d   1     -50.602  15.035  22.638  0.00  0.00     0.000 A 
ATOM     20  C   UNL d   1     -50.501  14.373  22.156  0.00  0.00     0.001 A 
ATOM     21  C   UNL d   1     -49.831  13.898  22.253  0.00  0.00     0.018 A 
ATOM     22  C   UNL d   1     -51.064  14.186  21.581  0.00  0.00     0.000 C 
ENDBRANCH   3  15
TORSDOF 1
ENDMDL
MODEL 2
REMARK VINA RESULT:      -7.6      1.776      4.667
REMARK  1 active torsions:
REMARK  status: ('A' for Active; 'I' for Inactive)
REMARK       I    between atoms: N_2  and  C_1 
REMARK       I    between atoms: N_4  and  C_1 
REMARK    1  A    between atoms: C_5  and  N_3 
ROOT
ATOM      1  C   UNL d   1     -49.788  13.865  22.138  0.00  0.00     0.340 C 
ATOM      2  N   UNL d   1     -49.014  13.560  22.251  0.00  0.00    -0.254 N 
ATOM      3  N   UNL d   1     -47.501  12.966  22.471  0.00  0.00    -0.301 N 
ATOM      4  N   UNL d   1     -50.045  14.530  22.561  0.00  0.00    -0.253 N 
ATOM      5  O   UNL d   1     -50.300  13.491  21.595  0.00  0.00    -0.245 OA
ATOM      6  C   UNL d   1     -48.509  13.926  22.784  0.00  0.00     0.104 A 
ATOM      7  C   UNL d   1     -48.775  12.892  21.817  0.00  0.00     0.104 A 
ATOM      8  C   UNL d   1     -48.016  12.593  21.927  0.00  0.00     0.100 A 
ATOM      9  C   UNL d   1     -47.750  13.628  22.895  0.00  0.00     0.100 A 
ATOM     10  O   UNL d   1     -50.558  15.850  23.398  0.00  0.00    -0.300 OA
ATOM     11  C   UNL d   1     -50.811  14.821  22.441  0.00  0.00     0.111 A 
ATOM     12  C   UNL d   1     -49.536  14.895  23.095  0.00  0.00     0.111 A 
ATOM     13  C   UNL d   1     -49.793  15.560  23.518  0.00  0.00     0.142 A 
ATOM     14  C   UNL d   1     -51.064  15.482  22.862  0.00  0.00     0.142 A 
ENDROOT
BRANCH   3  15
ATOM     15  C   UNL d   1     -46.737  12.671  22.587  0.00  0.00     0.064 A 
ATOM     16  C   UNL d   1     -46.108  13.033  22.202  0.00  0.00     0.018 A 
ATOM     17  C   UNL d   1     -45.343  12.742  22.316  0.00  0.00     0.001 A 
ATOM     18  C   UNL d   1     -44.707  13.101  21.933  0.00  0.00     0.000 C 
ATOM     19  C   UNL d   1     -45.216  12.088  22.817  0.00  0.00     0.000 A 
ATOM     20  C   UNL d   1     -45.852  11.730  23.200  0.00  0.00     0.001 A 
ATOM     21  C   UNL d   1     -46.615  12.024  23.083  0.00  0.00     0.018 A 
ATOM     22  C   UNL d   1     -45.727  11.081  23.697  0.00  0.00     0.000 C 
ENDBRANCH   3  15
TORSDOF 1
ENDMDL
MODEL 3
REMARK VINA RESULT:      -7.2      0.498      1.125
REMARK  1 active torsions:
REMARK  status: ('A' for Active; 'I' for Inactive)
REMARK       I    between atoms: N_2  and  C_1 
REMARK       I    between atoms: N_4  and  C_1 
REMARK    1  A    between atoms: C_5  and  N_3 
ROOT
ATOM      1  C   UNL d   1     -46.144  12.141  23.145  0.00  0.00     0.340 C 
ATOM      2  N   UNL d   1     -46.866  12.568  23.119  0.00  0.00    -0.254 N 
ATOM      3  N   UNL d   1     -48.277  13.403  23.067  0.00  0.00    -0.301 N 
ATOM      4  N   UNL d   1     -45.478  12.412  22.731  0.00  0.00    -0.253 N 
ATOM      5  O   UNL d   1     -46.100  11.439  23.592  0.00  0.00    -0.245 OA
ATOM      6  C   UNL d   1     -46.911  13.260  22.679  0.00  0.00     0.104 A 
ATOM      7  C   UNL d   1     -47.522  12.280  23.541  0.00  0.00     0.104 A 
ATOM      8  C   UNL d   1     -48.230  12.699  23.515  0.00  0.00     0.100 A 
ATOM      9  C   UNL d   1     -47.619  13.679  22.654  0.00  0.00     0.100 A 
ATOM     10  O   UNL d   1     -44.156  12.948  21.912  0.00  0.00    -0.300 OA
ATOM     11  C   UNL d   1     -44.772  11.983  22.765  0.00  0.00     0.111 A 
ATOM     12  C   UNL d   1     -45.527  13.106  22.292  0.00  0.00     0.111 A 
ATOM     13  C   UNL d   1     -44.862  13.378  21.878  0.00  0.00     0.142 A 
ATOM     14  C   UNL d   1     -44.112  12.253  22.354  0.00  0.00     0.142 A 
ENDROOT
BRANCH   3  15
ATOM     15  C   UNL d   1     -48.985  13.830  23.037  0.00  0.00     0.064 A 
ATOM     16  C   UNL d   1     -49.662  13.458  22.757  0.00  0.00     0.018 A 
ATOM     17  C   UNL d   1     -50.372  13.881  22.725  0.00  0.00     0.001 A 
ATOM     18  C   UNL d   1     -51.055  13.514  22.445  0.00  0.00     0.000 C 
ATOM     19  C   UNL d   1     -50.395  14.675  22.975  0.00  0.00     0.000 A 
ATOM     20  C   UNL d   1     -49.712  15.042  23.255  0.00  0.00     0.001 A 
ATOM     21  C   UNL d   1     -49.004  14.615  23.285  0.00  0.00     0.018 A 
ATOM     22  C   UNL d   1     -49.734  15.830  23.503  0.00  0.00     0.000 C 
ENDBRANCH   3  15
TORSDOF 1
ENDMDL
MODEL 4
REMARK VINA RESULT:      -6.3      7.910     10.069
REMARK  1 active torsions:
REMARK  status: ('A' for Active; 'I' for Inactive)
REMARK       I    between atoms: N_2  and  C_1 
REMARK       I    between atoms: N_4  and  C_1 
REMARK    1  A    between atoms: C_5  and  N_3 
ROOT
ATOM      1  C   UNL d   1     -38.740  13.946  17.109  0.00  0.00     0.340 C 
ATOM      2  N   UNL d   1     -39.013  14.276  17.831  0.00  0.00    -0.254 N 
ATOM      3  N   UNL d   1     -39.548  14.921  19.242  0.00  0.00    -0.301 N 
ATOM      4  N   UNL d   1     -38.487  14.436  16.490  0.00  0.00    -0.253 N 
ATOM      5  O   UNL d   1     -38.724  13.117  17.019  0.00  0.00    -0.245 OA
ATOM      6  C   UNL d   1     -39.030  15.091  17.923  0.00  0.00     0.104 A 
ATOM      7  C   UNL d   1     -39.263  13.767  18.440  0.00  0.00     0.104 A 
ATOM      8  C   UNL d   1     -39.531  14.090  19.148  0.00  0.00     0.100 A 
ATOM      9  C   UNL d   1     -39.298  15.415  18.630  0.00  0.00     0.100 A 
ATOM     10  O   UNL d   1     -37.985  15.407  15.261  0.00  0.00    -0.300 OA
ATOM     11  C   UNL d   1     -38.220  14.099  15.784  0.00  0.00     0.111 A 
ATOM     12  C   UNL d   1     -38.505  15.253  16.586  0.00  0.00     0.111 A 
ATOM     13  C   UNL d   1     -38.252  15.744  15.967  0.00  0.00     0.142 A 
ATOM     14  C   UNL d   1     -37.969  14.588  15.170  0.00  0.00     0.142 A 
ENDROOT
BRANCH   3  15
ATOM     15  C   UNL d   1     -39.816  15.253  19.950  0.00  0.00     0.064 A 
ATOM     16  C   UNL d   1     -40.615  15.420  20.034  0.00  0.00     0.018 A 
ATOM     17  C   UNL d   1     -40.887  15.752  20.741  0.00  0.00     0.001 A 
ATOM     18  C   UNL d   1     -41.689  15.922  20.832  0.00  0.00     0.000 C 
ATOM     19  C   UNL d   1     -40.352  15.915  21.358  0.00  0.00     0.000 A 
ATOM     20  C   UNL d   1     -39.550  15.745  21.267  0.00  0.00     0.001 A 
ATOM     21  C   UNL d   1     -39.283  15.413  20.558  0.00  0.00     0.018 A 
ATOM     22  C   UNL d   1     -39.018  15.906  21.878  0.00  0.00     0.000 C 
ENDBRANCH   3  15
TORSDOF 1
ENDMDL
MODEL 5
REMARK VINA RESULT:      -6.2      8.328      9.594
REMARK  1 active torsions:
REMARK  status: ('A' for Active; 'I' for Inactive)
REMARK       I    between atoms: N_2  and  C_1 
REMARK       I    between atoms: N_4  and  C_1 
REMARK    1  A    between atoms: C_5  and  N_3 
ROOT
ATOM      1  C   UNL d   1     -40.577  14.702  18.314  0.00  0.00     0.340 C 
ATOM      2  N   UNL d   1     -40.260  14.675  19.090  0.00  0.00    -0.254 N 
ATOM      3  N   UNL d   1     -39.640  14.622  20.609  0.00  0.00    -0.301 N 
ATOM      4  N   UNL d   1     -40.180  15.111  17.711  0.00  0.00    -0.253 N 
ATOM      5  O   UNL d   1     -41.297  14.314  18.152  0.00  0.00    -0.245 OA
ATOM      6  C   UNL d   1     -39.551  15.057  19.252  0.00  0.00     0.104 A 
ATOM      7  C   UNL d   1     -40.673  14.260  19.682  0.00  0.00     0.104 A 
ATOM      8  C   UNL d   1     -40.362  14.234  20.444  0.00  0.00     0.100 A 
ATOM      9  C   UNL d   1     -39.241  15.030  20.014  0.00  0.00     0.100 A 
ATOM     10  O   UNL d   1     -39.396  15.920  16.512  0.00  0.00    -0.300 OA
ATOM     11  C   UNL d   1     -40.502  15.130  16.949  0.00  0.00     0.111 A 
ATOM     12  C   UNL d   1     -39.470  15.492  17.876  0.00  0.00     0.111 A 
ATOM     13  C   UNL d   1     -39.073  15.900  17.274  0.00  0.00     0.142 A 
ATOM     14  C   UNL d   1     -40.107  15.536  16.351  0.00  0.00     0.142 A 
ENDROOT
BRANCH   3  15
ATOM     15  C   UNL d   1     -39.322  14.600  21.372  0.00  0.00     0.064 A 
ATOM     16  C   UNL d   1     -38.978  13.905  21.640  0.00  0.00     0.018 A 
ATOM     17  C   UNL d   1     -38.659  13.879  22.402  0.00  0.00     0.001 A 
ATOM     18  C   UNL d   1     -38.312  13.183  22.677  0.00  0.00     0.000 C 
ATOM     19  C   UNL d   1     -38.688  14.553  22.889  0.00  0.00     0.000 A 
ATOM     20  C   UNL d   1     -39.035  15.249  22.614  0.00  0.00     0.001 A 
ATOM     21  C   UNL d   1     -39.353  15.270  21.851  0.00  0.00     0.018 A 
ATOM     22  C   UNL d   1     -39.065  15.919  23.097  0.00  0.00     0.000 C 
ENDBRANCH   3  15
TORSDOF 1
ENDMDL
MODEL 6
REMARK VINA RESULT:      -6.0      8.342      9.433
REMARK  1 active torsions:
REMARK  status: ('A' for Active; 'I' for Inactive)
REMARK       I    between atoms: N_2  and  C_1 
REMARK       I    between atoms: N_4  and  C_1 
REMARK    1  A    between atoms: C_5  and  N_3 
ROOT
ATOM      1  C   UNL d   1     -39.743  14.585  21.323  0.00  0.00     0.340 C 
ATOM      2  N   UNL d   1     -39.824  14.705  20.497  0.00  0.00    -0.254 N 
ATOM      3  N   UNL d   1     -39.983  14.941  18.880  0.00  0.00    -0.301 N 
ATOM      4  N   UNL d   1     -39.162  14.990  21.754  0.00  0.00    -0.253 N 
ATOM      5  O   UNL d   1     -40.254  14.051  21.711  0.00  0.00    -0.245 OA
ATOM      6  C   UNL d   1     -39.323  15.229  20.113  0.00  0.00     0.104 A 
ATOM      7  C   UNL d   1     -40.414  14.289  20.082  0.00  0.00     0.104 A 
ATOM      8  C   UNL d   1     -40.493  14.407  19.272  0.00  0.00     0.100 A 
ATOM      9  C   UNL d   1     -39.402  15.348  19.302  0.00  0.00     0.100 A 
ATOM     10  O   UNL d   1     -38.009  15.793  22.610  0.00  0.00    -0.300 OA
ATOM     11  C   UNL d   1     -39.092  14.863  22.568  0.00  0.00     0.111 A 
ATOM     12  C   UNL d   1     -38.661  15.515  21.366  0.00  0.00     0.111 A 
ATOM     13  C   UNL d   1     -38.079  15.921  21.795  0.00  0.00     0.142 A 
ATOM     14  C   UNL d   1     -38.514  15.266  22.993  0.00  0.00     0.142 A 
ENDROOT
BRANCH   3  15
ATOM     15  C   UNL d   1     -40.057  15.065  18.066  0.00  0.00     0.064 A 
ATOM     16  C   UNL d   1     -39.448  14.825  17.570  0.00  0.00     0.018 A 
ATOM     17  C   UNL d   1     -39.518  14.948  16.755  0.00  0.00     0.001 A 
ATOM     18  C   UNL d   1     -38.910  14.709  16.251  0.00  0.00     0.000 C 
ATOM     19  C   UNL d   1     -40.201  15.311  16.446  0.00  0.00     0.000 A 
ATOM     20  C   UNL d   1     -40.809  15.549  16.950  0.00  0.00     0.001 A 
ATOM     21  C   UNL d   1     -40.734  15.425  17.764  0.00  0.00     0.018 A 
ATOM     22  C   UNL d   1     -41.486  15.910  16.644  0.00  0.00     0.000 C 
ENDBRANCH   3  15
TORSDOF 1
ENDMDL
MODEL 7
REMARK VINA RESULT:      -5.8      8.925      9.959
REMARK  1 active torsions:
REMARK  status: ('A' for Active; 'I' for Inactive)
REMARK       I    between atoms: N_2  and  C_1 
REMARK       I    between atoms: N_4  and  C_1 
REMARK    1  A    between atoms: C_5  and  N_3 
ROOT
ATOM      1  C   UNL d   1     -39.162  15.552  18.070  0.00  0.00     0.340 C 
ATOM      2  N   UNL d   1     -39.079  15.379  18.887  0.00  0.00    -0.254 N 
ATOM      3  N   UNL d   1     -38.916  15.040  20.485  0.00  0.00    -0.301 N 
ATOM      4  N   UNL d   1     -39.880  15.412  17.680  0.00  0.00    -0.253 N 
ATOM      5  O   UNL d   1     -38.514  15.869  17.651  0.00  0.00    -0.245 OA
ATOM      6  C   UNL d   1     -39.715  15.068  19.302  0.00  0.00     0.104 A 
ATOM      7  C   UNL d   1     -38.350  15.527  19.261  0.00  0.00     0.104 A 
ATOM      8  C   UNL d   1     -38.269  15.357  20.062  0.00  0.00     0.100 A 
ATOM      9  C   UNL d   1     -39.634  14.898  20.103  0.00  0.00     0.100 A 
ATOM     10  O   UNL d   1     -41.303  15.133  16.904  0.00  0.00    -0.300 OA
ATOM     11  C   UNL d   1     -39.949  15.587  16.875  0.00  0.00     0.111 A 
ATOM     12  C   UNL d   1     -40.516  15.099  18.099  0.00  0.00     0.111 A 
ATOM     13  C   UNL d   1     -41.234  14.958  17.709  0.00  0.00     0.142 A 
ATOM     14  C   UNL d   1     -40.663  15.446  16.489  0.00  0.00     0.142 A 
ENDROOT
BRANCH   3  15
ATOM     15  C   UNL d   1     -38.842  14.867  21.290  0.00  0.00     0.064 A 
ATOM     16  C   UNL d   1     -38.918  15.474  21.836  0.00  0.00     0.018 A 
ATOM     17  C   UNL d   1     -38.845  15.305  22.643  0.00  0.00     0.001 A 
ATOM     18  C   UNL d   1     -38.920  15.911  23.197  0.00  0.00     0.000 C 
ATOM     19  C   UNL d   1     -38.695  14.525  22.892  0.00  0.00     0.000 A 
ATOM     20  C   UNL d   1     -38.620  13.919  22.338  0.00  0.00     0.001 A 
ATOM     21  C   UNL d   1     -38.694  14.093  21.533  0.00  0.00     0.018 A 
ATOM     22  C   UNL d   1     -38.471  13.144  22.584  0.00  0.00     0.000 C 
ENDBRANCH   3  15
TORSDOF 1
ENDMDL
MODEL 8
REMARK VINA RESULT:      -5.7      8.788     10.320
REMARK  1 active torsions:
REMARK  status: ('A' for Active; 'I' for Inactive)
REMARK       I    between atoms: N_2  and  C_1 
REMARK       I    between atoms: N_4  and  C_1 
REMARK    1  A    between atoms: C_5  and  N_3 
ROOT
ATOM      1  C   UNL d   1     -39.841  15.239  20.749  0.00  0.00     0.340 C 
ATOM      2  N   UNL d   1     -39.564  14.834  20.068  0.00  0.00    -0.254 N 
ATOM      3  N   UNL d   1     -39.021  14.043  18.737  0.00  0.00    -0.301 N 
ATOM      4  N   UNL d   1     -39.336  15.382  21.390  0.00  0.00    -0.253 N 
ATOM      5  O   UNL d   1     -40.634  15.499  20.775  0.00  0.00    -0.245 OA
ATOM      6  C   UNL d   1     -38.785  14.578  20.039  0.00  0.00     0.104 A 
ATOM      7  C   UNL d   1     -40.087  14.701  19.435  0.00  0.00     0.104 A 
ATOM      8  C   UNL d   1     -39.814  14.304  18.767  0.00  0.00     0.100 A 
ATOM      9  C   UNL d   1     -38.512  14.181  19.372  0.00  0.00     0.100 A 
ATOM     10  O   UNL d   1     -38.335  15.665  22.665  0.00  0.00    -0.300 OA
ATOM     11  C   UNL d   1     -39.621  15.782  22.056  0.00  0.00     0.111 A 
ATOM     12  C   UNL d   1     -38.555  15.123  21.358  0.00  0.00     0.111 A 
ATOM     13  C   UNL d   1     -38.049  15.265  21.999  0.00  0.00     0.142 A 
ATOM     14  C   UNL d   1     -39.118  15.922  22.692  0.00  0.00     0.142 A 
ENDROOT
BRANCH   3  15
ATOM     15  C   UNL d   1     -38.740  13.643  18.070  0.00  0.00     0.064 A 
ATOM     16  C   UNL d   1     -38.532  12.852  18.138  0.00  0.00     0.018 A 
ATOM     17  C   UNL d   1     -38.251  12.449  17.472  0.00  0.00     0.001 A 
ATOM     18  C   UNL d   1     -38.040  11.654  17.534  0.00  0.00     0.000 C 
ATOM     19  C   UNL d   1     -38.181  12.846  16.744  0.00  0.00     0.000 A 
ATOM     20  C   UNL d   1     -38.391  13.641  16.682  0.00  0.00     0.001 A 
ATOM     21  C   UNL d   1     -38.672  14.040  17.350  0.00  0.00     0.018 A 
ATOM     22  C   UNL d   1     -38.322  14.036  15.960  0.00  0.00     0.000 C 
ENDBRANCH   3  15
TORSDOF 1
ENDMDL
MODEL 9
REMARK VINA RESULT:      -5.3      1.411      4.758
REMARK  1 active torsions:
REMARK  status: ('A' for Active; 'I' for Inactive)
REMARK       I    between atoms: N_2  and  C_1 
REMARK       I    between atoms: N_4  and  C_1 
REMARK    1  A    between atoms: C_5  and  N_3 
ROOT
ATOM      1  C   UNL d   1     -48.349  13.291  23.228  0.00  0.00     0.340 C 
ATOM      2  N   UNL d   1     -47.560  13.055  23.070  0.00  0.00    -0.254 N 
ATOM      3  N   UNL d   1     -46.016  12.592  22.759  0.00  0.00    -0.301 N 
ATOM      4  N   UNL d   1     -48.612  14.050  23.021  0.00  0.00    -0.253 N 
ATOM      5  O   UNL d   1     -48.870  12.755  23.599  0.00  0.00    -0.245 OA
ATOM      6  C   UNL d   1     -47.045  13.580  22.705  0.00  0.00     0.104 A 
ATOM      7  C   UNL d   1     -47.315  12.289  23.286  0.00  0.00     0.104 A 
ATOM      8  C   UNL d   1     -46.541  12.057  23.130  0.00  0.00     0.100 A 
ATOM      9  C   UNL d   1     -46.271  13.348  22.550  0.00  0.00     0.100 A 
ATOM     10  O   UNL d   1     -49.136  15.554  22.610  0.00  0.00    -0.300 OA
ATOM     11  C   UNL d   1     -49.392  14.271  23.183  0.00  0.00     0.111 A 
ATOM     12  C   UNL d   1     -48.094  14.574  22.656  0.00  0.00     0.111 A 
ATOM     13  C   UNL d   1     -48.356  15.332  22.448  0.00  0.00     0.142 A 
ATOM     14  C   UNL d   1     -49.652  15.025  22.976  0.00  0.00     0.142 A 
ENDROOT
BRANCH   3  15
ATOM     15  C   UNL d   1     -45.237  12.366  22.599  0.00  0.00     0.064 A 
ATOM     16  C   UNL d   1     -44.921  11.719  22.993  0.00  0.00     0.018 A 
ATOM     17  C   UNL d   1     -44.142  11.490  22.836  0.00  0.00     0.001 A 
ATOM     18  C   UNL d   1     -43.819  10.841  23.229  0.00  0.00     0.000 C 
ATOM     19  C   UNL d   1     -43.687  11.915  22.283  0.00  0.00     0.000 A 
ATOM     20  C   UNL d   1     -44.010  12.564  21.891  0.00  0.00     0.001 A 
ATOM     21  C   UNL d   1     -44.789  12.789  22.051  0.00  0.00     0.018 A 
ATOM     22  C   UNL d   1     -43.559  12.986  21.342  0.00  0.00     0.000 C 
ENDBRANCH   3  15
TORSDOF 1
ENDMDL
