MODEL 1
REMARK VINA RESULT:      17.8      0.000      0.000
REMARK  7 active torsions:
REMARK  status: ('A' for Active; 'I' for Inactive)
REMARK    1  A    between atoms: C_6  and  N_1 
REMARK    2  A    between atoms: C_9  and  C_5 
REMARK    3  A    between atoms: C_7  and  C_6 
REMARK       I    between atoms: N_10  and  C_7 
REMARK    4  A    between atoms: C_12  and  C_9 
REMARK    5  A    between atoms: C_15  and  N_10 
REMARK    6  A    between atoms: C_14  and  C_12 
REMARK    7  A    between atoms: C_17  and  C_14 
ROOT
ATOM      1  N   UNL d   1      45.677 -15.746  44.854  0.00  0.00    -0.230 N 
ATOM      2  C   UNL d   1      44.865 -15.827  44.870  0.00  0.00     0.299 A 
ATOM      3  C   UNL d   1      45.851 -14.943  44.762  0.00  0.00     0.274 A 
ATOM      4  S   UNL d   1      44.538 -15.080  44.789  0.00  0.00    -0.022 SA
ATOM      5  C   UNL d   1      45.144 -14.536  44.722  0.00  0.00     0.090 A 
ATOM      6  O   UNL d   1      44.453 -16.541  44.955  0.00  0.00    -0.259 OA
ATOM      7  O   UNL d   1      46.598 -14.614  44.719  0.00  0.00    -0.266 OA
ENDROOT
BRANCH   1   8
ATOM      8  C   UNL d   1      46.223 -16.360  44.919  0.00  0.00     0.149 C 
BRANCH   8   9
ATOM      9  C   UNL d   1      46.263 -16.941  44.323  0.00  0.00     0.297 C 
ATOM     10  N   UNL d   1      46.334 -17.738  44.527  0.00  0.00    -0.207 NA
ATOM     11  O   UNL d   1      46.229 -16.711  43.526  0.00  0.00    -0.264 OA
BRANCH  10  12
ATOM     12  C   UNL d   1      46.373 -18.311  43.935  0.00  0.00     0.085 A 
ATOM     13  C   UNL d   1      46.569 -19.094  44.124  0.00  0.00     0.022 A 
ATOM     14  C   UNL d   1      46.608 -19.667  43.532  0.00  0.00     0.044 A 
ATOM     15  C   UNL d   1      46.449 -19.458  42.743  0.00  0.00     0.196 A 
ATOM     16  C   UNL d   1      46.251 -18.673  42.553  0.00  0.00     0.044 A 
ATOM     17  O   UNL d   1      46.488 -20.034  42.148  0.00  0.00    -0.287 OA
ATOM     18  C   UNL d   1      46.214 -18.099  43.154  0.00  0.00     0.022 A 
ENDBRANCH  10  12
ENDBRANCH   8   9
ENDBRANCH   1   8
BRANCH   5  19
ATOM     19  C   UNL d   1      45.520 -13.809  44.637  0.00  0.00     0.011 C 
BRANCH  19  20
ATOM     20  C   UNL d   1      45.066 -13.115  44.581  0.00  0.00     0.001 C 
BRANCH  20  21
ATOM     21  C   UNL d   1      45.379 -12.454  44.203  0.00  0.00     0.000 C 
BRANCH  21  22
ATOM     22  C   UNL d   1      45.236 -12.329  43.401  0.00  0.00     0.000 A 
ATOM     23  C   UNL d   1      44.454 -12.297  43.128  0.00  0.00     0.000 A 
ATOM     24  C   UNL d   1      44.305 -12.172  42.321  0.00  0.00     0.000 A 
ATOM     25  C   UNL d   1      44.934 -12.080  41.799  0.00  0.00     0.000 A 
ATOM     26  C   UNL d   1      45.714 -12.113  42.082  0.00  0.00     0.000 A 
ATOM     27  C   UNL d   1      45.855 -12.237  42.878  0.00  0.00     0.000 A 
ENDBRANCH  21  22
ENDBRANCH  20  21
ENDBRANCH  19  20
ENDBRANCH   5  19
TORSDOF 7
ENDMDL
