MODEL 1
REMARK VINA RESULT:      -1.4      0.000      0.000
REMARK  3 active torsions:
REMARK  status: ('A' for Active; 'I' for Inactive)
REMARK    1  A    between atoms: C_8  and  N_2 
REMARK    2  A    between atoms: C_14  and  C_8 
REMARK    3  A    between atoms: N_13  and  C_14 
ROOT
ATOM      1  C   UNL d   1      58.719  -1.637  29.583  0.00  0.00     0.166 A 
ATOM      2  N   UNL d   1      58.558  -0.896  29.887  0.00  0.00    -0.288 N 
ATOM      3  C   UNL d   1      59.418  -1.644  29.138  0.00  0.00     0.117 A 
ATOM      4  C   UNL d   1      59.687  -0.894  29.171  0.00  0.00     0.037 A 
ATOM      5  C   UNL d   1      59.148  -0.421  29.642  0.00  0.00     0.067 A 
ATOM      6  N   UNL d   1      58.327  -2.322  29.647  0.00  0.00    -0.225 NA
ATOM      7  N   UNL d   1      59.719  -2.320  28.764  0.00  0.00    -0.241 NA
ATOM      8  C   UNL d   1      58.631  -3.000  29.269  0.00  0.00     0.101 A 
ATOM      9  C   UNL d   1      59.328  -2.994  28.828  0.00  0.00     0.099 A 
ATOM     10  C   UNL d   1      59.277   0.364  29.773  0.00  0.00     0.018 A 
ATOM     11  C   UNL d   1      60.343  -0.571  28.843  0.00  0.00     0.010 A 
ATOM     12  C   UNL d   1      60.478   0.209  28.969  0.00  0.00     0.035 A 
ATOM     13  C   UNL d   1      59.938   0.682  29.440  0.00  0.00     0.008 A 
ATOM     14 BR   UNL d   1      61.127   0.564  28.653  0.00  0.00    -0.049 Br
ATOM     15  C   UNL d   1      59.624  -3.678  28.455  0.00  0.00     0.021 A 
ATOM     16  C   UNL d   1      58.237  -3.678  29.335  0.00  0.00     0.021 A 
ATOM     17  C   UNL d   1      58.539  -4.354  28.960  0.00  0.00     0.002 A 
ATOM     18  C   UNL d   1      59.232  -4.352  28.520  0.00  0.00     0.002 A 
ENDROOT
BRANCH   2  19
ATOM     19  C   UNL d   1      57.903  -0.653  30.368  0.00  0.00     0.101 C 
BRANCH  19  20
ATOM     20  C   UNL d   1      58.083  -0.269  31.097  0.00  0.00     0.100 C 
BRANCH  20  21
ATOM     21  N   UNL d   1      57.343  -0.209  31.494  0.00  0.00    -0.298 N 
ATOM     22  C   UNL d   1      56.985   0.549  31.601  0.00  0.00     0.107 A 
ATOM     23  C   UNL d   1      56.252   0.609  31.994  0.00  0.00     0.142 A 
ATOM     24  O   UNL d   1      55.872  -0.080  32.284  0.00  0.00    -0.300 OA
ATOM     25  C   UNL d   1      56.235  -0.831  32.175  0.00  0.00     0.142 A 
ATOM     26  C   UNL d   1      56.971  -0.894  31.779  0.00  0.00     0.107 A 
ENDBRANCH  20  21
ENDBRANCH  19  20
ENDBRANCH   2  19
TORSDOF 3
ENDMDL
MODEL 2
REMARK VINA RESULT:      -1.2      1.519      3.877
REMARK  3 active torsions:
REMARK  status: ('A' for Active; 'I' for Inactive)
REMARK    1  A    between atoms: C_8  and  N_2 
REMARK    2  A    between atoms: C_14  and  C_8 
REMARK    3  A    between atoms: N_13  and  C_14 
ROOT
ATOM      1  C   UNL d   1      58.297  -1.227  30.091  0.00  0.00     0.166 A 
ATOM      2  N   UNL d   1      58.694  -1.654  29.519  0.00  0.00    -0.288 N 
ATOM      3  C   UNL d   1      58.591  -0.456  30.160  0.00  0.00     0.117 A 
ATOM      4  C   UNL d   1      59.177  -0.412  29.622  0.00  0.00     0.037 A 
ATOM      5  C   UNL d   1      59.244  -1.166  29.217  0.00  0.00     0.067 A 
ATOM      6  N   UNL d   1      57.699  -1.428  30.569  0.00  0.00    -0.225 NA
ATOM      7  N   UNL d   1      58.294   0.103  30.696  0.00  0.00    -0.241 NA
ATOM      8  C   UNL d   1      57.402  -0.864  31.106  0.00  0.00     0.101 A 
ATOM      9  C   UNL d   1      57.703  -0.099  31.167  0.00  0.00     0.099 A 
ATOM     10  C   UNL d   1      59.793  -1.289  28.639  0.00  0.00     0.018 A 
ATOM     11  C   UNL d   1      59.660   0.201  29.439  0.00  0.00     0.010 A 
ATOM     12  C   UNL d   1      60.208   0.086  28.866  0.00  0.00     0.035 A 
ATOM     13  C   UNL d   1      60.275  -0.667  28.461  0.00  0.00     0.008 A 
ATOM     14 BR   UNL d   1      60.708   0.682  28.659  0.00  0.00    -0.049 Br
ATOM     15  C   UNL d   1      57.399   0.457  31.707  0.00  0.00     0.021 A 
ATOM     16  C   UNL d   1      56.807  -1.070  31.580  0.00  0.00     0.021 A 
ATOM     17  C   UNL d   1      56.511  -0.509  32.115  0.00  0.00     0.002 A 
ATOM     18  C   UNL d   1      56.808   0.254  32.178  0.00  0.00     0.002 A 
ENDROOT
BRANCH   2  19
ATOM     19  C   UNL d   1      58.567  -2.457  29.276  0.00  0.00     0.101 C 
BRANCH  19  20
ATOM     20  C   UNL d   1      59.183  -3.010  29.438  0.00  0.00     0.100 C 
BRANCH  20  21
ATOM     21  N   UNL d   1      58.910  -3.735  29.110  0.00  0.00    -0.298 N 
ATOM     22  C   UNL d   1      59.453  -4.372  28.989  0.00  0.00     0.107 A 
ATOM     23  C   UNL d   1      59.184  -5.091  28.663  0.00  0.00     0.142 A 
ATOM     24  O   UNL d   1      58.376  -5.183  28.456  0.00  0.00    -0.300 OA
ATOM     25  C   UNL d   1      57.841  -4.545  28.579  0.00  0.00     0.142 A 
ATOM     26  C   UNL d   1      58.110  -3.822  28.906  0.00  0.00     0.107 A 
ENDBRANCH  20  21
ENDBRANCH  19  20
ENDBRANCH   2  19
TORSDOF 3
ENDMDL
MODEL 3
REMARK VINA RESULT:       1.1      2.795      3.469
REMARK  3 active torsions:
REMARK  status: ('A' for Active; 'I' for Inactive)
REMARK    1  A    between atoms: C_8  and  N_2 
REMARK    2  A    between atoms: C_14  and  C_8 
REMARK    3  A    between atoms: N_13  and  C_14 
ROOT
ATOM      1  C   UNL d   1      57.958   0.681  31.405  0.00  0.00     0.166 A 
ATOM      2  N   UNL d   1      57.865   0.680  32.216  0.00  0.00    -0.288 N 
ATOM      3  C   UNL d   1      58.757   0.681  31.185  0.00  0.00     0.117 A 
ATOM      4  C   UNL d   1      59.158   0.681  31.875  0.00  0.00     0.037 A 
ATOM      5  C   UNL d   1      58.599   0.680  32.525  0.00  0.00     0.067 A 
ATOM      6  N   UNL d   1      57.425   0.681  30.820  0.00  0.00    -0.225 NA
ATOM      7  N   UNL d   1      59.018   0.681  30.398  0.00  0.00    -0.241 NA
ATOM      8  C   UNL d   1      57.690   0.681  30.029  0.00  0.00     0.101 A 
ATOM      9  C   UNL d   1      58.488   0.681  29.823  0.00  0.00     0.099 A 
ATOM     10  C   UNL d   1      58.843   0.680  33.294  0.00  0.00     0.018 A 
ATOM     11  C   UNL d   1      59.948   0.681  32.008  0.00  0.00     0.010 A 
ATOM     12  C   UNL d   1      60.198   0.681  32.769  0.00  0.00     0.035 A 
ATOM     13  C   UNL d   1      59.639   0.680  33.419  0.00  0.00     0.008 A 
ATOM     14 BR   UNL d   1      60.985   0.681  32.936  0.00  0.00    -0.049 Br
ATOM     15  C   UNL d   1      58.742   0.682  29.030  0.00  0.00     0.021 A 
ATOM     16  C   UNL d   1      57.155   0.681  29.451  0.00  0.00     0.021 A 
ATOM     17  C   UNL d   1      57.417   0.681  28.664  0.00  0.00     0.002 A 
ATOM     18  C   UNL d   1      58.211   0.682  28.455  0.00  0.00     0.002 A 
ENDROOT
BRANCH   2  19
ATOM     19  C   UNL d   1      57.145   0.680  32.665  0.00  0.00     0.101 C 
BRANCH  19  20
ATOM     20  C   UNL d   1      56.916  -0.048  33.024  0.00  0.00     0.100 C 
BRANCH  20  21
ATOM     21  N   UNL d   1      56.161   0.109  33.361  0.00  0.00    -0.298 N 
ATOM     22  C   UNL d   1      56.108   0.505  34.106  0.00  0.00     0.107 A 
ATOM     23  C   UNL d   1      55.360   0.661  34.441  0.00  0.00     0.142 A 
ATOM     24  O   UNL d   1      54.662   0.427  34.039  0.00  0.00    -0.300 OA
ATOM     25  C   UNL d   1      54.722   0.034  33.298  0.00  0.00     0.142 A 
ATOM     26  C   UNL d   1      55.473  -0.125  32.960  0.00  0.00     0.107 A 
ENDBRANCH  20  21
ENDBRANCH  19  20
ENDBRANCH   2  19
TORSDOF 3
ENDMDL
