MODEL 1
REMARK VINA RESULT:      43.3      0.000      0.000
REMARK  5 active torsions:
REMARK  status: ('A' for Active; 'I' for Inactive)
REMARK    1  A    between atoms: C_9  and  N_2 
REMARK    2  A    between atoms: C_8  and  O_11 
REMARK    3  A    between atoms: C_12  and  C_9 
REMARK    4  A    between atoms: O_11  and  C_15 
REMARK    5  A    between atoms: C_15  and  C_12 
ROOT
ATOM      1  C   UNL d   1     -49.625  26.744  33.402  0.00  0.00     0.087 C 
ENDROOT
BRANCH   1   2
ATOM      2  N   UNL d   1     -50.346  26.341  33.376  0.00  0.00    -0.251 N 
ATOM      3  C   UNL d   1     -51.013  26.833  33.368  0.00  0.00     0.378 A 
ATOM      4  O   UNL d   1     -51.691  26.369  33.342  0.00  0.00    -0.258 OA
ATOM      5  O   UNL d   1     -50.996  27.662  33.384  0.00  0.00    -0.237 OA
ATOM      6  C   UNL d   1     -51.441  25.565  33.333  0.00  0.00     0.121 A 
ATOM      7  C   UNL d   1     -51.865  24.857  33.309  0.00  0.00     0.026 A 
ATOM      8  C   UNL d   1     -50.620  25.555  33.354  0.00  0.00     0.092 A 
ATOM      9  C   UNL d   1     -51.457  24.135  33.306  0.00  0.00     0.002 A 
ATOM     10  C   UNL d   1     -50.637  24.125  33.327  0.00  0.00     0.002 A 
ATOM     11  C   UNL d   1     -50.211  24.837  33.351  0.00  0.00     0.020 A 
ENDBRANCH   1   2
BRANCH   1  12
ATOM     12  C   UNL d   1     -49.539  27.394  33.890  0.00  0.00     0.046 C 
BRANCH  12  13
ATOM     13  C   UNL d   1     -48.784  27.615  34.147  0.00  0.00     0.124 C 
BRANCH  13  14
ATOM     14  O   UNL d   1     -48.647  27.740  34.952  0.00  0.00    -0.304 OA
BRANCH  14  15
ATOM     15  C   UNL d   1     -48.279  28.440  35.203  0.00  0.00     0.111 A 
ATOM     16  C   UNL d   1     -48.451  28.756  35.944  0.00  0.00     0.080 A 
ATOM     17 CL   UNL d   1     -48.990  28.382  36.445  0.00  0.00    -0.080 Cl
ATOM     18  C   UNL d   1     -48.084  29.450  36.191  0.00  0.00     0.013 A 
ATOM     19  C   UNL d   1     -47.549  29.826  35.700  0.00  0.00     0.001 A 
ATOM     20  C   UNL d   1     -47.371  29.514  34.954  0.00  0.00     0.002 A 
ATOM     21  C   UNL d   1     -47.739  28.819  34.708  0.00  0.00     0.026 A 
ENDBRANCH  14  15
ENDBRANCH  13  14
ENDBRANCH  12  13
ENDBRANCH   1  12
TORSDOF 5
ENDMDL
MODEL 2
REMARK VINA RESULT:      46.1      1.139      1.504
REMARK  5 active torsions:
REMARK  status: ('A' for Active; 'I' for Inactive)
REMARK    1  A    between atoms: C_9  and  N_2 
REMARK    2  A    between atoms: C_8  and  O_11 
REMARK    3  A    between atoms: C_12  and  C_9 
REMARK    4  A    between atoms: O_11  and  C_15 
REMARK    5  A    between atoms: C_15  and  C_12 
ROOT
ATOM      1  C   UNL d   1     -49.512  26.670  33.391  0.00  0.00     0.087 C 
ENDROOT
BRANCH   1   2
ATOM      2  N   UNL d   1     -50.098  26.087  33.364  0.00  0.00    -0.251 N 
ATOM      3  C   UNL d   1     -49.808  25.311  33.337  0.00  0.00     0.378 A 
ATOM      4  O   UNL d   1     -50.440  24.786  33.312  0.00  0.00    -0.258 OA
ATOM      5  O   UNL d   1     -49.005  25.100  33.337  0.00  0.00    -0.237 OA
ATOM      6  C   UNL d   1     -51.144  25.247  33.323  0.00  0.00     0.121 A 
ATOM      7  C   UNL d   1     -51.942  25.033  33.308  0.00  0.00     0.026 A 
ATOM      8  C   UNL d   1     -50.929  26.039  33.355  0.00  0.00     0.092 A 
ATOM      9  C   UNL d   1     -52.524  25.623  33.325  0.00  0.00     0.002 A 
ATOM     10  C   UNL d   1     -52.308  26.415  33.357  0.00  0.00     0.002 A 
ATOM     11  C   UNL d   1     -51.507  26.628  33.372  0.00  0.00     0.020 A 
ENDBRANCH   1   2
BRANCH   1  12
ATOM     12  C   UNL d   1     -49.293  26.993  34.109  0.00  0.00     0.046 C 
BRANCH  12  13
ATOM     13  C   UNL d   1     -48.707  27.578  34.132  0.00  0.00     0.124 C 
BRANCH  13  14
ATOM     14  O   UNL d   1     -48.899  28.338  34.388  0.00  0.00    -0.304 OA
BRANCH  14  15
ATOM     15  C   UNL d   1     -48.360  28.764  34.856  0.00  0.00     0.111 A 
ATOM     16  C   UNL d   1     -48.419  29.583  34.913  0.00  0.00     0.080 A 
ATOM     17 CL   UNL d   1     -49.011  29.991  34.509  0.00  0.00    -0.080 Cl
ATOM     18  C   UNL d   1     -47.883  30.002  35.377  0.00  0.00     0.013 A 
ATOM     19  C   UNL d   1     -47.294  29.605  35.781  0.00  0.00     0.001 A 
ATOM     20  C   UNL d   1     -47.229  28.781  35.728  0.00  0.00     0.002 A 
ATOM     21  C   UNL d   1     -47.765  28.363  35.263  0.00  0.00     0.026 A 
ENDBRANCH  14  15
ENDBRANCH  13  14
ENDBRANCH  12  13
ENDBRANCH   1  12
TORSDOF 5
ENDMDL
