MODEL 1
REMARK VINA RESULT:      74.3      0.000      0.000
REMARK  4 active torsions:
REMARK  status: ('A' for Active; 'I' for Inactive)
REMARK    1  A    between atoms: N_10  and  C_3 
REMARK    2  A    between atoms: C_11  and  C_4 
REMARK    3  A    between atoms: C_17  and  N_10 
REMARK       I    between atoms: C_12  and  N_13 
REMARK    4  A    between atoms: N_13  and  C_18 
ROOT
ATOM      1  C   UNL d   1     -54.750-100.786 -39.202  0.00  0.00     0.168 A 
ATOM      2  N   UNL d   1     -54.732-100.366 -39.930  0.00  0.00    -0.184 N 
ATOM      3  C   UNL d   1     -54.730-100.779 -40.611  0.00  0.00     0.218 A 
ATOM      4  C   UNL d   1     -54.752-100.385 -38.509  0.00  0.00     0.057 A 
ATOM      5  N   UNL d   1     -54.721 -99.156 -39.216  0.00  0.00    -0.160 NA
ATOM      6  N   UNL d   1     -54.764-101.590 -39.205  0.00  0.00    -0.227 NA
ATOM      7  C   UNL d   1     -54.744-101.592 -40.623  0.00  0.00     0.071 A 
ATOM      8  C   UNL d   1     -54.738 -99.563 -38.511  0.00  0.00     0.124 A 
ATOM      9  C   UNL d   1     -54.761-102.006 -39.907  0.00  0.00     0.087 A 
ATOM     10  C   UNL d   1     -54.776-102.855 -39.910  0.00  0.00     0.021 C 
ENDROOT
BRANCH   3  11
ATOM     11  N   UNL d   1     -54.712-100.359 -41.348  0.00  0.00    -0.383 NA
BRANCH  11  12
ATOM     12  C   UNL d   1     -54.779-100.006 -42.106  0.00  0.00     0.134 A 
ATOM     13  C   UNL d   1     -54.795 -99.178 -42.194  0.00  0.00     0.034 A 
ATOM     14  C   UNL d   1     -54.864 -98.828 -42.974  0.00  0.00     0.022 A 
ATOM     15  C   UNL d   1     -54.915 -99.320 -43.654  0.00  0.00     0.085 A 
ATOM     16  C   UNL d   1     -54.899-100.162 -43.571  0.00  0.00     0.022 A 
ATOM     17  C   UNL d   1     -54.830-100.514 -42.796  0.00  0.00     0.034 A 
BRANCH  15  18
ATOM     18  N   UNL d   1     -54.983 -98.974 -44.423  0.00  0.00    -0.208 NA
ATOM     19  C   UNL d   1     -55.679 -99.096 -44.885  0.00  0.00     0.279 C 
ATOM     20  O   UNL d   1     -55.748 -98.755 -45.645  0.00  0.00    -0.265 OA
ATOM     21  C   UNL d   1     -56.311 -99.567 -44.577  0.00  0.00     0.068 C 
ENDBRANCH  15  18
ENDBRANCH  11  12
ENDBRANCH   3  11
BRANCH   4  22
ATOM     22  C   UNL d   1     -54.770-100.792 -37.803  0.00  0.00     0.005 A 
ATOM     23  C   UNL d   1     -54.715-100.391 -37.107  0.00  0.00     0.001 A 
ATOM     24  C   UNL d   1     -54.732-100.798 -36.402  0.00  0.00     0.011 A 
ATOM     25  C   UNL d   1     -54.803-101.600 -36.404  0.00  0.00     0.058 A 
ATOM     26  C   UNL d   1     -54.858-101.994 -37.111  0.00  0.00     0.011 A 
ATOM     27 CL   UNL d   1     -54.821-102.026 -35.665  0.00  0.00    -0.082 Cl
ATOM     28  C   UNL d   1     -54.841-101.594 -37.804  0.00  0.00     0.001 A 
ENDBRANCH   4  22
TORSDOF 4
ENDMDL
