MODEL 1
REMARK VINA RESULT:      17.9      0.000      0.000
REMARK  2 active torsions:
REMARK  status: ('A' for Active; 'I' for Inactive)
REMARK    1  A    between atoms: C_2  and  N_1 
REMARK    2  A    between atoms: C_5  and  C_7 
ROOT
ATOM      1  C   UNL d   1      58.282  49.679  50.700  0.00  0.00     0.070 A 
ATOM      2  C   UNL d   1      59.034  49.656  50.352  0.00  0.00     0.024 A 
ATOM      3  C   UNL d   1      59.702  49.655  50.823  0.00  0.00     0.066 A 
ATOM      4  C   UNL d   1      58.199  49.699  51.517  0.00  0.00     0.018 A 
ATOM      5  C   UNL d   1      59.622  49.675  51.649  0.00  0.00     0.006 A 
ATOM      6  C   UNL d   1      58.870  49.698  51.996  0.00  0.00     0.002 A 
ENDROOT
BRANCH   1   7
ATOM      7  N   UNL d   1      57.605  49.680  50.229  0.00  0.00    -0.242 N 
ATOM      8  C   UNL d   1      57.567  49.673  49.401  0.00  0.00     0.267 A 
ATOM      9  C   UNL d   1      56.780  49.678  49.173  0.00  0.00     0.066 A 
ATOM     10  O   UNL d   1      58.196  49.662  48.850  0.00  0.00    -0.267 OA
ATOM     11  C   UNL d   1      56.312  49.688  49.857  0.00  0.00     0.066 A 
ATOM     12  C   UNL d   1      56.822  49.690  50.506  0.00  0.00     0.267 A 
ATOM     13  O   UNL d   1      56.551  49.699  51.290  0.00  0.00    -0.267 OA
ENDBRANCH   1   7
BRANCH   3  14
ATOM     14  C   UNL d   1      60.453  49.633  50.492  0.00  0.00     0.211 C 
ATOM     15  O   UNL d   1      60.555  49.694  49.681  0.00  0.00    -0.644 OA
ATOM     16  O   UNL d   1      61.111  49.548  50.990  0.00  0.00    -0.644 OA
ENDBRANCH   3  14
TORSDOF 2
ENDMDL
MODEL 2
REMARK VINA RESULT:      18.4      1.055      3.470
REMARK  2 active torsions:
REMARK  status: ('A' for Active; 'I' for Inactive)
REMARK    1  A    between atoms: C_2  and  N_1 
REMARK    2  A    between atoms: C_5  and  C_7 
ROOT
ATOM      1  C   UNL d   1      59.213  49.698  50.514  0.00  0.00     0.070 A 
ATOM      2  C   UNL d   1      58.460  49.688  50.859  0.00  0.00     0.024 A 
ATOM      3  C   UNL d   1      57.793  49.687  50.387  0.00  0.00     0.066 A 
ATOM      4  C   UNL d   1      59.300  49.708  49.697  0.00  0.00     0.018 A 
ATOM      5  C   UNL d   1      57.876  49.697  49.561  0.00  0.00     0.006 A 
ATOM      6  C   UNL d   1      58.629  49.707  49.216  0.00  0.00     0.002 A 
ENDROOT
BRANCH   1   7
ATOM      7  N   UNL d   1      59.888  49.699  50.988  0.00  0.00    -0.242 N 
ATOM      8  C   UNL d   1      59.924  49.703  51.816  0.00  0.00     0.267 A 
ATOM      9  C   UNL d   1      60.710  49.703  52.046  0.00  0.00     0.066 A 
ATOM     10  O   UNL d   1      59.293  49.706  52.365  0.00  0.00    -0.267 OA
ATOM     11  C   UNL d   1      61.180  49.699  51.363  0.00  0.00     0.066 A 
ATOM     12  C   UNL d   1      60.672  49.697  50.713  0.00  0.00     0.267 A 
ATOM     13  O   UNL d   1      60.946  49.693  49.929  0.00  0.00    -0.267 OA
ENDBRANCH   1   7
BRANCH   3  14
ATOM     14  C   UNL d   1      57.042  49.677  50.716  0.00  0.00     0.211 C 
ATOM     15  O   UNL d   1      56.939  49.703  51.528  0.00  0.00    -0.644 OA
ATOM     16  O   UNL d   1      56.382  49.639  50.213  0.00  0.00    -0.644 OA
ENDBRANCH   3  14
TORSDOF 2
ENDMDL
