MODEL 1
REMARK VINA RESULT:      -7.2      0.000      0.000
REMARK  3 active torsions:
REMARK  status: ('A' for Active; 'I' for Inactive)
REMARK    1  A    between atoms: N_10  and  C_3 
REMARK    2  A    between atoms: C_11  and  C_5 
REMARK    3  A    between atoms: C_12  and  C_9 
ROOT
ATOM      1  N   UNL d   1     -48.812  14.272  22.938  0.00  0.00    -0.196 N 
ATOM      2  C   UNL d   1     -48.252  13.652  22.914  0.00  0.00     0.167 A 
ATOM      3  C   UNL d   1     -49.613  14.087  22.966  0.00  0.00     0.152 A 
ATOM      4  N   UNL d   1     -47.750  15.234  22.906  0.00  0.00    -0.163 NA
ATOM      5  C   UNL d   1     -47.457  13.826  22.886  0.00  0.00     0.055 A 
ATOM      6  N   UNL d   1     -48.512  12.870  22.918  0.00  0.00    -0.227 NA
ATOM      7  C   UNL d   1     -49.872  13.277  22.970  0.00  0.00     0.057 A 
ATOM      8  C   UNL d   1     -47.190  14.614  22.881  0.00  0.00     0.104 A 
ATOM      9  C   UNL d   1     -49.310  12.694  22.946  0.00  0.00     0.086 A 
ATOM     10  C   UNL d   1     -46.398  14.785  22.853  0.00  0.00     0.023 C 
ENDROOT
BRANCH   5  11
ATOM     11  C   UNL d   1     -46.890  13.200  22.861  0.00  0.00     0.004 A 
ATOM     12  C   UNL d   1     -46.686  12.804  23.553  0.00  0.00     0.000 A 
ATOM     13  C   UNL d   1     -46.128  12.187  23.529  0.00  0.00     0.000 A 
ATOM     14  C   UNL d   1     -45.786  11.979  22.813  0.00  0.00     0.000 A 
ATOM     15  C   UNL d   1     -45.995  12.381  22.115  0.00  0.00     0.000 A 
ATOM     16  C   UNL d   1     -46.545  12.987  22.148  0.00  0.00     0.000 A 
ENDBRANCH   5  11
BRANCH   3  17
ATOM     17  N   UNL d   1     -50.192  14.720  22.992  0.00  0.00    -0.289 N 
ATOM     18  C   UNL d   1     -50.553  14.911  22.361  0.00  0.00     0.082 A 
ATOM     19  C   UNL d   1     -51.063  15.471  22.392  0.00  0.00     0.021 A 
ATOM     20  C   UNL d   1     -50.835  15.622  23.657  0.00  0.00     0.021 A 
ATOM     21  C   UNL d   1     -50.325  15.062  23.626  0.00  0.00     0.082 A 
ENDBRANCH   3  17
BRANCH   9  22
ATOM     22  C   UNL d   1     -49.579  11.867  22.951  0.00  0.00     0.018 C 
ATOM     23  C   UNL d   1     -49.644  11.437  22.196  0.00  0.00     0.002 C 
ATOM     24  C   UNL d   1     -49.779  11.479  23.697  0.00  0.00     0.002 C 
ENDBRANCH   9  22
TORSDOF 3
ENDMDL
MODEL 2
REMARK VINA RESULT:      -6.6      0.952      3.628
REMARK  3 active torsions:
REMARK  status: ('A' for Active; 'I' for Inactive)
REMARK    1  A    between atoms: N_10  and  C_3 
REMARK    2  A    between atoms: C_11  and  C_5 
REMARK    3  A    between atoms: C_12  and  C_9 
ROOT
ATOM      1  N   UNL d   1     -47.445  13.671  22.607  0.00  0.00    -0.196 N 
ATOM      2  C   UNL d   1     -48.271  13.760  22.700  0.00  0.00     0.167 A 
ATOM      3  C   UNL d   1     -47.120  12.916  22.614  0.00  0.00     0.152 A 
ATOM      4  N   UNL d   1     -47.304  15.094  22.504  0.00  0.00    -0.163 NA
ATOM      5  C   UNL d   1     -48.602  14.504  22.694  0.00  0.00     0.055 A 
ATOM      6  N   UNL d   1     -48.742  13.090  22.797  0.00  0.00    -0.227 NA
ATOM      7  C   UNL d   1     -47.614  12.231  22.715  0.00  0.00     0.057 A 
ATOM      8  C   UNL d   1     -48.130  15.182  22.597  0.00  0.00     0.104 A 
ATOM      9  C   UNL d   1     -48.412  12.343  22.803  0.00  0.00     0.086 A 
ATOM     10  C   UNL d   1     -48.461  15.922  22.592  0.00  0.00     0.023 C 
ENDROOT
BRANCH   5  11
ATOM     11  C   UNL d   1     -49.437  14.593  22.788  0.00  0.00     0.004 A 
ATOM     12  C   UNL d   1     -49.925  14.605  22.126  0.00  0.00     0.000 A 
ATOM     13  C   UNL d   1     -50.747  14.693  22.218  0.00  0.00     0.000 A 
ATOM     14  C   UNL d   1     -51.064  14.768  22.972  0.00  0.00     0.000 A 
ATOM     15  C   UNL d   1     -50.568  14.756  23.638  0.00  0.00     0.000 A 
ATOM     16  C   UNL d   1     -49.759  14.669  23.538  0.00  0.00     0.000 A 
ENDBRANCH   5  11
BRANCH   3  17
ATOM     17  N   UNL d   1     -46.272  12.820  22.519  0.00  0.00    -0.289 N 
ATOM     18  C   UNL d   1     -45.939  13.097  21.906  0.00  0.00     0.082 A 
ATOM     19  C   UNL d   1     -45.190  13.008  21.829  0.00  0.00     0.021 A 
ATOM     20  C   UNL d   1     -45.140  12.381  22.960  0.00  0.00     0.021 A 
ATOM     21  C   UNL d   1     -45.889  12.470  23.036  0.00  0.00     0.082 A 
ENDBRANCH   3  17
BRANCH   9  22
ATOM     22  C   UNL d   1     -48.913  11.640  22.905  0.00  0.00     0.018 C 
ATOM     23  C   UNL d   1     -49.235  11.242  22.201  0.00  0.00     0.002 C 
ATOM     24  C   UNL d   1     -49.088  11.342  23.698  0.00  0.00     0.002 C 
ENDBRANCH   9  22
TORSDOF 3
ENDMDL
MODEL 3
REMARK VINA RESULT:      -5.2      1.385      4.131
REMARK  3 active torsions:
REMARK  status: ('A' for Active; 'I' for Inactive)
REMARK    1  A    between atoms: N_10  and  C_3 
REMARK    2  A    between atoms: C_11  and  C_5 
REMARK    3  A    between atoms: C_12  and  C_9 
ROOT
ATOM      1  N   UNL d   1     -47.298  12.556  22.663  0.00  0.00    -0.196 N 
ATOM      2  C   UNL d   1     -48.101  12.783  22.712  0.00  0.00     0.167 A 
ATOM      3  C   UNL d   1     -46.730  13.126  22.497  0.00  0.00     0.152 A 
ATOM      4  N   UNL d   1     -47.664  11.199  22.946  0.00  0.00    -0.163 NA
ATOM      5  C   UNL d   1     -48.670  12.224  22.876  0.00  0.00     0.055 A 
ATOM      6  N   UNL d   1     -48.307  13.572  22.594  0.00  0.00    -0.227 NA
ATOM      7  C   UNL d   1     -46.952  13.939  22.377  0.00  0.00     0.057 A 
ATOM      8  C   UNL d   1     -48.467  11.426  22.995  0.00  0.00     0.104 A 
ATOM      9  C   UNL d   1     -47.737  14.134  22.430  0.00  0.00     0.086 A 
ATOM     10  C   UNL d   1     -49.035  10.872  23.158  0.00  0.00     0.023 C 
ENDROOT
BRANCH   5  11
ATOM     11  C   UNL d   1     -49.482  12.454  22.925  0.00  0.00     0.004 A 
ATOM     12  C   UNL d   1     -49.799  12.687  23.649  0.00  0.00     0.000 A 
ATOM     13  C   UNL d   1     -50.598  12.913  23.698  0.00  0.00     0.000 A 
ATOM     14  C   UNL d   1     -51.064  12.901  23.023  0.00  0.00     0.000 A 
ATOM     15  C   UNL d   1     -50.741  12.664  22.294  0.00  0.00     0.000 A 
ATOM     16  C   UNL d   1     -49.953  12.443  22.254  0.00  0.00     0.000 A 
ENDBRANCH   5  11
BRANCH   3  17
ATOM     17  N   UNL d   1     -45.904  12.898  22.446  0.00  0.00    -0.289 N 
ATOM     18  C   UNL d   1     -45.492  13.143  21.867  0.00  0.00     0.082 A 
ATOM     19  C   UNL d   1     -44.764  12.937  21.828  0.00  0.00     0.021 A 
ATOM     20  C   UNL d   1     -44.886  12.264  22.927  0.00  0.00     0.021 A 
ATOM     21  C   UNL d   1     -45.615  12.470  22.965  0.00  0.00     0.082 A 
ENDBRANCH   3  17
BRANCH   9  22
ATOM     22  C   UNL d   1     -47.959  14.965  22.307  0.00  0.00     0.018 C 
ATOM     23  C   UNL d   1     -48.226  15.221  21.518  0.00  0.00     0.002 C 
ATOM     24  C   UNL d   1     -47.916  15.529  22.961  0.00  0.00     0.002 C 
ENDBRANCH   9  22
TORSDOF 3
ENDMDL
MODEL 4
REMARK VINA RESULT:      -5.1      1.233      2.551
REMARK  3 active torsions:
REMARK  status: ('A' for Active; 'I' for Inactive)
REMARK    1  A    between atoms: N_10  and  C_3 
REMARK    2  A    between atoms: C_11  and  C_5 
REMARK    3  A    between atoms: C_12  and  C_9 
ROOT
ATOM      1  N   UNL d   1     -48.656  12.593  22.944  0.00  0.00    -0.196 N 
ATOM      2  C   UNL d   1     -47.945  13.018  22.831  0.00  0.00     0.167 A 
ATOM      3  C   UNL d   1     -49.374  12.968  22.802  0.00  0.00     0.152 A 
ATOM      4  N   UNL d   1     -47.904  11.438  23.336  0.00  0.00    -0.163 NA
ATOM      5  C   UNL d   1     -47.230  12.655  22.969  0.00  0.00     0.055 A 
ATOM      6  N   UNL d   1     -47.977  13.802  22.580  0.00  0.00    -0.227 NA
ATOM      7  C   UNL d   1     -49.397  13.778  22.543  0.00  0.00     0.057 A 
ATOM      8  C   UNL d   1     -47.193  11.863  23.223  0.00  0.00     0.104 A 
ATOM      9  C   UNL d   1     -48.695  14.169  22.440  0.00  0.00     0.086 A 
ATOM     10  C   UNL d   1     -46.480  11.503  23.360  0.00  0.00     0.023 C 
ENDROOT
BRANCH   5  11
ATOM     11  C   UNL d   1     -46.511  13.084  22.855  0.00  0.00     0.004 A 
ATOM     12  C   UNL d   1     -46.067  12.965  22.172  0.00  0.00     0.000 A 
ATOM     13  C   UNL d   1     -45.359  13.388  22.059  0.00  0.00     0.000 A 
ATOM     14  C   UNL d   1     -45.110  13.921  22.631  0.00  0.00     0.000 A 
ATOM     15  C   UNL d   1     -45.562  14.038  23.320  0.00  0.00     0.000 A 
ATOM     16  C   UNL d   1     -46.257  13.617  23.423  0.00  0.00     0.000 A 
ENDBRANCH   5  11
BRANCH   3  17
ATOM     17  N   UNL d   1     -50.107  12.536  22.917  0.00  0.00    -0.289 N 
ATOM     18  C   UNL d   1     -50.417  12.180  22.333  0.00  0.00     0.082 A 
ATOM     19  C   UNL d   1     -51.064  11.801  22.443  0.00  0.00     0.021 A 
ATOM     20  C   UNL d   1     -51.063  12.142  23.691  0.00  0.00     0.021 A 
ATOM     21  C   UNL d   1     -50.416  12.521  23.581  0.00  0.00     0.082 A 
ENDBRANCH   3  17
BRANCH   9  22
ATOM     22  C   UNL d   1     -48.723  14.996  22.175  0.00  0.00     0.018 C 
ATOM     23  C   UNL d   1     -48.849  15.626  22.763  0.00  0.00     0.002 C 
ATOM     24  C   UNL d   1     -48.627  15.188  21.338  0.00  0.00     0.002 C 
ENDBRANCH   9  22
TORSDOF 3
ENDMDL
MODEL 5
REMARK VINA RESULT:      -4.9      0.958      4.314
REMARK  3 active torsions:
REMARK  status: ('A' for Active; 'I' for Inactive)
REMARK    1  A    between atoms: N_10  and  C_3 
REMARK    2  A    between atoms: C_11  and  C_5 
REMARK    3  A    between atoms: C_12  and  C_9 
ROOT
ATOM      1  N   UNL d   1     -48.098  12.278  23.316  0.00  0.00    -0.196 N 
ATOM      2  C   UNL d   1     -48.642  12.893  23.161  0.00  0.00     0.167 A 
ATOM      3  C   UNL d   1     -47.294  12.418  23.212  0.00  0.00     0.152 A 
ATOM      4  N   UNL d   1     -49.180  11.408  23.671  0.00  0.00    -0.163 NA
ATOM      5  C   UNL d   1     -49.439  12.762  23.261  0.00  0.00     0.055 A 
ATOM      6  N   UNL d   1     -48.364  13.626  22.908  0.00  0.00    -0.227 NA
ATOM      7  C   UNL d   1     -47.016  13.178  22.950  0.00  0.00     0.057 A 
ATOM      8  C   UNL d   1     -49.725  12.023  23.517  0.00  0.00     0.104 A 
ATOM      9  C   UNL d   1     -47.564  13.759  22.807  0.00  0.00     0.086 A 
ATOM     10  C   UNL d   1     -50.519  11.896  23.616  0.00  0.00     0.023 C 
ENDROOT
BRANCH   5  11
ATOM     11  C   UNL d   1     -49.990  13.384  23.105  0.00  0.00     0.004 A 
ATOM     12  C   UNL d   1     -50.324  13.457  22.356  0.00  0.00     0.000 A 
ATOM     13  C   UNL d   1     -50.866  14.069  22.202  0.00  0.00     0.000 A 
ATOM     14  C   UNL d   1     -51.063  14.596  22.800  0.00  0.00     0.000 A 
ATOM     15  C   UNL d   1     -50.723  14.519  23.555  0.00  0.00     0.000 A 
ATOM     16  C   UNL d   1     -50.190  13.913  23.698  0.00  0.00     0.000 A 
ENDBRANCH   5  11
BRANCH   3  17
ATOM     17  N   UNL d   1     -46.731  11.790  23.370  0.00  0.00    -0.289 N 
ATOM     18  C   UNL d   1     -46.986  11.109  23.560  0.00  0.00     0.082 A 
ATOM     19  C   UNL d   1     -46.482  10.560  23.698  0.00  0.00     0.021 A 
ATOM     20  C   UNL d   1     -45.510  11.377  23.454  0.00  0.00     0.021 A 
ATOM     21  C   UNL d   1     -46.013  11.927  23.316  0.00  0.00     0.082 A 
ENDBRANCH   3  17
BRANCH   9  22
ATOM     22  C   UNL d   1     -47.275  14.534  22.540  0.00  0.00     0.018 C 
ATOM     23  C   UNL d   1     -46.649  14.934  22.993  0.00  0.00     0.002 C 
ATOM     24  C   UNL d   1     -47.608  14.901  21.831  0.00  0.00     0.002 C 
ENDBRANCH   9  22
TORSDOF 3
ENDMDL
MODEL 6
REMARK VINA RESULT:      -4.7      1.048      2.510
REMARK  3 active torsions:
REMARK  status: ('A' for Active; 'I' for Inactive)
REMARK    1  A    between atoms: N_10  and  C_3 
REMARK    2  A    between atoms: C_11  and  C_5 
REMARK    3  A    between atoms: C_12  and  C_9 
ROOT
ATOM      1  N   UNL d   1     -49.230  13.717  23.053  0.00  0.00    -0.196 N 
ATOM      2  C   UNL d   1     -48.602  13.167  23.000  0.00  0.00     0.167 A 
ATOM      3  C   UNL d   1     -49.072  14.517  22.946  0.00  0.00     0.152 A 
ATOM      4  N   UNL d   1     -50.146  12.647  23.316  0.00  0.00    -0.163 NA
ATOM      5  C   UNL d   1     -48.750  12.373  23.104  0.00  0.00     0.055 A 
ATOM      6  N   UNL d   1     -47.840  13.436  22.842  0.00  0.00    -0.227 NA
ATOM      7  C   UNL d   1     -48.281  14.785  22.784  0.00  0.00     0.057 A 
ATOM      8  C   UNL d   1     -49.518  12.096  23.263  0.00  0.00     0.104 A 
ATOM      9  C   UNL d   1     -47.690  14.233  22.737  0.00  0.00     0.086 A 
ATOM     10  C   UNL d   1     -49.663  11.306  23.366  0.00  0.00     0.023 C 
ENDROOT
BRANCH   5  11
ATOM     11  C   UNL d   1     -48.116  11.817  23.050  0.00  0.00     0.004 A 
ATOM     12  C   UNL d   1     -47.612  11.707  23.692  0.00  0.00     0.000 A 
ATOM     13  C   UNL d   1     -46.987  11.159  23.639  0.00  0.00     0.000 A 
ATOM     14  C   UNL d   1     -46.880  10.733  22.945  0.00  0.00     0.000 A 
ATOM     15  C   UNL d   1     -47.391  10.848  22.300  0.00  0.00     0.000 A 
ATOM     16  C   UNL d   1     -48.004  11.388  22.360  0.00  0.00     0.000 A 
ENDBRANCH   5  11
BRANCH   3  17
ATOM     17  N   UNL d   1     -49.712  15.085  23.000  0.00  0.00    -0.289 N 
ATOM     18  C   UNL d   1     -49.853  15.417  23.659  0.00  0.00     0.082 A 
ATOM     19  C   UNL d   1     -50.421  15.918  23.698  0.00  0.00     0.021 A 
ATOM     20  C   UNL d   1     -50.678  15.738  22.443  0.00  0.00     0.021 A 
ATOM     21  C   UNL d   1     -50.110  15.237  22.404  0.00  0.00     0.082 A 
ENDBRANCH   3  17
BRANCH   9  22
ATOM     22  C   UNL d   1     -46.883  14.512  22.571  0.00  0.00     0.018 C 
ATOM     23  C   UNL d   1     -46.360  14.718  23.236  0.00  0.00     0.002 C 
ATOM     24  C   UNL d   1     -46.607  14.583  21.755  0.00  0.00     0.002 C 
ENDBRANCH   9  22
TORSDOF 3
ENDMDL
MODEL 7
REMARK VINA RESULT:      -4.4      8.073     10.503
REMARK  3 active torsions:
REMARK  status: ('A' for Active; 'I' for Inactive)
REMARK    1  A    between atoms: N_10  and  C_3 
REMARK    2  A    between atoms: C_11  and  C_5 
REMARK    3  A    between atoms: C_12  and  C_9 
ROOT
ATOM      1  N   UNL d   1     -39.507  14.320  18.007  0.00  0.00    -0.196 N 
ATOM      2  C   UNL d   1     -39.815  14.486  18.766  0.00  0.00     0.167 A 
ATOM      3  C   UNL d   1     -38.767  13.967  17.943  0.00  0.00     0.152 A 
ATOM      4  N   UNL d   1     -40.689  14.867  17.408  0.00  0.00    -0.163 NA
ATOM      5  C   UNL d   1     -40.546  14.836  18.839  0.00  0.00     0.055 A 
ATOM      6  N   UNL d   1     -39.372  14.293  19.434  0.00  0.00    -0.227 NA
ATOM      7  C   UNL d   1     -38.318  13.771  18.638  0.00  0.00     0.057 A 
ATOM      8  C   UNL d   1     -40.997  15.033  18.167  0.00  0.00     0.104 A 
ATOM      9  C   UNL d   1     -38.638  13.942  19.363  0.00  0.00     0.086 A 
ATOM     10  C   UNL d   1     -41.725  15.381  18.241  0.00  0.00     0.023 C 
ENDROOT
BRANCH   5  11
ATOM     11  C   UNL d   1     -40.858  15.004  19.606  0.00  0.00     0.004 A 
ATOM     12  C   UNL d   1     -40.741  15.746  19.942  0.00  0.00     0.000 A 
ATOM     13  C   UNL d   1     -41.047  15.912  20.698  0.00  0.00     0.000 A 
ATOM     14  C   UNL d   1     -41.464  15.332  21.102  0.00  0.00     0.000 A 
ATOM     15  C   UNL d   1     -41.580  14.583  20.758  0.00  0.00     0.000 A 
ATOM     16  C   UNL d   1     -41.275  14.429  20.014  0.00  0.00     0.000 A 
ENDBRANCH   5  11
BRANCH   3  17
ATOM     17  N   UNL d   1     -38.447  13.794  17.166  0.00  0.00    -0.289 N 
ATOM     18  C   UNL d   1     -38.233  14.363  16.723  0.00  0.00     0.082 A 
ATOM     19  C   UNL d   1     -37.952  14.202  16.038  0.00  0.00     0.021 A 
ATOM     20  C   UNL d   1     -38.105  12.937  16.261  0.00  0.00     0.021 A 
ATOM     21  C   UNL d   1     -38.387  13.097  16.947  0.00  0.00     0.082 A 
ENDBRANCH   3  17
BRANCH   9  22
ATOM     22  C   UNL d   1     -38.175  13.740  20.070  0.00  0.00     0.018 C 
ATOM     23  C   UNL d   1     -37.952  12.910  20.210  0.00  0.00     0.002 C 
ATOM     24  C   UNL d   1     -37.940  14.358  20.627  0.00  0.00     0.002 C 
ENDBRANCH   9  22
TORSDOF 3
ENDMDL
MODEL 8
REMARK VINA RESULT:      -4.2      7.982     10.030
REMARK  3 active torsions:
REMARK  status: ('A' for Active; 'I' for Inactive)
REMARK    1  A    between atoms: N_10  and  C_3 
REMARK    2  A    between atoms: C_11  and  C_5 
REMARK    3  A    between atoms: C_12  and  C_9 
ROOT
ATOM      1  N   UNL d   1     -40.519  14.803  18.908  0.00  0.00    -0.196 N 
ATOM      2  C   UNL d   1     -39.907  14.712  18.345  0.00  0.00     0.167 A 
ATOM      3  C   UNL d   1     -40.440  14.450  19.647  0.00  0.00     0.152 A 
ATOM      4  N   UNL d   1     -41.261  15.595  17.973  0.00  0.00    -0.163 NA
ATOM      5  C   UNL d   1     -39.977  15.058  17.612  0.00  0.00     0.055 A 
ATOM      6  N   UNL d   1     -39.239  14.271  18.542  0.00  0.00    -0.227 NA
ATOM      7  C   UNL d   1     -39.746  13.997  19.840  0.00  0.00     0.057 A 
ATOM      8  C   UNL d   1     -40.650  15.503  17.410  0.00  0.00     0.104 A 
ATOM      9  C   UNL d   1     -39.167  13.923  19.278  0.00  0.00     0.086 A 
ATOM     10  C   UNL d   1     -40.717  15.847  16.679  0.00  0.00     0.023 C 
ENDROOT
BRANCH   5  11
ATOM     11  C   UNL d   1     -39.359  14.966  17.043  0.00  0.00     0.004 A 
ATOM     12  C   UNL d   1     -38.771  15.539  16.980  0.00  0.00     0.000 A 
ATOM     13  C   UNL d   1     -38.163  15.448  16.420  0.00  0.00     0.000 A 
ATOM     14  C   UNL d   1     -38.154  14.786  15.935  0.00  0.00     0.000 A 
ATOM     15  C   UNL d   1     -38.749  14.209  16.002  0.00  0.00     0.000 A 
ATOM     16  C   UNL d   1     -39.344  14.306  16.556  0.00  0.00     0.000 A 
ENDBRANCH   5  11
BRANCH   3  17
ATOM     17  N   UNL d   1     -41.065  14.541  20.227  0.00  0.00    -0.289 N 
ATOM     18  C   UNL d   1     -41.360  13.928  20.547  0.00  0.00     0.082 A 
ATOM     19  C   UNL d   1     -41.912  14.016  21.059  0.00  0.00     0.021 A 
ATOM     20  C   UNL d   1     -41.852  15.301  20.914  0.00  0.00     0.021 A 
ATOM     21  C   UNL d   1     -41.301  15.212  20.402  0.00  0.00     0.082 A 
ENDBRANCH   3  17
BRANCH   9  22
ATOM     22  C   UNL d   1     -38.460  13.459  19.479  0.00  0.00     0.018 C 
ATOM     23  C   UNL d   1     -38.283  12.736  19.027  0.00  0.00     0.002 C 
ATOM     24  C   UNL d   1     -37.941  13.714  20.122  0.00  0.00     0.002 C 
ENDBRANCH   9  22
TORSDOF 3
ENDMDL
