MODEL 1
REMARK VINA RESULT:      89.6      0.000      0.000
REMARK  7 active torsions:
REMARK  status: ('A' for Active; 'I' for Inactive)
REMARK    1  A    between atoms: S_3  and  N_1 
REMARK    2  A    between atoms: C_18  and  S_3 
REMARK    3  A    between atoms: C_8  and  C_4 
REMARK    4  A    between atoms: S_5  and  N_9 
REMARK    5  A    between atoms: C_12  and  C_6 
REMARK    6  A    between atoms: N_9  and  C_19 
REMARK    7  A    between atoms: C_26  and  C_18 
ROOT
ATOM      1  N   UNL d   1     -56.263 -99.987 -43.047  0.00  0.00    -0.152 N 
ATOM      2  N   UNL d   1     -56.293-100.353 -42.306  0.00  0.00    -0.155 NA
ATOM      3  C   UNL d   1     -55.520-100.148 -43.376  0.00  0.00     0.098 A 
ATOM      4  C   UNL d   1     -55.577-100.737 -42.178  0.00  0.00     0.104 A 
ATOM      5  C   UNL d   1     -55.102-100.608 -42.840  0.00  0.00     0.041 A 
ENDROOT
BRANCH   4   6
ATOM      6  C   UNL d   1     -55.371-101.169 -41.512  0.00  0.00     0.019 A 
ATOM      7  C   UNL d   1     -54.922-100.820 -40.924  0.00  0.00     0.003 A 
ATOM      8  C   UNL d   1     -54.714-101.255 -40.253  0.00  0.00     0.020 A 
ATOM      9  C   UNL d   1     -54.959-102.041 -40.175  0.00  0.00     0.093 A 
ATOM     10  C   UNL d   1     -55.412-102.386 -40.772  0.00  0.00     0.020 A 
ATOM     11  C   UNL d   1     -55.618-101.958 -41.436  0.00  0.00     0.003 A 
BRANCH   9  12
ATOM     12  N   UNL d   1     -54.748-102.467 -39.504  0.00  0.00    -0.162 NA
BRANCH  12  13
ATOM     13  S   UNL d   1     -54.909-102.180 -38.756  0.00  0.00     0.266 S 
ATOM     14  O   UNL d   1     -54.729-101.463 -39.126  0.00  0.00    -0.203 OA
ATOM     15  O   UNL d   1     -54.996-101.608 -38.166  0.00  0.00    -0.203 OA
ATOM     16  C   UNL d   1     -55.092-102.880 -38.366  0.00  0.00     0.165 C 
ENDBRANCH  12  13
ENDBRANCH   9  12
ENDBRANCH   4   6
BRANCH   1  17
ATOM     17  S   UNL d   1     -56.868 -99.544 -43.389  0.00  0.00     0.287 S 
ATOM     18  O   UNL d   1     -56.121 -99.562 -43.739  0.00  0.00    -0.198 OA
ATOM     19  O   UNL d   1     -57.138 -99.043 -43.983  0.00  0.00    -0.198 OA
BRANCH  17  20
ATOM     20  C   UNL d   1     -57.581 -99.568 -42.993  0.00  0.00     0.117 C 
BRANCH  20  21
ATOM     21  C   UNL d   1     -58.216 -99.114 -43.265  0.00  0.00     0.014 C 
ATOM     22  C   UNL d   1     -58.755 -99.443 -43.800  0.00  0.00     0.001 C 
ENDBRANCH  20  21
ENDBRANCH  17  20
ENDBRANCH   1  17
BRANCH   3  23
ATOM     23  C   UNL d   1     -55.258 -99.891 -44.105  0.00  0.00     0.046 A 
ATOM     24  C   UNL d   1     -55.302-100.419 -44.751  0.00  0.00     0.142 A 
ATOM     25  F   UNL d   1     -55.604-101.179 -44.642  0.00  0.00    -0.204 F 
ATOM     26  C   UNL d   1     -55.039-100.168 -45.497  0.00  0.00     0.030 A 
ATOM     27  C   UNL d   1     -54.755 -99.445 -45.587  0.00  0.00     0.002 A 
ATOM     28  C   UNL d   1     -54.711 -98.917 -44.941  0.00  0.00     0.000 A 
ATOM     29  C   UNL d   1     -54.954 -99.105 -44.184  0.00  0.00     0.004 A 
ENDBRANCH   3  23
TORSDOF 7
ENDMDL
