MODEL 1
REMARK VINA RESULT:      -2.9      0.000      0.000
REMARK  5 active torsions:
REMARK  status: ('A' for Active; 'I' for Inactive)
REMARK    1  A    between atoms: N_2  and  S_1 
REMARK    2  A    between atoms: C_4  and  S_1 
REMARK    3  A    between atoms: C_3  and  N_2 
REMARK    4  A    between atoms: N_7  and  C_3 
REMARK    5  A    between atoms: C_14  and  N_7 
ROOT
ATOM      1  S   UNL d   1      33.051  20.363 -22.097  0.00  0.00     0.287 S 
ATOM      2  O   UNL d   1      33.163  20.783 -22.808  0.00  0.00    -0.198 OA
ATOM      3  O   UNL d   1      32.936  19.955 -21.379  0.00  0.00    -0.198 OA
ENDROOT
BRANCH   1   4
ATOM      4  N   UNL d   1      33.223  19.648 -22.484  0.00  0.00    -0.128 NA
BRANCH   4   5
ATOM      5  C   UNL d   1      33.027  19.073 -23.054  0.00  0.00     0.232 C 
ATOM      6  S   UNL d   1      33.241  19.187 -23.840  0.00  0.00    -0.036 SA
BRANCH   5   7
ATOM      7  N   UNL d   1      32.619  18.392 -22.826  0.00  0.00    -0.217 NA
BRANCH   7   8
ATOM      8  C   UNL d   1      32.610  17.735 -23.323  0.00  0.00     0.084 A 
ATOM      9  C   UNL d   1      32.043  17.682 -23.919  0.00  0.00     0.019 A 
ATOM     10  C   UNL d   1      32.033  17.025 -24.417  0.00  0.00     0.002 A 
ATOM     11  C   UNL d   1      32.583  16.425 -24.323  0.00  0.00     0.000 A 
ATOM     12  C   UNL d   1      33.151  16.480 -23.724  0.00  0.00     0.002 A 
ATOM     13  C   UNL d   1      33.166  17.134 -23.224  0.00  0.00     0.019 A 
ENDBRANCH   7   8
ENDBRANCH   5   7
ENDBRANCH   4   5
ENDBRANCH   1   4
BRANCH   1  14
ATOM     14  C   UNL d   1      32.878  21.081 -21.709  0.00  0.00     0.105 A 
ATOM     15  C   UNL d   1      32.480  21.074 -20.980  0.00  0.00     0.013 A 
ATOM     16  C   UNL d   1      32.310  21.783 -20.596  0.00  0.00     0.001 A 
ATOM     17  C   UNL d   1      32.534  22.495 -20.936  0.00  0.00     0.000 A 
ATOM     18  C   UNL d   1      32.930  22.511 -21.661  0.00  0.00     0.001 A 
ATOM     19  C   UNL d   1      32.363  23.207 -20.551  0.00  0.00     0.000 C 
ATOM     20  C   UNL d   1      33.101  21.800 -22.046  0.00  0.00     0.013 A 
ENDBRANCH   1  14
TORSDOF 5
ENDMDL
MODEL 2
REMARK VINA RESULT:      -2.0      2.998      5.252
REMARK  5 active torsions:
REMARK  status: ('A' for Active; 'I' for Inactive)
REMARK    1  A    between atoms: N_2  and  S_1 
REMARK    2  A    between atoms: C_4  and  S_1 
REMARK    3  A    between atoms: C_3  and  N_2 
REMARK    4  A    between atoms: N_7  and  C_3 
REMARK    5  A    between atoms: C_14  and  N_7 
ROOT
ATOM      1  S   UNL d   1      30.445  16.790 -23.929  0.00  0.00     0.287 S 
ATOM      2  O   UNL d   1      30.796  16.146 -23.534  0.00  0.00    -0.198 OA
ATOM      3  O   UNL d   1      30.082  17.429 -24.323  0.00  0.00    -0.198 OA
ENDROOT
BRANCH   1   4
ATOM      4  N   UNL d   1      31.194  17.126 -24.059  0.00  0.00    -0.128 NA
BRANCH   4   5
ATOM      5  C   UNL d   1      31.981  17.052 -24.324  0.00  0.00     0.232 C 
ATOM      6  S   UNL d   1      32.138  16.661 -25.029  0.00  0.00    -0.036 SA
BRANCH   5   7
ATOM      7  N   UNL d   1      32.596  17.372 -23.876  0.00  0.00    -0.217 NA
BRANCH   7   8
ATOM      8  C   UNL d   1      32.799  18.165 -23.968  0.00  0.00     0.084 A 
ATOM      9  C   UNL d   1      33.037  18.442 -24.707  0.00  0.00     0.019 A 
ATOM     10  C   UNL d   1      33.241  19.235 -24.802  0.00  0.00     0.002 A 
ATOM     11  C   UNL d   1      33.209  19.750 -24.165  0.00  0.00     0.000 A 
ATOM     12  C   UNL d   1      32.970  19.470 -23.424  0.00  0.00     0.002 A 
ATOM     13  C   UNL d   1      32.765  18.679 -23.324  0.00  0.00     0.019 A 
ENDBRANCH   7   8
ENDBRANCH   5   7
ENDBRANCH   4   5
ENDBRANCH   1   4
BRANCH   1  14
ATOM     14  C   UNL d   1      29.694  16.452 -23.799  0.00  0.00     0.105 A 
ATOM     15  C   UNL d   1      29.069  16.615 -24.320  0.00  0.00     0.013 A 
ATOM     16  C   UNL d   1      28.326  16.281 -24.191  0.00  0.00     0.001 A 
ATOM     17  C   UNL d   1      28.207  15.788 -23.547  0.00  0.00     0.000 A 
ATOM     18  C   UNL d   1      28.824  15.620 -23.023  0.00  0.00     0.001 A 
ATOM     19  C   UNL d   1      27.462  15.453 -23.418  0.00  0.00     0.000 C 
ATOM     20  C   UNL d   1      29.568  15.954 -23.152  0.00  0.00     0.013 A 
ENDBRANCH   1  14
TORSDOF 5
ENDMDL
MODEL 3
REMARK VINA RESULT:      -1.7      2.304      4.983
REMARK  5 active torsions:
REMARK  status: ('A' for Active; 'I' for Inactive)
REMARK    1  A    between atoms: N_2  and  S_1 
REMARK    2  A    between atoms: C_4  and  S_1 
REMARK    3  A    between atoms: C_3  and  N_2 
REMARK    4  A    between atoms: N_7  and  C_3 
REMARK    5  A    between atoms: C_14  and  N_7 
ROOT
ATOM      1  S   UNL d   1      31.322  17.120 -23.894  0.00  0.00     0.287 S 
ATOM      2  O   UNL d   1      31.673  16.416 -23.623  0.00  0.00    -0.198 OA
ATOM      3  O   UNL d   1      30.958  17.820 -24.167  0.00  0.00    -0.198 OA
ENDROOT
BRANCH   1   4
ATOM      4  N   UNL d   1      32.053  17.512 -23.845  0.00  0.00    -0.128 NA
BRANCH   4   5
ATOM      5  C   UNL d   1      32.585  18.083 -24.138  0.00  0.00     0.232 C 
ATOM      6  S   UNL d   1      32.452  18.426 -24.873  0.00  0.00    -0.036 SA
BRANCH   5   7
ATOM      7  N   UNL d   1      33.241  18.301 -23.686  0.00  0.00    -0.217 NA
BRANCH   7   8
ATOM      8  C   UNL d   1      33.228  19.006 -23.260  0.00  0.00     0.084 A 
ATOM      9  C   UNL d   1      33.239  19.726 -23.661  0.00  0.00     0.019 A 
ATOM     10  C   UNL d   1      33.226  20.432 -23.237  0.00  0.00     0.002 A 
ATOM     11  C   UNL d   1      33.203  20.423 -22.417  0.00  0.00     0.000 A 
ATOM     12  C   UNL d   1      33.192  19.699 -22.016  0.00  0.00     0.002 A 
ATOM     13  C   UNL d   1      33.204  18.991 -22.436  0.00  0.00     0.019 A 
ENDBRANCH   7   8
ENDBRANCH   5   7
ENDBRANCH   4   5
ENDBRANCH   1   4
BRANCH   1  14
ATOM     14  C   UNL d   1      30.588  16.727 -23.944  0.00  0.00     0.105 A 
ATOM     15  C   UNL d   1      30.034  16.951 -24.521  0.00  0.00     0.013 A 
ATOM     16  C   UNL d   1      29.308  16.563 -24.569  0.00  0.00     0.001 A 
ATOM     17  C   UNL d   1      29.136  15.955 -24.046  0.00  0.00     0.000 A 
ATOM     18  C   UNL d   1      29.681  15.726 -23.469  0.00  0.00     0.001 A 
ATOM     19  C   UNL d   1      28.408  15.565 -24.095  0.00  0.00     0.000 C 
ATOM     20  C   UNL d   1      30.408  16.115 -23.420  0.00  0.00     0.013 A 
ENDBRANCH   1  14
TORSDOF 5
ENDMDL
MODEL 4
REMARK VINA RESULT:      -0.3      0.935      4.868
REMARK  5 active torsions:
REMARK  status: ('A' for Active; 'I' for Inactive)
REMARK    1  A    between atoms: N_2  and  S_1 
REMARK    2  A    between atoms: C_4  and  S_1 
REMARK    3  A    between atoms: C_3  and  N_2 
REMARK    4  A    between atoms: N_7  and  C_3 
REMARK    5  A    between atoms: C_14  and  N_7 
ROOT
ATOM      1  S   UNL d   1      32.921  19.787 -22.554  0.00  0.00     0.287 S 
ATOM      2  O   UNL d   1      32.602  19.349 -21.921  0.00  0.00    -0.198 OA
ATOM      3  O   UNL d   1      33.241  20.213 -23.196  0.00  0.00    -0.198 OA
ENDROOT
BRANCH   1   4
ATOM      4  N   UNL d   1      32.870  20.485 -22.107  0.00  0.00    -0.128 NA
BRANCH   4   5
ATOM      5  C   UNL d   1      32.742  20.864 -21.375  0.00  0.00     0.232 C 
ATOM      6  S   UNL d   1      33.241  20.705 -20.741  0.00  0.00    -0.036 SA
BRANCH   5   7
ATOM      7  N   UNL d   1      32.116  21.395 -21.293  0.00  0.00    -0.217 NA
BRANCH   7   8
ATOM      8  C   UNL d   1      32.263  22.163 -21.032  0.00  0.00     0.084 A 
ATOM      9  C   UNL d   1      32.219  22.791 -21.564  0.00  0.00     0.019 A 
ATOM     10  C   UNL d   1      32.366  23.559 -21.304  0.00  0.00     0.002 A 
ATOM     11  C   UNL d   1      32.554  23.702 -20.519  0.00  0.00     0.000 A 
ATOM     12  C   UNL d   1      32.598  23.071 -19.987  0.00  0.00     0.002 A 
ATOM     13  C   UNL d   1      32.452  22.301 -20.241  0.00  0.00     0.019 A 
ENDBRANCH   7   8
ENDBRANCH   5   7
ENDBRANCH   4   5
ENDBRANCH   1   4
BRANCH   1  14
ATOM     14  C   UNL d   1      32.972  19.086 -23.004  0.00  0.00     0.105 A 
ATOM     15  C   UNL d   1      32.802  19.099 -23.817  0.00  0.00     0.013 A 
ATOM     16  C   UNL d   1      32.852  18.407 -24.261  0.00  0.00     0.001 A 
ATOM     17  C   UNL d   1      33.070  17.704 -23.897  0.00  0.00     0.000 A 
ATOM     18  C   UNL d   1      33.241  17.682 -23.088  0.00  0.00     0.001 A 
ATOM     19  C   UNL d   1      33.121  17.009 -24.342  0.00  0.00     0.000 C 
ATOM     20  C   UNL d   1      33.190  18.376 -22.644  0.00  0.00     0.013 A 
ENDBRANCH   1  14
TORSDOF 5
ENDMDL
