MODEL 1
REMARK VINA RESULT:      -6.2      0.000      0.000
REMARK  8 active torsions:
REMARK  status: ('A' for Active; 'I' for Inactive)
REMARK    1  A    between atoms: N_5  and  S_1 
REMARK    2  A    between atoms: C_8  and  S_1 
REMARK    3  A    between atoms: C_2  and  N_10 
REMARK    4  A    between atoms: C_9  and  N_5 
REMARK    5  A    between atoms: C_13  and  C_9 
REMARK    6  A    between atoms: N_10  and  O_14 
REMARK    7  A    between atoms: C_17  and  C_13 
REMARK    8  A    between atoms: O_14  and  C_17 
ROOT
ATOM      1  C   UNL d   1     -44.223  12.778  22.187  0.00  0.00     0.193 C 
ENDROOT
BRANCH   1   2
ATOM      2  O   UNL d   1     -45.028  12.958  22.233  0.00  0.00    -0.206 OA
BRANCH   2   3
ATOM      3  N   UNL d   1     -45.382  13.086  22.974  0.00  0.00    -0.126 NA
BRANCH   3   4
ATOM      4  C   UNL d   1     -46.205  13.077  23.045  0.00  0.00     0.108 A 
ATOM      5  C   UNL d   1     -46.672  12.429  23.275  0.00  0.00     0.020 A 
ATOM      6  C   UNL d   1     -47.458  12.674  23.268  0.00  0.00     0.002 A 
ATOM      7  C   UNL d   1     -46.470  11.665  23.484  0.00  0.00     0.002 A 
ATOM      8  C   UNL d   1     -48.055  12.135  23.477  0.00  0.00     0.000 A 
ATOM      9  C   UNL d   1     -47.490  13.458  23.039  0.00  0.00     0.002 A 
ATOM     10  C   UNL d   1     -47.854  11.366  23.687  0.00  0.00     0.000 A 
ATOM     11  C   UNL d   1     -47.059  11.125  23.693  0.00  0.00     0.000 A 
ATOM     12  C   UNL d   1     -46.716  13.714  22.899  0.00  0.00     0.020 A 
ATOM     13  C   UNL d   1     -48.115  13.980  22.937  0.00  0.00     0.000 A 
ATOM     14  C   UNL d   1     -46.568  14.487  22.658  0.00  0.00     0.002 A 
ATOM     15  C   UNL d   1     -47.203  15.012  22.556  0.00  0.00     0.000 A 
ATOM     16  C   UNL d   1     -47.975  14.753  22.697  0.00  0.00     0.000 A 
ENDBRANCH   3   4
ENDBRANCH   2   3
ENDBRANCH   1   2
BRANCH   1  17
ATOM     17  C   UNL d   1     -43.805  12.936  21.497  0.00  0.00     0.240 C 
ATOM     18  O   UNL d   1     -44.085  12.657  20.772  0.00  0.00    -0.283 OA
BRANCH  17  19
ATOM     19  C   UNL d   1     -43.183  13.257  21.052  0.00  0.00     0.136 C 
BRANCH  19  20
ATOM     20  N   UNL d   1     -42.403  13.136  21.307  0.00  0.00    -0.225 N 
ATOM     21  C   UNL d   1     -42.060  12.552  21.770  0.00  0.00     0.111 C 
BRANCH  20  22
ATOM     22  S   UNL d   1     -41.810  13.669  21.088  0.00  0.00     0.272 S 
ATOM     23  O   UNL d   1     -41.532  13.394  21.822  0.00  0.00    -0.200 OA
ATOM     24  O   UNL d   1     -41.906  14.058  20.367  0.00  0.00    -0.200 OA
BRANCH  22  25
ATOM     25  C   UNL d   1     -41.375  14.226  20.663  0.00  0.00     0.104 A 
ATOM     26  C   UNL d   1     -41.026  14.015  19.944  0.00  0.00     0.013 A 
ATOM     27  C   UNL d   1     -40.593  14.569  19.521  0.00  0.00     0.007 A 
ATOM     28  C   UNL d   1     -40.505  15.342  19.814  0.00  0.00     0.035 A 
ATOM     29  C   UNL d   1     -40.876  15.504  20.542  0.00  0.00     0.007 A 
ATOM     30 BR   UNL d   1     -40.076  15.914  19.407  0.00  0.00    -0.049 Br
ATOM     31  C   UNL d   1     -41.317  14.975  20.994  0.00  0.00     0.013 A 
ENDBRANCH  22  25
ENDBRANCH  20  22
ENDBRANCH  19  20
ENDBRANCH  17  19
ENDBRANCH   1  17
TORSDOF 8
ENDMDL
MODEL 2
REMARK VINA RESULT:      -5.9      2.019      6.374
REMARK  8 active torsions:
REMARK  status: ('A' for Active; 'I' for Inactive)
REMARK    1  A    between atoms: N_5  and  S_1 
REMARK    2  A    between atoms: C_8  and  S_1 
REMARK    3  A    between atoms: C_2  and  N_10 
REMARK    4  A    between atoms: C_9  and  N_5 
REMARK    5  A    between atoms: C_13  and  C_9 
REMARK    6  A    between atoms: N_10  and  O_14 
REMARK    7  A    between atoms: C_17  and  C_13 
REMARK    8  A    between atoms: O_14  and  C_17 
ROOT
ATOM      1  C   UNL d   1     -42.477  13.094  21.433  0.00  0.00     0.193 C 
ENDROOT
BRANCH   1   2
ATOM      2  O   UNL d   1     -42.048  13.648  20.996  0.00  0.00    -0.206 OA
BRANCH   2   3
ATOM      3  N   UNL d   1     -41.223  13.570  20.922  0.00  0.00    -0.126 NA
BRANCH   3   4
ATOM      4  C   UNL d   1     -40.773  14.197  20.630  0.00  0.00     0.108 A 
ATOM      5  C   UNL d   1     -40.689  14.411  19.831  0.00  0.00     0.020 A 
ATOM      6  C   UNL d   1     -40.191  15.067  19.801  0.00  0.00     0.002 A 
ATOM      7  C   UNL d   1     -41.002  14.089  19.149  0.00  0.00     0.002 A 
ATOM      8  C   UNL d   1     -40.006  15.405  19.065  0.00  0.00     0.000 A 
ATOM      9  C   UNL d   1     -39.966  15.264  20.562  0.00  0.00     0.002 A 
ATOM     10  C   UNL d   1     -40.321  15.082  18.378  0.00  0.00     0.000 A 
ATOM     11  C   UNL d   1     -40.822  14.420  18.415  0.00  0.00     0.000 A 
ATOM     12  C   UNL d   1     -40.323  14.729  21.081  0.00  0.00     0.020 A 
ATOM     13  C   UNL d   1     -39.483  15.858  20.859  0.00  0.00     0.000 A 
ATOM     14  C   UNL d   1     -40.199  14.786  21.892  0.00  0.00     0.002 A 
ATOM     15  C   UNL d   1     -39.711  15.388  22.190  0.00  0.00     0.000 A 
ATOM     16  C   UNL d   1     -39.355  15.922  21.669  0.00  0.00     0.000 A 
ENDBRANCH   3   4
ENDBRANCH   2   3
ENDBRANCH   1   2
BRANCH   1  17
ATOM     17  C   UNL d   1     -43.276  12.980  21.279  0.00  0.00     0.240 C 
ATOM     18  O   UNL d   1     -43.512  12.569  20.603  0.00  0.00    -0.283 OA
BRANCH  17  19
ATOM     19  C   UNL d   1     -44.088  13.049  21.434  0.00  0.00     0.136 C 
BRANCH  19  20
ATOM     20  N   UNL d   1     -44.410  12.649  22.085  0.00  0.00    -0.225 N 
ATOM     21  C   UNL d   1     -44.120  12.040  22.554  0.00  0.00     0.111 C 
BRANCH  20  22
ATOM     22  S   UNL d   1     -45.160  12.853  22.367  0.00  0.00     0.272 S 
ATOM     23  O   UNL d   1     -44.942  12.240  22.885  0.00  0.00    -0.200 OA
ATOM     24  O   UNL d   1     -45.552  13.461  21.972  0.00  0.00    -0.200 OA
BRANCH  22  25
ATOM     25  C   UNL d   1     -45.890  13.227  22.451  0.00  0.00     0.104 A 
ATOM     26  C   UNL d   1     -46.572  12.870  22.151  0.00  0.00     0.013 A 
ATOM     27  C   UNL d   1     -47.299  13.242  22.235  0.00  0.00     0.007 A 
ATOM     28  C   UNL d   1     -47.349  13.977  22.621  0.00  0.00     0.035 A 
ATOM     29  C   UNL d   1     -46.633  14.294  22.905  0.00  0.00     0.007 A 
ATOM     30 BR   UNL d   1     -48.066  14.368  22.717  0.00  0.00    -0.049 Br
ATOM     31  C   UNL d   1     -45.887  13.951  22.839  0.00  0.00     0.013 A 
ENDBRANCH  22  25
ENDBRANCH  20  22
ENDBRANCH  19  20
ENDBRANCH  17  19
ENDBRANCH   1  17
TORSDOF 8
ENDMDL
MODEL 3
REMARK VINA RESULT:      -5.8      1.975      6.397
REMARK  8 active torsions:
REMARK  status: ('A' for Active; 'I' for Inactive)
REMARK    1  A    between atoms: N_5  and  S_1 
REMARK    2  A    between atoms: C_8  and  S_1 
REMARK    3  A    between atoms: C_2  and  N_10 
REMARK    4  A    between atoms: C_9  and  N_5 
REMARK    5  A    between atoms: C_13  and  C_9 
REMARK    6  A    between atoms: N_10  and  O_14 
REMARK    7  A    between atoms: C_17  and  C_13 
REMARK    8  A    between atoms: O_14  and  C_17 
ROOT
ATOM      1  C   UNL d   1     -42.406  13.069  21.432  0.00  0.00     0.193 C 
ENDROOT
BRANCH   1   2
ATOM      2  O   UNL d   1     -41.988  13.636  21.000  0.00  0.00    -0.206 OA
BRANCH   2   3
ATOM      3  N   UNL d   1     -41.169  13.551  20.888  0.00  0.00    -0.126 NA
BRANCH   3   4
ATOM      4  C   UNL d   1     -40.723  14.185  20.601  0.00  0.00     0.108 A 
ATOM      5  C   UNL d   1     -40.282  14.722  21.057  0.00  0.00     0.020 A 
ATOM      6  C   UNL d   1     -39.931  15.257  20.540  0.00  0.00     0.002 A 
ATOM      7  C   UNL d   1     -40.166  14.778  21.864  0.00  0.00     0.002 A 
ATOM      8  C   UNL d   1     -39.452  15.863  20.844  0.00  0.00     0.000 A 
ATOM      9  C   UNL d   1     -40.144  15.065  19.774  0.00  0.00     0.002 A 
ATOM     10  C   UNL d   1     -39.334  15.922  21.655  0.00  0.00     0.000 A 
ATOM     11  C   UNL d   1     -39.691  15.379  22.172  0.00  0.00     0.000 A 
ATOM     12  C   UNL d   1     -40.635  14.401  19.805  0.00  0.00     0.020 A 
ATOM     13  C   UNL d   1     -39.960  15.401  19.047  0.00  0.00     0.000 A 
ATOM     14  C   UNL d   1     -40.942  14.074  19.115  0.00  0.00     0.002 A 
ATOM     15  C   UNL d   1     -40.754  14.415  18.382  0.00  0.00     0.000 A 
ATOM     16  C   UNL d   1     -40.263  15.080  18.354  0.00  0.00     0.000 A 
ENDBRANCH   3   4
ENDBRANCH   2   3
ENDBRANCH   1   2
BRANCH   1  17
ATOM     17  C   UNL d   1     -43.206  12.950  21.288  0.00  0.00     0.240 C 
ATOM     18  O   UNL d   1     -43.449  12.558  20.603  0.00  0.00    -0.283 OA
BRANCH  17  19
ATOM     19  C   UNL d   1     -44.016  13.005  21.458  0.00  0.00     0.136 C 
BRANCH  19  20
ATOM     20  N   UNL d   1     -44.321  12.589  22.108  0.00  0.00    -0.225 N 
ATOM     21  C   UNL d   1     -44.010  11.983  22.567  0.00  0.00     0.111 C 
BRANCH  20  22
ATOM     22  S   UNL d   1     -45.073  12.770  22.398  0.00  0.00     0.272 S 
ATOM     23  O   UNL d   1     -44.860  12.116  22.866  0.00  0.00    -0.200 OA
ATOM     24  O   UNL d   1     -45.463  13.408  22.051  0.00  0.00    -0.200 OA
BRANCH  22  25
ATOM     25  C   UNL d   1     -45.805  13.136  22.506  0.00  0.00     0.104 A 
ATOM     26  C   UNL d   1     -45.841  13.950  22.637  0.00  0.00     0.013 A 
ATOM     27  C   UNL d   1     -46.569  14.315  22.745  0.00  0.00     0.007 A 
ATOM     28  C   UNL d   1     -47.267  13.865  22.723  0.00  0.00     0.035 A 
ATOM     29  C   UNL d   1     -47.176  13.049  22.587  0.00  0.00     0.007 A 
ATOM     30 BR   UNL d   1     -48.008  14.209  22.828  0.00  0.00    -0.049 Br
ATOM     31  C   UNL d   1     -46.465  12.648  22.475  0.00  0.00     0.013 A 
ENDBRANCH  22  25
ENDBRANCH  20  22
ENDBRANCH  19  20
ENDBRANCH  17  19
ENDBRANCH   1  17
TORSDOF 8
ENDMDL
MODEL 4
REMARK VINA RESULT:      -4.4      1.129      2.319
REMARK  8 active torsions:
REMARK  status: ('A' for Active; 'I' for Inactive)
REMARK    1  A    between atoms: N_5  and  S_1 
REMARK    2  A    between atoms: C_8  and  S_1 
REMARK    3  A    between atoms: C_2  and  N_10 
REMARK    4  A    between atoms: C_9  and  N_5 
REMARK    5  A    between atoms: C_13  and  C_9 
REMARK    6  A    between atoms: N_10  and  O_14 
REMARK    7  A    between atoms: C_17  and  C_13 
REMARK    8  A    between atoms: O_14  and  C_17 
ROOT
ATOM      1  C   UNL d   1     -45.684  12.896  22.502  0.00  0.00     0.193 C 
ENDROOT
BRANCH   1   2
ATOM      2  O   UNL d   1     -46.456  13.188  22.468  0.00  0.00    -0.206 OA
BRANCH   2   3
ATOM      3  N   UNL d   1     -46.921  13.210  23.157  0.00  0.00    -0.126 NA
BRANCH   3   4
ATOM      4  C   UNL d   1     -47.745  13.218  23.099  0.00  0.00     0.108 A 
ATOM      5  C   UNL d   1     -48.217  13.867  22.883  0.00  0.00     0.020 A 
ATOM      6  C   UNL d   1     -49.002  13.621  22.899  0.00  0.00     0.002 A 
ATOM      7  C   UNL d   1     -48.020  14.634  22.680  0.00  0.00     0.002 A 
ATOM      8  C   UNL d   1     -49.603  14.161  22.706  0.00  0.00     0.000 A 
ATOM      9  C   UNL d   1     -49.029  12.833  23.119  0.00  0.00     0.002 A 
ATOM     10  C   UNL d   1     -49.407  14.933  22.502  0.00  0.00     0.000 A 
ATOM     11  C   UNL d   1     -48.613  15.175  22.488  0.00  0.00     0.000 A 
ATOM     12  C   UNL d   1     -48.253  12.577  23.245  0.00  0.00     0.020 A 
ATOM     13  C   UNL d   1     -49.652  12.309  23.224  0.00  0.00     0.000 A 
ATOM     14  C   UNL d   1     -48.099  11.802  23.474  0.00  0.00     0.002 A 
ATOM     15  C   UNL d   1     -48.731  11.274  23.579  0.00  0.00     0.000 A 
ATOM     16  C   UNL d   1     -49.506  11.533  23.453  0.00  0.00     0.000 A 
ENDBRANCH   3   4
ENDBRANCH   2   3
ENDBRANCH   1   2
BRANCH   1  17
ATOM     17  C   UNL d   1     -45.077  13.295  22.118  0.00  0.00     0.240 C 
ATOM     18  O   UNL d   1     -45.049  14.120  22.134  0.00  0.00    -0.283 OA
BRANCH  17  19
ATOM     19  C   UNL d   1     -44.385  13.353  21.664  0.00  0.00     0.136 C 
BRANCH  19  20
ATOM     20  N   UNL d   1     -43.780  12.797  21.779  0.00  0.00    -0.225 N 
ATOM     21  C   UNL d   1     -43.763  12.078  22.176  0.00  0.00     0.111 C 
BRANCH  20  22
ATOM     22  S   UNL d   1     -43.030  12.930  21.459  0.00  0.00     0.272 S 
ATOM     23  O   UNL d   1     -43.078  12.099  21.447  0.00  0.00    -0.200 OA
ATOM     24  O   UNL d   1     -42.790  13.715  21.387  0.00  0.00    -0.200 OA
BRANCH  22  25
ATOM     25  C   UNL d   1     -42.353  13.310  21.182  0.00  0.00     0.104 A 
ATOM     26  C   UNL d   1     -42.308  13.545  20.391  0.00  0.00     0.013 A 
ATOM     27  C   UNL d   1     -41.634  13.923  20.114  0.00  0.00     0.007 A 
ATOM     28  C   UNL d   1     -40.998  14.070  20.628  0.00  0.00     0.035 A 
ATOM     29  C   UNL d   1     -41.093  13.814  21.415  0.00  0.00     0.007 A 
ATOM     30 BR   UNL d   1     -40.313  14.448  20.373  0.00  0.00    -0.049 Br
ATOM     31  C   UNL d   1     -41.752  13.432  21.728  0.00  0.00     0.013 A 
ENDBRANCH  22  25
ENDBRANCH  20  22
ENDBRANCH  19  20
ENDBRANCH  17  19
ENDBRANCH   1  17
TORSDOF 8
ENDMDL
MODEL 5
REMARK VINA RESULT:      -4.2      1.473      2.307
REMARK  8 active torsions:
REMARK  status: ('A' for Active; 'I' for Inactive)
REMARK    1  A    between atoms: N_5  and  S_1 
REMARK    2  A    between atoms: C_8  and  S_1 
REMARK    3  A    between atoms: C_2  and  N_10 
REMARK    4  A    between atoms: C_9  and  N_5 
REMARK    5  A    between atoms: C_13  and  C_9 
REMARK    6  A    between atoms: N_10  and  O_14 
REMARK    7  A    between atoms: C_17  and  C_13 
REMARK    8  A    between atoms: O_14  and  C_17 
ROOT
ATOM      1  C   UNL d   1     -42.907  13.493  21.403  0.00  0.00     0.193 C 
ENDROOT
BRANCH   1   2
ATOM      2  O   UNL d   1     -43.264  12.902  21.856  0.00  0.00    -0.206 OA
BRANCH   2   3
ATOM      3  N   UNL d   1     -43.995  12.583  21.621  0.00  0.00    -0.126 NA
BRANCH   3   4
ATOM      4  C   UNL d   1     -44.537  12.327  22.190  0.00  0.00     0.108 A 
ATOM      5  C   UNL d   1     -44.476  11.639  22.651  0.00  0.00     0.020 A 
ATOM      6  C   UNL d   1     -45.138  11.609  23.140  0.00  0.00     0.002 A 
ATOM      7  C   UNL d   1     -43.906  11.054  22.678  0.00  0.00     0.002 A 
ATOM      8  C   UNL d   1     -45.226  10.973  23.668  0.00  0.00     0.000 A 
ATOM      9  C   UNL d   1     -45.607  12.262  22.993  0.00  0.00     0.002 A 
ATOM     10  C   UNL d   1     -44.654  10.384  23.696  0.00  0.00     0.000 A 
ATOM     11  C   UNL d   1     -43.989  10.420  23.200  0.00  0.00     0.000 A 
ATOM     12  C   UNL d   1     -45.240  12.712  22.404  0.00  0.00     0.020 A 
ATOM     13  C   UNL d   1     -46.321  12.514  23.311  0.00  0.00     0.000 A 
ATOM     14  C   UNL d   1     -45.583  13.410  22.135  0.00  0.00     0.002 A 
ATOM     15  C   UNL d   1     -46.304  13.662  22.459  0.00  0.00     0.000 A 
ATOM     16  C   UNL d   1     -46.669  13.210  23.048  0.00  0.00     0.000 A 
ENDBRANCH   3   4
ENDBRANCH   2   3
ENDBRANCH   1   2
BRANCH   1  17
ATOM     17  C   UNL d   1     -42.093  13.492  21.293  0.00  0.00     0.240 C 
ATOM     18  O   UNL d   1     -41.591  13.306  21.923  0.00  0.00    -0.283 OA
BRANCH  17  19
ATOM     19  C   UNL d   1     -41.393  13.582  20.856  0.00  0.00     0.136 C 
BRANCH  19  20
ATOM     20  N   UNL d   1     -41.188  14.334  20.576  0.00  0.00    -0.225 N 
ATOM     21  C   UNL d   1     -41.413  15.088  20.811  0.00  0.00     0.111 C 
BRANCH  20  22
ATOM     22  S   UNL d   1     -40.661  14.410  19.944  0.00  0.00     0.272 S 
ATOM     23  O   UNL d   1     -40.274  14.838  20.544  0.00  0.00    -0.200 OA
ATOM     24  O   UNL d   1     -40.872  14.044  19.237  0.00  0.00    -0.200 OA
BRANCH  22  25
ATOM     25  C   UNL d   1     -40.318  14.342  19.197  0.00  0.00     0.104 A 
ATOM     26  C   UNL d   1     -39.629  13.898  19.099  0.00  0.00     0.013 A 
ATOM     27  C   UNL d   1     -39.287  13.829  18.356  0.00  0.00     0.007 A 
ATOM     28  C   UNL d   1     -39.635  14.207  17.702  0.00  0.00     0.035 A 
ATOM     29  C   UNL d   1     -40.329  14.643  17.853  0.00  0.00     0.007 A 
ATOM     30 BR   UNL d   1     -39.311  14.153  16.948  0.00  0.00    -0.049 Br
ATOM     31  C   UNL d   1     -40.699  14.734  18.583  0.00  0.00     0.013 A 
ENDBRANCH  22  25
ENDBRANCH  20  22
ENDBRANCH  19  20
ENDBRANCH  17  19
ENDBRANCH   1  17
TORSDOF 8
ENDMDL
