MODEL 1
REMARK VINA RESULT:      -2.0      0.000      0.000
REMARK  5 active torsions:
REMARK  status: ('A' for Active; 'I' for Inactive)
REMARK       I    between atoms: C_4  and  N_1 
REMARK    1  A    between atoms: C_8  and  C_3 
REMARK    2  A    between atoms: C_9  and  C_4 
REMARK    3  A    between atoms: S_5  and  N_10 
REMARK    4  A    between atoms: C_11  and  C_6 
REMARK    5  A    between atoms: N_10  and  C_22 
ROOT
ATOM      1  N   UNL d   1      32.711  22.183 -22.066  0.00  0.00    -0.193 N 
ATOM      2  N   UNL d   1      32.792  21.587 -22.634  0.00  0.00    -0.163 NA
ATOM      3  C   UNL d   1      32.738  21.823 -21.319  0.00  0.00     0.090 A 
ATOM      4  C   UNL d   1      32.621  22.988 -22.224  0.00  0.00     0.303 C 
ATOM      5  C   UNL d   1      32.867  20.865 -22.243  0.00  0.00     0.103 A 
ATOM      6  C   UNL d   1      32.833  21.016 -21.432  0.00  0.00     0.040 A 
ATOM      7  O   UNL d   1      32.546  23.517 -21.592  0.00  0.00    -0.263 OA
ENDROOT
BRANCH   5   8
ATOM      8  C   UNL d   1      32.960  20.129 -22.596  0.00  0.00     0.019 A 
ATOM      9  C   UNL d   1      33.052  20.077 -23.407  0.00  0.00     0.003 A 
ATOM     10  C   UNL d   1      33.145  19.335 -23.764  0.00  0.00     0.020 A 
ATOM     11  C   UNL d   1      33.145  18.649 -23.300  0.00  0.00     0.093 A 
ATOM     12  C   UNL d   1      33.052  18.711 -22.482  0.00  0.00     0.020 A 
ATOM     13  C   UNL d   1      32.959  19.442 -22.128  0.00  0.00     0.003 A 
BRANCH  11  14
ATOM     14  N   UNL d   1      33.239  17.915 -23.662  0.00  0.00    -0.162 NA
BRANCH  14  15
ATOM     15  S   UNL d   1      32.614  17.389 -23.715  0.00  0.00     0.266 S 
ATOM     16  O   UNL d   1      33.148  16.906 -23.307  0.00  0.00    -0.203 OA
ATOM     17  O   UNL d   1      32.214  16.675 -23.602  0.00  0.00    -0.203 OA
ATOM     18  C   UNL d   1      32.067  17.849 -24.120  0.00  0.00     0.165 C 
ENDBRANCH  14  15
ENDBRANCH  11  14
ENDBRANCH   5   8
BRANCH   3  19
ATOM     19  C   UNL d   1      32.678  22.212 -20.603  0.00  0.00     0.045 A 
ATOM     20  C   UNL d   1      32.059  21.995 -20.083  0.00  0.00     0.141 A 
ATOM     21  F   UNL d   1      31.529  21.401 -20.301  0.00  0.00    -0.204 F 
ATOM     22  C   UNL d   1      31.990  22.384 -19.353  0.00  0.00     0.030 A 
ATOM     23  C   UNL d   1      32.500  22.945 -19.159  0.00  0.00     0.002 A 
ATOM     24  C   UNL d   1      33.119  23.163 -19.678  0.00  0.00     0.000 A 
ATOM     25  C   UNL d   1      33.240  22.818 -20.410  0.00  0.00     0.004 A 
ENDBRANCH   3  19
BRANCH   4  26
ATOM     26  C   UNL d   1      32.605  23.255 -22.991  0.00  0.00     0.158 A 
ATOM     27  O   UNL d   1      31.914  23.418 -23.442  0.00  0.00    -0.300 OA
ATOM     28  C   UNL d   1      32.161  23.675 -24.187  0.00  0.00     0.123 A 
ATOM     29  C   UNL d   1      32.982  23.672 -24.201  0.00  0.00     0.029 A 
ATOM     30  C   UNL d   1      33.241  23.411 -23.458  0.00  0.00     0.032 A 
ENDBRANCH   4  26
TORSDOF 5
ENDMDL
MODEL 2
REMARK VINA RESULT:      -1.3      2.145      5.545
REMARK  5 active torsions:
REMARK  status: ('A' for Active; 'I' for Inactive)
REMARK       I    between atoms: C_4  and  N_1 
REMARK    1  A    between atoms: C_8  and  C_3 
REMARK    2  A    between atoms: C_9  and  C_4 
REMARK    3  A    between atoms: S_5  and  N_10 
REMARK    4  A    between atoms: C_11  and  C_6 
REMARK    5  A    between atoms: N_10  and  C_22 
ROOT
ATOM      1  N   UNL d   1      31.658  17.948 -23.973  0.00  0.00    -0.193 N 
ATOM      2  N   UNL d   1      31.622  18.702 -23.635  0.00  0.00    -0.163 NA
ATOM      3  C   UNL d   1      32.426  17.658 -23.858  0.00  0.00     0.090 A 
ATOM      4  C   UNL d   1      31.036  17.562 -24.354  0.00  0.00     0.303 C 
ATOM      5  C   UNL d   1      32.360  18.878 -23.314  0.00  0.00     0.103 A 
ATOM      6  C   UNL d   1      32.853  18.231 -23.454  0.00  0.00     0.040 A 
ATOM      7  O   UNL d   1      31.161  16.805 -24.665  0.00  0.00    -0.263 OA
ENDROOT
BRANCH   5   8
ATOM      8  C   UNL d   1      32.568  19.571 -22.925  0.00  0.00     0.019 A 
ATOM      9  C   UNL d   1      32.887  20.194 -23.348  0.00  0.00     0.003 A 
ATOM     10  C   UNL d   1      33.096  20.893 -22.956  0.00  0.00     0.020 A 
ATOM     11  C   UNL d   1      32.982  20.961 -22.138  0.00  0.00     0.093 A 
ATOM     12  C   UNL d   1      32.659  20.326 -21.719  0.00  0.00     0.020 A 
ATOM     13  C   UNL d   1      32.452  19.636 -22.105  0.00  0.00     0.003 A 
BRANCH  11  14
ATOM     14  N   UNL d   1      33.192  21.659 -21.756  0.00  0.00    -0.162 NA
BRANCH  14  15
ATOM     15  S   UNL d   1      32.649  22.074 -21.308  0.00  0.00     0.266 S 
ATOM     16  O   UNL d   1      32.517  22.446 -22.036  0.00  0.00    -0.203 OA
ATOM     17  O   UNL d   1      32.059  22.634 -21.160  0.00  0.00    -0.203 OA
ATOM     18  C   UNL d   1      32.761  21.721 -20.574  0.00  0.00     0.165 C 
ENDBRANCH  14  15
ENDBRANCH  11  14
ENDBRANCH   5   8
BRANCH   3  19
ATOM     19  C   UNL d   1      32.702  16.930 -24.107  0.00  0.00     0.045 A 
ATOM     20  C   UNL d   1      32.755  16.312 -23.546  0.00  0.00     0.141 A 
ATOM     21  F   UNL d   1      32.532  16.448 -22.763  0.00  0.00    -0.204 F 
ATOM     22  C   UNL d   1      33.033  15.568 -23.788  0.00  0.00     0.030 A 
ATOM     23  C   UNL d   1      33.241  15.453 -24.534  0.00  0.00     0.002 A 
ATOM     24  C   UNL d   1      33.188  16.071 -25.096  0.00  0.00     0.000 A 
ATOM     25  C   UNL d   1      32.922  16.824 -24.919  0.00  0.00     0.004 A 
ENDBRANCH   3  19
BRANCH   4  26
ATOM     26  C   UNL d   1      30.311  17.922 -24.422  0.00  0.00     0.158 A 
ATOM     27  O   UNL d   1      30.095  18.489 -25.005  0.00  0.00    -0.300 OA
ATOM     28  C   UNL d   1      29.310  18.703 -24.862  0.00  0.00     0.123 A 
ATOM     29  C   UNL d   1      29.044  18.282 -24.210  0.00  0.00     0.029 A 
ATOM     30  C   UNL d   1      29.671  17.806 -23.950  0.00  0.00     0.032 A 
ENDBRANCH   4  26
TORSDOF 5
ENDMDL
