MODEL 1
REMARK VINA RESULT:      19.5      0.000      0.000
REMARK  4 active torsions:
REMARK  status: ('A' for Active; 'I' for Inactive)
REMARK    1  A    between atoms: N_14  and  C_2 
REMARK       I    between atoms: C_9  and  N_11 
REMARK    2  A    between atoms: C_13  and  C_9 
REMARK    3  A    between atoms: C_10  and  C_17 
REMARK       I    between atoms: N_12  and  C_10 
REMARK    4  A    between atoms: C_30  and  N_14 
ROOT
ATOM      1  C   UNL d   1     -41.722-122.280 -52.705  0.00  0.00     0.057 A 
ATOM      2  C   UNL d   1     -42.390-122.042 -53.150  0.00  0.00     0.006 A 
ATOM      3  C   UNL d   1     -41.123-122.719 -53.064  0.00  0.00     0.006 A 
ATOM      4  C   UNL d   1     -41.840-122.689 -54.305  0.00  0.00     0.084 A 
ATOM      5  C   UNL d   1     -42.438-122.251 -53.946  0.00  0.00     0.019 A 
ATOM      6  C   UNL d   1     -41.178-122.926 -53.865  0.00  0.00     0.019 A 
ENDROOT
BRANCH   1   7
ATOM      7  C   UNL d   1     -41.643-122.085 -51.899  0.00  0.00     0.265 C 
ATOM      8  N   UNL d   1     -42.027-122.534 -51.318  0.00  0.00    -0.270 N 
ATOM      9  C   UNL d   1     -42.501-123.103 -50.755  0.00  0.00     0.096 A 
ATOM     10  C   UNL d   1     -42.275-122.782 -50.572  0.00  0.00     0.096 A 
ATOM     11  C   UNL d   1     -42.367-122.840 -49.989  0.00  0.00     0.077 A 
ATOM     12  N   UNL d   1     -42.502-122.930 -49.179  0.00  0.00    -0.171 NA
ATOM     13  C   UNL d   1     -42.399-122.704 -48.390  0.00  0.00     0.267 C 
ATOM     14  C   UNL d   1     -42.149-122.528 -49.808  0.00  0.00     0.077 A 
ATOM     15  O   UNL d   1     -41.932-122.060 -48.203  0.00  0.00    -0.271 OA
ATOM     16  O   UNL d   1     -41.175-121.437 -51.677  0.00  0.00    -0.267 OA
BRANCH  13  17
ATOM     17  C   UNL d   1     -42.771-123.134 -47.795  0.00  0.00     0.151 A 
ATOM     18  O   UNL d   1     -43.557-123.350 -47.777  0.00  0.00    -0.301 OA
ATOM     19  C   UNL d   1     -43.698-123.772 -47.089  0.00  0.00     0.123 A 
ATOM     20  C   UNL d   1     -42.987-123.816 -46.676  0.00  0.00     0.029 A 
ATOM     21  C   UNL d   1     -42.415-123.424 -47.109  0.00  0.00     0.031 A 
ENDBRANCH  13  17
ENDBRANCH   1   7
BRANCH   4  22
ATOM     22  N   UNL d   1     -41.900-122.894 -55.107  0.00  0.00    -0.221 NA
BRANCH  22  23
ATOM     23  C   UNL d   1     -41.859-122.305 -55.690  0.00  0.00     0.194 A 
ATOM     24  S   UNL d   1     -42.455-122.124 -56.207  0.00  0.00    -0.046 SA
ATOM     25  C   UNL d   1     -42.187-121.501 -56.699  0.00  0.00     0.062 A 
ATOM     26  C   UNL d   1     -42.393-121.005 -57.323  0.00  0.00     0.107 A 
ATOM     27  C   UNL d   1     -41.421-121.310 -56.468  0.00  0.00     0.102 A 
ATOM     28  S   UNL d   1     -41.760-120.513 -57.476  0.00  0.00     0.213 S 
ATOM     29  C   UNL d   1     -41.157-120.695 -56.953  0.00  0.00     0.118 A 
ATOM     30  O   UNL d   1     -42.290-120.239 -58.053  0.00  0.00    -0.217 OA
ATOM     31  O   UNL d   1     -41.198-119.958 -57.734  0.00  0.00    -0.217 OA
ATOM     32  N   UNL d   1     -41.212-121.810 -55.838  0.00  0.00    -0.220 NA
ENDBRANCH  22  23
ENDBRANCH   4  22
TORSDOF 4
ENDMDL
MODEL 2
REMARK VINA RESULT:      21.4      0.985      1.213
REMARK  4 active torsions:
REMARK  status: ('A' for Active; 'I' for Inactive)
REMARK    1  A    between atoms: N_14  and  C_2 
REMARK       I    between atoms: C_9  and  N_11 
REMARK    2  A    between atoms: C_13  and  C_9 
REMARK    3  A    between atoms: C_10  and  C_17 
REMARK       I    between atoms: N_12  and  C_10 
REMARK    4  A    between atoms: C_30  and  N_14 
ROOT
ATOM      1  C   UNL d   1     -41.371-122.052 -52.408  0.00  0.00     0.057 A 
ATOM      2  C   UNL d   1     -41.208-122.841 -52.639  0.00  0.00     0.006 A 
ATOM      3  C   UNL d   1     -41.448-121.463 -52.981  0.00  0.00     0.006 A 
ATOM      4  C   UNL d   1     -41.206-122.429 -54.012  0.00  0.00     0.084 A 
ATOM      5  C   UNL d   1     -41.129-123.017 -53.440  0.00  0.00     0.019 A 
ATOM      6  C   UNL d   1     -41.367-121.648 -53.785  0.00  0.00     0.019 A 
ENDROOT
BRANCH   1   7
ATOM      7  C   UNL d   1     -41.457-121.841 -51.607  0.00  0.00     0.265 C 
ATOM      8  N   UNL d   1     -41.860-122.340 -51.082  0.00  0.00    -0.270 N 
ATOM      9  C   UNL d   1     -42.329-122.972 -50.586  0.00  0.00     0.096 A 
ATOM     10  C   UNL d   1     -42.188-122.618 -50.379  0.00  0.00     0.096 A 
ATOM     11  C   UNL d   1     -42.366-122.685 -49.817  0.00  0.00     0.077 A 
ATOM     12  N   UNL d   1     -42.618-122.790 -49.037  0.00  0.00    -0.171 NA
ATOM     13  C   UNL d   1     -42.683-122.545 -48.250  0.00  0.00     0.267 C 
ATOM     14  C   UNL d   1     -42.230-122.342 -49.613  0.00  0.00     0.077 A 
ATOM     15  O   UNL d   1     -42.357-121.835 -48.011  0.00  0.00    -0.271 OA
ATOM     16  O   UNL d   1     -41.137-121.126 -51.333  0.00  0.00    -0.267 OA
BRANCH  13  17
ATOM     17  C   UNL d   1     -43.078-123.023 -47.710  0.00  0.00     0.151 A 
ATOM     18  O   UNL d   1     -43.872-123.208 -47.722  0.00  0.00    -0.301 OA
ATOM     19  C   UNL d   1     -44.038-123.698 -47.087  0.00  0.00     0.123 A 
ATOM     20  C   UNL d   1     -43.335-123.817 -46.676  0.00  0.00     0.029 A 
ATOM     21  C   UNL d   1     -42.743-123.403 -47.058  0.00  0.00     0.031 A 
ENDBRANCH  13  17
ENDBRANCH   1   7
BRANCH   4  22
ATOM     22  N   UNL d   1     -41.124-122.618 -54.816  0.00  0.00    -0.221 NA
BRANCH  22  23
ATOM     23  C   UNL d   1     -41.730-122.432 -55.351  0.00  0.00     0.194 A 
ATOM     24  S   UNL d   1     -42.416-122.851 -55.437  0.00  0.00    -0.046 SA
ATOM     25  C   UNL d   1     -42.873-122.477 -56.031  0.00  0.00     0.062 A 
ATOM     26  C   UNL d   1     -43.581-122.509 -56.451  0.00  0.00     0.107 A 
ATOM     27  C   UNL d   1     -42.449-121.826 -56.302  0.00  0.00     0.102 A 
ATOM     28  S   UNL d   1     -43.594-121.883 -56.974  0.00  0.00     0.213 S 
ATOM     29  C   UNL d   1     -42.899-121.457 -56.888  0.00  0.00     0.118 A 
ATOM     30  O   UNL d   1     -44.328-122.227 -57.152  0.00  0.00    -0.217 OA
ATOM     31  O   UNL d   1     -43.734-121.296 -57.546  0.00  0.00    -0.217 OA
ATOM     32  N   UNL d   1     -41.735-121.794 -55.880  0.00  0.00    -0.220 NA
ENDBRANCH  22  23
ENDBRANCH   4  22
TORSDOF 4
ENDMDL
