MODEL 1
REMARK VINA RESULT:      -4.6      0.000      0.000
REMARK  3 active torsions:
REMARK  status: ('A' for Active; 'I' for Inactive)
REMARK    1  A    between atoms: C_3  and  C_1 
REMARK    2  A    between atoms: C_8  and  C_3 
REMARK    3  A    between atoms: C_10  and  C_4 
ROOT
ATOM      1  C   UNL d   1     -41.585-122.308 -51.359  0.00  0.00     0.092 C 
ATOM      2  C   UNL d   1     -41.359-121.547 -51.137  0.00  0.00     0.103 C 
ATOM      3  N   UNL d   1     -41.122-120.767 -50.936  0.00  0.00    -0.191 NA
ENDROOT
BRANCH   1   4
ATOM      4  C   UNL d   1     -41.513-122.539 -52.161  0.00  0.00     0.120 A 
ATOM      5  N   UNL d   1     -41.839-122.145 -52.830  0.00  0.00    -0.238 NA
ATOM      6  C   UNL d   1     -41.626-122.571 -53.509  0.00  0.00     0.088 A 
ATOM      7  C   UNL d   1     -41.177-123.215 -53.255  0.00  0.00     0.056 A 
ATOM      8  S   UNL d   1     -41.123-123.173 -52.440  0.00  0.00    -0.065 SA
BRANCH   6   9
ATOM      9  C   UNL d   1     -41.844-122.360 -54.299  0.00  0.00     0.018 A 
ATOM     10  C   UNL d   1     -41.267-122.390 -54.895  0.00  0.00     0.002 A 
ATOM     11  C   UNL d   1     -41.471-122.186 -55.667  0.00  0.00     0.000 A 
ATOM     12  C   UNL d   1     -42.266-121.944 -55.862  0.00  0.00     0.000 A 
ATOM     13  C   UNL d   1     -42.832-121.919 -55.260  0.00  0.00     0.000 A 
ATOM     14  C   UNL d   1     -42.613-122.130 -54.469  0.00  0.00     0.002 A 
ENDBRANCH   6   9
ENDBRANCH   1   4
BRANCH   1  15
ATOM     15  C   UNL d   1     -41.874-122.816 -50.784  0.00  0.00     0.012 A 
ATOM     16  C   UNL d   1     -41.602-123.529 -50.447  0.00  0.00     0.001 A 
ATOM     17  C   UNL d   1     -42.144-123.777 -49.889  0.00  0.00     0.000 A 
ATOM     18  C   UNL d   1     -42.747-123.231 -49.873  0.00  0.00     0.000 A 
ATOM     19  C   UNL d   1     -42.588-122.640 -50.419  0.00  0.00     0.001 A 
ENDBRANCH   1  15
TORSDOF 3
ENDMDL
MODEL 2
REMARK VINA RESULT:      -4.0      0.986      4.137
REMARK  3 active torsions:
REMARK  status: ('A' for Active; 'I' for Inactive)
REMARK    1  A    between atoms: C_3  and  C_1 
REMARK    2  A    between atoms: C_8  and  C_3 
REMARK    3  A    between atoms: C_10  and  C_4 
ROOT
ATOM      1  C   UNL d   1     -42.080-122.326 -53.581  0.00  0.00     0.092 C 
ATOM      2  C   UNL d   1     -42.716-121.858 -53.817  0.00  0.00     0.103 C 
ATOM      3  N   UNL d   1     -43.365-121.372 -54.033  0.00  0.00    -0.191 NA
ENDROOT
BRANCH   1   4
ATOM      4  C   UNL d   1     -41.809-122.279 -52.790  0.00  0.00     0.120 A 
ATOM      5  N   UNL d   1     -42.094-122.719 -52.132  0.00  0.00    -0.238 NA
ATOM      6  C   UNL d   1     -41.663-122.491 -51.461  0.00  0.00     0.088 A 
ATOM      7  C   UNL d   1     -41.123-121.919 -51.709  0.00  0.00     0.056 A 
ATOM      8  S   UNL d   1     -41.230-121.809 -52.513  0.00  0.00    -0.065 SA
BRANCH   6   9
ATOM      9  C   UNL d   1     -41.780-122.804 -50.683  0.00  0.00     0.018 A 
ATOM     10  C   UNL d   1     -42.466-122.594 -50.266  0.00  0.00     0.002 A 
ATOM     11  C   UNL d   1     -42.587-122.894 -49.508  0.00  0.00     0.000 A 
ATOM     12  C   UNL d   1     -42.017-123.417 -49.147  0.00  0.00     0.000 A 
ATOM     13  C   UNL d   1     -41.338-123.618 -49.572  0.00  0.00     0.000 A 
ATOM     14  C   UNL d   1     -41.222-123.305 -50.350  0.00  0.00     0.002 A 
ENDBRANCH   6   9
ENDBRANCH   1   4
BRANCH   1  15
ATOM     15  C   UNL d   1     -41.731-122.824 -54.132  0.00  0.00     0.012 A 
ATOM     16  C   UNL d   1     -41.582-123.644 -54.162  0.00  0.00     0.001 A 
ATOM     17  C   UNL d   1     -41.211-123.815 -54.870  0.00  0.00     0.000 A 
ATOM     18  C   UNL d   1     -41.130-123.116 -55.278  0.00  0.00     0.000 A 
ATOM     19  C   UNL d   1     -41.446-122.506 -54.832  0.00  0.00     0.001 A 
ENDBRANCH   1  15
TORSDOF 3
ENDMDL
