MODEL 1
REMARK VINA RESULT:      50.4      0.000      0.000
REMARK  2 active torsions:
REMARK  status: ('A' for Active; 'I' for Inactive)
REMARK    1  A    between atoms: C_13  and  C_2 
REMARK    2  A    between atoms: N_12  and  C_8 
ROOT
ATOM      1  N   UNL d   1      45.817 -18.142  43.785  0.00  0.00    -0.301 N 
ATOM      2  C   UNL d   1      46.194 -18.877  42.617  0.00  0.00     0.121 A 
ATOM      3  C   UNL d   1      45.985 -17.444  43.397  0.00  0.00     0.092 A 
ATOM      4  C   UNL d   1      45.881 -16.712  43.786  0.00  0.00     0.134 A 
ATOM      5  C   UNL d   1      46.258 -17.455  42.618  0.00  0.00     0.060 A 
ATOM      6  C   UNL d   1      45.921 -18.865  43.395  0.00  0.00     0.090 A 
ATOM      7  C   UNL d   1      46.360 -18.165  42.236  0.00  0.00     0.204 A 
ATOM      8  C   UNL d   1      46.050 -16.001  43.399  0.00  0.00     0.116 A 
ATOM      9  O   UNL d   1      45.605 -16.701  44.573  0.00  0.00    -0.301 OA
ATOM     10  C   UNL d   1      46.323 -16.013  42.620  0.00  0.00     0.158 A 
ATOM     11  C   UNL d   1      46.424 -16.753  42.238  0.00  0.00     0.036 A 
ATOM     12  C   UNL d   1      45.545 -18.131  44.560  0.00  0.00     0.089 A 
ATOM     13  O   UNL d   1      46.636 -18.176  41.450  0.00  0.00    -0.286 OA
ATOM     14  C   UNL d   1      45.439 -17.421  44.954  0.00  0.00     0.140 A 
ATOM     15  F   UNL d   1      46.498 -15.302  42.216  0.00  0.00    -0.203 F 
ATOM     16  C   UNL d   1      45.374 -18.843  44.952  0.00  0.00     0.021 C 
ENDROOT
BRANCH   8  17
ATOM     17  N   UNL d   1      45.947 -15.279  43.786  0.00  0.00    -0.298 N 
ATOM     18  C   UNL d   1      46.615 -14.859  44.059  0.00  0.00     0.100 A 
ATOM     19  C   UNL d   1      46.495 -14.131  44.448  0.00  0.00     0.100 A 
ATOM     20  N   UNL d   1      45.735 -13.832  44.561  0.00  0.00    -0.299 N 
ATOM     21  C   UNL d   1      45.087 -14.277  44.276  0.00  0.00     0.100 A 
ATOM     22  C   UNL d   1      45.625 -13.108  44.948  0.00  0.00     0.100 C 
ATOM     23  C   UNL d   1      45.186 -14.981  43.898  0.00  0.00     0.100 A 
ENDBRANCH   8  17
BRANCH   2  24
ATOM     24  C   UNL d   1      46.304 -19.599  42.210  0.00  0.00     0.215 C 
ATOM     25  O   UNL d   1      46.087 -20.325  42.558  0.00  0.00    -0.644 OA
ATOM     26  O   UNL d   1      46.630 -19.599  41.456  0.00  0.00    -0.644 OA
ENDBRANCH   2  24
TORSDOF 2
ENDMDL
