MODEL 1
REMARK VINA RESULT:       7.1      0.000      0.000
REMARK  3 active torsions:
REMARK  status: ('A' for Active; 'I' for Inactive)
REMARK    1  A    between atoms: S_12  and  C_6 
REMARK    2  A    between atoms: C_10  and  C_14 
REMARK       I    between atoms: N_11  and  C_10 
REMARK    3  A    between atoms: C_14  and  S_12 
ROOT
ATOM      1  C   UNL d   1     -41.187-121.676 -50.911  0.00  0.00     0.155 A 
ATOM      2  C   UNL d   1     -41.173-121.352 -51.674  0.00  0.00     0.107 A 
ATOM      3  N   UNL d   1     -41.210-122.990 -51.474  0.00  0.00    -0.250 N 
ATOM      4  C   UNL d   1     -41.205-122.490 -50.812  0.00  0.00     0.285 A 
ATOM      5  N   UNL d   1     -41.178-121.851 -52.336  0.00  0.00    -0.220 NA
ATOM      6  C   UNL d   1     -41.197-122.666 -52.226  0.00  0.00     0.182 A 
ATOM      7  N   UNL d   1     -41.178-121.056 -50.369  0.00  0.00    -0.239 NA
ATOM      8  C   UNL d   1     -41.156-120.533 -51.607  0.00  0.00     0.037 A 
ATOM      9  C   UNL d   1     -41.159-120.345 -50.795  0.00  0.00     0.083 A 
ATOM     10  O   UNL d   1     -41.219-122.823 -50.051  0.00  0.00    -0.265 OA
ATOM     11  C   UNL d   1     -41.229-123.812 -51.375  0.00  0.00     0.104 C 
ATOM     12  C   UNL d   1     -41.138-119.930 -52.167  0.00  0.00     0.003 A 
ATOM     13  C   UNL d   1     -41.144-119.554 -50.551  0.00  0.00     0.019 A 
ATOM     14  C   UNL d   1     -41.123-119.139 -51.923  0.00  0.00     0.000 A 
ATOM     15  C   UNL d   1     -41.126-118.955 -51.120  0.00  0.00     0.002 A 
ENDROOT
BRANCH   6  16
ATOM     16  S   UNL d   1     -41.202-123.166 -52.885  0.00  0.00    -0.044 SA
BRANCH  16  17
ATOM     17  C   UNL d   1     -41.299-122.855 -53.642  0.00  0.00     0.099 C 
BRANCH  17  18
ATOM     18  C   UNL d   1     -41.916-123.118 -54.120  0.00  0.00     0.271 C 
ATOM     19  N   UNL d   1     -42.138-122.673 -54.769  0.00  0.00    -0.272 N 
ATOM     20  C   UNL d   1     -42.754-122.925 -55.255  0.00  0.00     0.083 A 
ATOM     21  C   UNL d   1     -41.746-121.967 -54.942  0.00  0.00     0.083 A 
ATOM     22  C   UNL d   1     -42.974-122.480 -55.901  0.00  0.00     0.019 A 
ATOM     23  C   UNL d   1     -42.592-121.780 -56.080  0.00  0.00     0.003 A 
ATOM     24  C   UNL d   1     -41.974-121.518 -55.600  0.00  0.00     0.019 A 
ATOM     25  O   UNL d   1     -42.309-123.817 -53.955  0.00  0.00    -0.266 OA
ENDBRANCH  17  18
ENDBRANCH  16  17
ENDBRANCH   6  16
TORSDOF 3
ENDMDL
