MODEL 1
REMARK VINA RESULT:     101.0      0.000      0.000
REMARK  6 active torsions:
REMARK  status: ('A' for Active; 'I' for Inactive)
REMARK    1  A    between atoms: C_7  and  C_1 
REMARK    2  A    between atoms: C_10  and  C_2 
REMARK    3  A    between atoms: C_8  and  C_7 
REMARK    4  A    between atoms: C_9  and  C_8 
REMARK    5  A    between atoms: C_13  and  C_9 
REMARK    6  A    between atoms: O_20  and  C_16 
ROOT
ATOM      1  C   UNL d   1     -56.296 -99.354 -43.245  0.00  0.00     0.097 A 
ATOM      2  C   UNL d   1     -56.493 -99.428 -44.043  0.00  0.00     0.009 A 
ATOM      3  C   UNL d   1     -56.850 -99.083 -42.705  0.00  0.00     0.282 A 
ATOM      4  C   UNL d   1     -57.254 -99.227 -44.292  0.00  0.00     0.019 A 
ATOM      5  N   UNL d   1     -57.607 -98.884 -42.957  0.00  0.00    -0.208 NA
ATOM      6  C   UNL d   1     -57.809 -98.956 -43.752  0.00  0.00     0.085 A 
ATOM      7  C   UNL d   1     -57.452 -99.301 -45.089  0.00  0.00     0.013 A 
ATOM      8  O   UNL d   1     -56.614 -99.019 -41.898  0.00  0.00    -0.265 OA
ATOM      9  C   UNL d   1     -58.566 -98.757 -44.004  0.00  0.00     0.020 A 
ATOM     10  C   UNL d   1     -58.213 -99.100 -45.339  0.00  0.00     0.058 A 
ATOM     11  C   UNL d   1     -58.767 -98.830 -44.799  0.00  0.00     0.013 A 
ATOM     12 CL   UNL d   1     -58.436 -99.167 -46.143  0.00  0.00    -0.082 Cl
ENDROOT
BRANCH   1  13
ATOM     13  C   UNL d   1     -55.523 -99.552 -42.962  0.00  0.00     0.200 C 
ATOM     14  O   UNL d   1     -54.918 -99.006 -43.022  0.00  0.00    -0.286 OA
BRANCH  13  15
ATOM     15  C   UNL d   1     -55.392-100.296 -42.628  0.00  0.00     0.042 C 
BRANCH  15  16
ATOM     16  C   UNL d   1     -54.742-100.422 -42.148  0.00  0.00     0.005 C 
BRANCH  16  17
ATOM     17  C   UNL d   1     -54.782-100.986 -41.554  0.00  0.00     0.022 A 
ATOM     18  C   UNL d   1     -54.778-101.792 -41.750  0.00  0.00     0.094 A 
ATOM     19  C   UNL d   1     -54.819-102.368 -41.151  0.00  0.00     0.024 A 
ATOM     20  C   UNL d   1     -54.862-102.126 -40.373  0.00  0.00     0.002 A 
ATOM     21  C   UNL d   1     -54.868-101.308 -40.156  0.00  0.00     0.000 A 
ATOM     22  C   UNL d   1     -54.827-100.753 -40.752  0.00  0.00     0.002 A 
BRANCH  18  23
ATOM     23  O   UNL d   1     -54.733-102.039 -42.547  0.00  0.00    -0.328 OA
ATOM     24  C   UNL d   1     -55.183-102.658 -42.810  0.00  0.00     0.181 C 
ENDBRANCH  18  23
ENDBRANCH  16  17
ENDBRANCH  15  16
ENDBRANCH  13  15
ENDBRANCH   1  13
BRANCH   2  25
ATOM     25  C   UNL d   1     -55.932 -99.702 -44.590  0.00  0.00     0.000 A 
ATOM     26  C   UNL d   1     -55.827-100.506 -44.689  0.00  0.00     0.000 A 
ATOM     27  C   UNL d   1     -55.255-100.786 -45.247  0.00  0.00     0.000 A 
ATOM     28  C   UNL d   1     -54.818-100.246 -45.676  0.00  0.00     0.000 A 
ATOM     29  C   UNL d   1     -54.924 -99.460 -45.576  0.00  0.00     0.000 A 
ATOM     30  C   UNL d   1     -55.484 -99.166 -45.030  0.00  0.00     0.000 A 
ENDBRANCH   2  25
TORSDOF 6
ENDMDL
