MODEL 1
REMARK VINA RESULT:      68.0      0.000      0.000
REMARK  3 active torsions:
REMARK  status: ('A' for Active; 'I' for Inactive)
REMARK    1  A    between atoms: C_10  and  C_2 
REMARK    2  A    between atoms: C_4  and  C_10 
REMARK    3  A    between atoms: C_27  and  N_13 
ROOT
ATOM      1  C   UNL d   1     -54.711-101.780 -41.625  0.00  0.00     0.093 A 
ATOM      2  C   UNL d   1     -54.712-100.323 -42.426  0.00  0.00     0.035 A 
ATOM      3  C   UNL d   1     -54.712-101.125 -41.202  0.00  0.00    -0.012 A 
ATOM      4  C   UNL d   1     -54.711-101.980 -39.147  0.00  0.00     0.056 A 
ATOM      5  C   UNL d   1     -54.712-100.980 -42.862  0.00  0.00     0.180 A 
ATOM      6  C   UNL d   1     -54.712-101.333 -38.729  0.00  0.00    -0.012 A 
ATOM      7  C   UNL d   1     -54.711-101.920 -39.974  0.00  0.00    -0.016 A 
ATOM      8  C   UNL d   1     -54.712-101.198 -40.373  0.00  0.00    -0.007 A 
ATOM      9  C   UNL d   1     -54.712-100.403 -41.602  0.00  0.00    -0.001 A 
ATOM     10  C   UNL d   1     -54.712-100.606 -39.135  0.00  0.00    -0.004 A 
ATOM     11  C   UNL d   1     -54.711-102.507 -41.219  0.00  0.00    -0.016 A 
ATOM     12  C   UNL d   1     -54.712-100.539 -39.957  0.00  0.00    -0.001 A 
ATOM     13  C   UNL d   1     -54.711-102.574 -40.397  0.00  0.00    -0.007 A 
ATOM     14  C   UNL d   1     -54.711-102.702 -38.748  0.00  0.00    -0.015 A 
ATOM     15  C   UNL d   1     -54.712-101.396 -37.882  0.00  0.00     0.038 A 
ATOM     16  O   UNL d   1     -54.712-101.089 -43.634  0.00  0.00    -0.291 OA
ATOM     17  C   UNL d   1     -54.711-102.441 -42.053  0.00  0.00     0.017 C 
ATOM     18  C   UNL d   1     -54.711-102.791 -37.909  0.00  0.00     0.038 A 
ATOM     19  C   UNL d   1     -54.712-102.129 -37.481  0.00  0.00     0.195 A 
ATOM     20  C   UNL d   1     -54.711-102.879 -39.718  0.00  0.00     0.013 C 
ATOM     21  O   UNL d   1     -54.712-102.188 -36.674  0.00  0.00    -0.287 OA
ENDROOT
BRANCH   2  22
ATOM     22  C   UNL d   1     -54.712 -99.598 -42.782  0.00  0.00     0.006 C 
BRANCH  22  23
ATOM     23  C   UNL d   1     -55.190 -99.419 -43.426  0.00  0.00     0.039 A 
ATOM     24  C   UNL d   1     -55.925 -99.114 -43.544  0.00  0.00     0.085 A 
ATOM     25  N   UNL d   1     -56.060 -99.087 -44.374  0.00  0.00    -0.228 N 
ATOM     26  C   UNL d   1     -56.392 -98.892 -42.879  0.00  0.00     0.021 C 
ATOM     27  N   UNL d   1     -55.405 -99.378 -44.772  0.00  0.00    -0.164 NA
ATOM     28  C   UNL d   1     -54.861 -99.586 -44.181  0.00  0.00     0.122 A 
BRANCH  25  29
ATOM     29  C   UNL d   1     -56.763 -98.803 -44.732  0.00  0.00     0.101 C 
ATOM     30  C   UNL d   1     -57.495 -98.816 -44.301  0.00  0.00     0.022 C 
ENDBRANCH  25  29
ENDBRANCH  22  23
ENDBRANCH   2  22
TORSDOF 3
ENDMDL
