MODEL 1
REMARK VINA RESULT:      -4.1      0.000      0.000
REMARK  4 active torsions:
REMARK  status: ('A' for Active; 'I' for Inactive)
REMARK    1  A    between atoms: N_11  and  C_4 
REMARK    2  A    between atoms: C_13  and  C_17 
REMARK    3  A    between atoms: C_17  and  N_16 
REMARK    4  A    between atoms: O_29  and  C_18 
ROOT
ATOM      1  N   UNL d   1      33.103  21.304 -21.796  0.00  0.00    -0.195 N 
ATOM      2  C   UNL d   1      33.084  22.106 -21.679  0.00  0.00     0.168 A 
ATOM      3  C   UNL d   1      33.021  22.408 -20.943  0.00  0.00     0.073 A 
ATOM      4  C   UNL d   1      33.166  21.020 -22.538  0.00  0.00     0.153 A 
ATOM      5  N   UNL d   1      32.995  21.104 -20.440  0.00  0.00    -0.143 NA
ATOM      6  C   UNL d   1      32.977  21.905 -20.323  0.00  0.00     0.185 A 
ATOM      7  N   UNL d   1      33.130  22.602 -22.307  0.00  0.00    -0.227 NA
ATOM      8  C   UNL d   1      33.003  23.201 -20.827  0.00  0.00     0.007 A 
ATOM      9  N   UNL d   1      32.913  22.197 -19.571  0.00  0.00    -0.225 NA
ATOM     10  C   UNL d   1      33.211  21.506 -23.164  0.00  0.00     0.057 A 
ATOM     11  C   UNL d   1      32.940  23.504 -20.090  0.00  0.00     0.019 A 
ATOM     12  C   UNL d   1      33.193  22.308 -23.047  0.00  0.00     0.086 A 
ATOM     13  C   UNL d   1      32.894  22.998 -19.454  0.00  0.00     0.083 A 
ATOM     14  C   UNL d   1      33.049  23.698 -21.459  0.00  0.00     0.000 C 
ATOM     15  C   UNL d   1      33.240  22.821 -23.702  0.00  0.00     0.021 C 
ATOM     16  C   UNL d   1      32.831  23.293 -18.719  0.00  0.00     0.021 C 
ENDROOT
BRANCH   4  17
ATOM     17  N   UNL d   1      33.184  20.192 -22.651  0.00  0.00    -0.286 N 
ATOM     18  C   UNL d   1      33.239  19.537 -22.158  0.00  0.00     0.101 A 
ATOM     19  C   UNL d   1      33.241  18.770 -22.486  0.00  0.00     0.100 A 
ATOM     20  N   UNL d   1      33.188  18.654 -23.306  0.00  0.00    -0.300 N 
ATOM     21  C   UNL d   1      33.131  19.333 -23.809  0.00  0.00     0.100 A 
ATOM     22  C   UNL d   1      33.130  20.098 -23.473  0.00  0.00     0.101 A 
BRANCH  20  23
ATOM     23  C   UNL d   1      33.189  17.891 -23.632  0.00  0.00     0.082 C 
BRANCH  23  24
ATOM     24  C   UNL d   1      32.482  17.480 -23.738  0.00  0.00     0.042 A 
ATOM     25  C   UNL d   1      32.441  16.666 -23.553  0.00  0.00     0.096 A 
ATOM     26  C   UNL d   1      31.725  16.266 -23.663  0.00  0.00     0.027 A 
ATOM     27  C   UNL d   1      31.055  16.657 -23.952  0.00  0.00     0.032 A 
ATOM     28  C   UNL d   1      31.095  17.472 -24.137  0.00  0.00     0.140 A 
ATOM     29  C   UNL d   1      31.814  17.880 -24.028  0.00  0.00     0.033 A 
ATOM     30  F   UNL d   1      30.429  17.875 -24.427  0.00  0.00    -0.204 F 
BRANCH  25  31
ATOM     31  O   UNL d   1      33.099  16.274 -23.267  0.00  0.00    -0.328 OA
ATOM     32  C   UNL d   1      33.072  15.453 -23.126  0.00  0.00     0.181 C 
ENDBRANCH  25  31
ENDBRANCH  23  24
ENDBRANCH  20  23
ENDBRANCH   4  17
TORSDOF 4
ENDMDL
MODEL 2
REMARK VINA RESULT:      -2.0      2.077      5.995
REMARK  4 active torsions:
REMARK  status: ('A' for Active; 'I' for Inactive)
REMARK    1  A    between atoms: N_11  and  C_4 
REMARK    2  A    between atoms: C_13  and  C_17 
REMARK    3  A    between atoms: C_17  and  N_16 
REMARK    4  A    between atoms: O_29  and  C_18 
ROOT
ATOM      1  N   UNL d   1      31.589  17.529 -23.855  0.00  0.00    -0.195 N 
ATOM      2  C   UNL d   1      31.346  16.845 -24.214  0.00  0.00     0.168 A 
ATOM      3  C   UNL d   1      30.569  16.682 -24.296  0.00  0.00     0.073 A 
ATOM      4  C   UNL d   1      32.369  17.675 -23.781  0.00  0.00     0.153 A 
ATOM      5  N   UNL d   1      30.278  17.891 -23.658  0.00  0.00    -0.143 NA
ATOM      6  C   UNL d   1      30.035  17.207 -24.018  0.00  0.00     0.185 A 
ATOM      7  N   UNL d   1      31.890  16.324 -24.490  0.00  0.00    -0.227 NA
ATOM      8  C   UNL d   1      30.328  16.005 -24.652  0.00  0.00     0.007 A 
ATOM      9  N   UNL d   1      29.243  17.056 -24.094  0.00  0.00    -0.225 NA
ATOM     10  C   UNL d   1      32.912  17.163 -24.053  0.00  0.00     0.057 A 
ATOM     11  C   UNL d   1      29.550  15.843 -24.735  0.00  0.00     0.019 A 
ATOM     12  C   UNL d   1      32.669  16.479 -24.412  0.00  0.00     0.086 A 
ATOM     13  C   UNL d   1      29.000  16.372 -24.453  0.00  0.00     0.083 A 
ATOM     14  C   UNL d   1      30.875  15.484 -24.929  0.00  0.00     0.000 C 
ATOM     15  C   UNL d   1      33.237  15.940 -24.699  0.00  0.00     0.021 C 
ATOM     16  C   UNL d   1      28.225  16.216 -24.532  0.00  0.00     0.021 C 
ENDROOT
BRANCH   4  17
ATOM     17  N   UNL d   1      32.612  18.383 -23.409  0.00  0.00    -0.286 N 
ATOM     18  C   UNL d   1      32.854  18.591 -22.652  0.00  0.00     0.101 A 
ATOM     19  C   UNL d   1      33.060  19.382 -22.485  0.00  0.00     0.100 A 
ATOM     20  N   UNL d   1      33.026  19.967 -23.072  0.00  0.00    -0.300 N 
ATOM     21  C   UNL d   1      32.776  19.747 -23.851  0.00  0.00     0.100 A 
ATOM     22  C   UNL d   1      32.571  18.952 -24.010  0.00  0.00     0.101 A 
BRANCH  20  23
ATOM     23  C   UNL d   1      33.231  20.754 -22.906  0.00  0.00     0.082 C 
BRANCH  23  24
ATOM     24  C   UNL d   1      32.876  21.155 -22.280  0.00  0.00     0.042 A 
ATOM     25  C   UNL d   1      32.873  21.990 -22.267  0.00  0.00     0.096 A 
ATOM     26  C   UNL d   1      32.513  22.381 -21.633  0.00  0.00     0.027 A 
ATOM     27  C   UNL d   1      32.159  21.958 -21.014  0.00  0.00     0.032 A 
ATOM     28  C   UNL d   1      32.162  21.122 -21.026  0.00  0.00     0.140 A 
ATOM     29  C   UNL d   1      32.523  20.724 -21.664  0.00  0.00     0.033 A 
ATOM     30  F   UNL d   1      31.809  20.688 -20.411  0.00  0.00    -0.204 F 
BRANCH  25  31
ATOM     31  O   UNL d   1      33.220  22.413 -22.874  0.00  0.00    -0.328 OA
ATOM     32  C   UNL d   1      33.133  23.241 -22.916  0.00  0.00     0.181 C 
ENDBRANCH  25  31
ENDBRANCH  23  24
ENDBRANCH  20  23
ENDBRANCH   4  17
TORSDOF 4
ENDMDL
