MODEL 1
REMARK VINA RESULT:      42.6      0.000      0.000
REMARK  8 active torsions:
REMARK  status: ('A' for Active; 'I' for Inactive)
REMARK    1  A    between atoms: C_2  and  S_1 
REMARK    2  A    between atoms: N_11  and  S_1 
REMARK    3  A    between atoms: C_10  and  C_3 
REMARK    4  A    between atoms: N_6  and  C_18 
REMARK    5  A    between atoms: C_20  and  N_11 
REMARK    6  A    between atoms: O_17  and  C_12 
REMARK    7  A    between atoms: C_18  and  C_19 
REMARK    8  A    between atoms: C_19  and  C_20 
ROOT
ATOM      1  C   UNL d   1      58.664  49.630  50.498  0.00  0.00     0.105 A 
ATOM      2  C   UNL d   1      57.290  49.659  50.109  0.00  0.00     0.000 A 
ATOM      3  C   UNL d   1      58.088  49.636  49.906  0.00  0.00     0.011 A 
ATOM      4  C   UNL d   1      57.067  49.674  50.904  0.00  0.00     0.090 A 
ATOM      5  C   UNL d   1      58.442  49.645  51.297  0.00  0.00     0.015 A 
ATOM      6  C   UNL d   1      57.644  49.667  51.500  0.00  0.00     0.025 A 
ENDROOT
BRANCH   1   7
ATOM      7  S   UNL d   1      59.462  49.607  50.295  0.00  0.00     0.285 S 
ATOM      8  O   UNL d   1      59.664  49.572  51.093  0.00  0.00    -0.198 OA
ATOM      9  O   UNL d   1      59.260  49.643  49.497  0.00  0.00    -0.198 OA
BRANCH   7  10
ATOM     10  N   UNL d   1      60.264  49.585  50.090  0.00  0.00    -0.157 NA
BRANCH  10  11
ATOM     11  C   UNL d   1      60.764  49.025  50.444  0.00  0.00     0.114 C 
BRANCH  11  12
ATOM     12  C   UNL d   1      60.850  48.280  50.103  0.00  0.00     0.041 C 
BRANCH  12  13
ATOM     13  C   UNL d   1      61.601  47.956  49.987  0.00  0.00     0.083 C 
BRANCH  13  14
ATOM     14  N   UNL d   1      61.715  47.141  50.022  0.00  0.00    -0.285 N 
ATOM     15  C   UNL d   1      61.617  46.671  50.691  0.00  0.00     0.183 A 
ATOM     16  N   UNL d   1      61.790  45.891  50.474  0.00  0.00    -0.222 NA
ATOM     17  C   UNL d   1      61.992  45.885  49.676  0.00  0.00     0.120 A 
ATOM     18  C   UNL d   1      61.945  46.662  49.396  0.00  0.00     0.102 A 
ENDBRANCH  13  14
ENDBRANCH  12  13
ENDBRANCH  11  12
ENDBRANCH  10  11
ENDBRANCH   7  10
ENDBRANCH   1   7
BRANCH   2  19
ATOM     19  C   UNL d   1      56.715  49.666  49.521  0.00  0.00     0.021 C 
ATOM     20  C   UNL d   1      56.144  49.672  48.932  0.00  0.00     0.004 C 
ATOM     21  C   UNL d   1      56.127  49.627  50.095  0.00  0.00     0.004 C 
ATOM     22  C   UNL d   1      57.300  49.704  48.939  0.00  0.00     0.004 C 
ENDBRANCH   2  19
BRANCH   4  23
ATOM     23  O   UNL d   1      56.268  49.697  51.108  0.00  0.00    -0.328 OA
ATOM     24  C   UNL d   1      56.035  49.527  51.882  0.00  0.00     0.181 C 
ENDBRANCH   4  23
TORSDOF 8
ENDMDL
MODEL 2
REMARK VINA RESULT:      45.2      0.849      1.520
REMARK  8 active torsions:
REMARK  status: ('A' for Active; 'I' for Inactive)
REMARK    1  A    between atoms: C_2  and  S_1 
REMARK    2  A    between atoms: N_11  and  S_1 
REMARK    3  A    between atoms: C_10  and  C_3 
REMARK    4  A    between atoms: N_6  and  C_18 
REMARK    5  A    between atoms: C_20  and  N_11 
REMARK    6  A    between atoms: O_17  and  C_12 
REMARK    7  A    between atoms: C_18  and  C_19 
REMARK    8  A    between atoms: C_19  and  C_20 
ROOT
ATOM      1  C   UNL d   1      58.796  49.678  50.026  0.00  0.00     0.105 A 
ATOM      2  C   UNL d   1      57.381  49.626  50.218  0.00  0.00     0.000 A 
ATOM      3  C   UNL d   1      58.143  49.637  50.531  0.00  0.00     0.011 A 
ATOM      4  C   UNL d   1      57.271  49.654  49.400  0.00  0.00     0.090 A 
ATOM      5  C   UNL d   1      58.687  49.706  49.204  0.00  0.00     0.015 A 
ATOM      6  C   UNL d   1      57.925  49.695  48.891  0.00  0.00     0.025 A 
ENDROOT
BRANCH   1   7
ATOM      7  S   UNL d   1      59.558  49.689  50.339  0.00  0.00     0.285 S 
ATOM      8  O   UNL d   1      59.871  49.696  49.577  0.00  0.00    -0.198 OA
ATOM      9  O   UNL d   1      59.245  49.683  51.102  0.00  0.00    -0.198 OA
BRANCH   7  10
ATOM     10  N   UNL d   1      60.323  49.701  50.654  0.00  0.00    -0.157 NA
BRANCH  10  11
ATOM     11  C   UNL d   1      60.884  49.147  50.395  0.00  0.00     0.114 C 
BRANCH  11  12
ATOM     12  C   UNL d   1      61.105  48.527  50.891  0.00  0.00     0.041 C 
BRANCH  12  13
ATOM     13  C   UNL d   1      61.424  47.832  50.578  0.00  0.00     0.083 C 
BRANCH  13  14
ATOM     14  N   UNL d   1      61.151  47.096  50.828  0.00  0.00    -0.285 N 
ATOM     15  C   UNL d   1      61.110  46.840  51.609  0.00  0.00     0.183 A 
ATOM     16  N   UNL d   1      60.804  46.071  51.603  0.00  0.00    -0.222 NA
ATOM     17  C   UNL d   1      60.660  45.859  50.819  0.00  0.00     0.120 A 
ATOM     18  C   UNL d   1      60.876  46.497  50.340  0.00  0.00     0.102 A 
ENDBRANCH  13  14
ENDBRANCH  12  13
ENDBRANCH  11  12
ENDBRANCH  10  11
ENDBRANCH   7  10
ENDBRANCH   1   7
BRANCH   2  19
ATOM     19  C   UNL d   1      56.730  49.586  50.720  0.00  0.00     0.021 C 
ATOM     20  C   UNL d   1      56.080  49.545  51.217  0.00  0.00     0.004 C 
ATOM     21  C   UNL d   1      57.222  49.708  51.368  0.00  0.00     0.004 C 
ATOM     22  C   UNL d   1      56.231  49.463  50.074  0.00  0.00     0.004 C 
ENDBRANCH   2  19
BRANCH   4  23
ATOM     23  O   UNL d   1      56.508  49.643  49.087  0.00  0.00    -0.328 OA
ATOM     24  C   UNL d   1      56.136  48.921  48.936  0.00  0.00     0.181 C 
ENDBRANCH   4  23
TORSDOF 8
ENDMDL
