MODEL 1
REMARK VINA RESULT:      -3.3      0.000      0.000
REMARK  6 active torsions:
REMARK  status: ('A' for Active; 'I' for Inactive)
REMARK       I    between atoms: N_2  and  C_1 
REMARK       I    between atoms: N_7  and  C_1 
REMARK    1  A    between atoms: C_4  and  N_2 
REMARK       I    between atoms: C_3  and  N_8 
REMARK    2  A    between atoms: C_6  and  C_3 
REMARK    3  A    between atoms: N_5  and  C_12 
REMARK    4  A    between atoms: C_12  and  C_6 
REMARK    5  A    between atoms: N_8  and  N_7 
REMARK    6  A    between atoms: O_14  and  C_10 
ROOT
ATOM      1  C   UNL d   1      32.922  20.759 -21.693  0.00  0.00     0.387 C 
ATOM      2  N   UNL d   1      33.050  21.577 -21.724  0.00  0.00    -0.188 NA
ATOM      3  N   UNL d   1      33.013  20.308 -22.363  0.00  0.00    -0.085 NA
ATOM      4  O   UNL d   1      32.701  20.408 -20.977  0.00  0.00    -0.241 OA
ENDROOT
BRANCH   3   5
ATOM      5  N   UNL d   1      32.884  19.491 -22.332  0.00  0.00    -0.101 NA
ATOM      6  C   UNL d   1      32.959  19.033 -23.014  0.00  0.00     0.298 C 
ATOM      7  O   UNL d   1      33.163  19.394 -23.728  0.00  0.00    -0.264 OA
BRANCH   6   8
ATOM      8  C   UNL d   1      32.830  18.222 -22.977  0.00  0.00     0.083 C 
BRANCH   8   9
ATOM      9  C   UNL d   1      32.466  17.840 -23.606  0.00  0.00     0.085 C 
BRANCH   9  10
ATOM     10  N   UNL d   1      32.264  17.042 -23.546  0.00  0.00    -0.299 N 
ATOM     11  C   UNL d   1      31.483  16.814 -23.624  0.00  0.00     0.107 A 
ATOM     12  C   UNL d   1      31.281  16.017 -23.565  0.00  0.00     0.142 A 
ATOM     13  O   UNL d   1      31.871  15.453 -23.427  0.00  0.00    -0.300 OA
ATOM     14  C   UNL d   1      32.658  15.684 -23.348  0.00  0.00     0.142 A 
ATOM     15  C   UNL d   1      32.853  16.478 -23.408  0.00  0.00     0.107 A 
ENDBRANCH   9  10
ENDBRANCH   8   9
ENDBRANCH   6   8
ENDBRANCH   3   5
BRANCH   2  16
ATOM     16  C   UNL d   1      32.958  22.036 -21.045  0.00  0.00     0.108 A 
ATOM     17  C   UNL d   1      32.615  22.779 -21.093  0.00  0.00     0.112 A 
ATOM     18  C   UNL d   1      32.522  23.237 -20.426  0.00  0.00     0.026 A 
ATOM     19  C   UNL d   1      32.775  22.954 -19.691  0.00  0.00     0.002 A 
ATOM     20  C   UNL d   1      33.121  22.206 -19.638  0.00  0.00     0.002 A 
ATOM     21  C   UNL d   1      33.213  21.747 -20.317  0.00  0.00     0.021 A 
BRANCH  17  22
ATOM     22  O   UNL d   1      32.364  23.061 -21.824  0.00  0.00    -0.327 OA
ATOM     23  C   UNL d   1      31.841  23.702 -21.855  0.00  0.00     0.181 C 
ENDBRANCH  17  22
ENDBRANCH   2  16
TORSDOF 6
ENDMDL
MODEL 2
REMARK VINA RESULT:      -2.5      1.126      1.528
REMARK  6 active torsions:
REMARK  status: ('A' for Active; 'I' for Inactive)
REMARK       I    between atoms: N_2  and  C_1 
REMARK       I    between atoms: N_7  and  C_1 
REMARK    1  A    between atoms: C_4  and  N_2 
REMARK       I    between atoms: C_3  and  N_8 
REMARK    2  A    between atoms: C_6  and  C_3 
REMARK    3  A    between atoms: N_5  and  C_12 
REMARK    4  A    between atoms: C_12  and  C_6 
REMARK    5  A    between atoms: N_8  and  N_7 
REMARK    6  A    between atoms: O_14  and  C_10 
ROOT
ATOM      1  C   UNL d   1      32.866  19.962 -22.503  0.00  0.00     0.387 C 
ATOM      2  N   UNL d   1      33.240  20.701 -22.491  0.00  0.00    -0.188 NA
ATOM      3  N   UNL d   1      32.872  19.514 -23.181  0.00  0.00    -0.085 NA
ATOM      4  O   UNL d   1      32.488  19.686 -21.820  0.00  0.00    -0.241 OA
ENDROOT
BRANCH   3   5
ATOM      5  N   UNL d   1      32.498  18.776 -23.192  0.00  0.00    -0.101 NA
ATOM      6  C   UNL d   1      32.469  18.336 -23.889  0.00  0.00     0.298 C 
ATOM      7  O   UNL d   1      32.816  18.636 -24.576  0.00  0.00    -0.264 OA
BRANCH   6   8
ATOM      8  C   UNL d   1      32.097  17.604 -23.895  0.00  0.00     0.083 C 
BRANCH   8   9
ATOM      9  C   UNL d   1      31.580  17.415 -24.504  0.00  0.00     0.085 C 
BRANCH   9  10
ATOM     10  N   UNL d   1      31.056  16.782 -24.424  0.00  0.00    -0.299 N 
ATOM     11  C   UNL d   1      31.312  16.085 -24.084  0.00  0.00     0.107 A 
ATOM     12  C   UNL d   1      30.788  15.453 -24.004  0.00  0.00     0.142 A 
ATOM     13  O   UNL d   1      30.008  15.529 -24.269  0.00  0.00    -0.300 OA
ATOM     14  C   UNL d   1      29.752  16.234 -24.612  0.00  0.00     0.142 A 
ATOM     15  C   UNL d   1      30.276  16.859 -24.688  0.00  0.00     0.107 A 
ENDBRANCH   9  10
ENDBRANCH   8   9
ENDBRANCH   6   8
ENDBRANCH   3   5
BRANCH   2  16
ATOM     16  C   UNL d   1      33.235  21.157 -21.804  0.00  0.00     0.108 A 
ATOM     17  C   UNL d   1      33.228  21.975 -21.851  0.00  0.00     0.112 A 
ATOM     18  C   UNL d   1      33.223  22.431 -21.176  0.00  0.00     0.026 A 
ATOM     19  C   UNL d   1      33.225  22.068 -20.432  0.00  0.00     0.002 A 
ATOM     20  C   UNL d   1      33.232  21.243 -20.380  0.00  0.00     0.002 A 
ATOM     21  C   UNL d   1      33.237  20.787 -21.067  0.00  0.00     0.021 A 
BRANCH  17  22
ATOM     22  O   UNL d   1      33.225  22.336 -22.591  0.00  0.00    -0.327 OA
ATOM     23  C   UNL d   1      33.189  23.162 -22.641  0.00  0.00     0.181 C 
ENDBRANCH  17  22
ENDBRANCH   2  16
TORSDOF 6
ENDMDL
MODEL 3
REMARK VINA RESULT:      -0.9      1.516      5.930
REMARK  6 active torsions:
REMARK  status: ('A' for Active; 'I' for Inactive)
REMARK       I    between atoms: N_2  and  C_1 
REMARK       I    between atoms: N_7  and  C_1 
REMARK    1  A    between atoms: C_4  and  N_2 
REMARK       I    between atoms: C_3  and  N_8 
REMARK    2  A    between atoms: C_6  and  C_3 
REMARK    3  A    between atoms: N_5  and  C_12 
REMARK    4  A    between atoms: C_12  and  C_6 
REMARK    5  A    between atoms: N_8  and  N_7 
REMARK    6  A    between atoms: O_14  and  C_10 
ROOT
ATOM      1  C   UNL d   1      31.398  17.787 -23.982  0.00  0.00     0.387 C 
ATOM      2  N   UNL d   1      31.162  17.005 -24.118  0.00  0.00    -0.188 NA
ATOM      3  N   UNL d   1      32.160  17.947 -23.749  0.00  0.00    -0.085 NA
ATOM      4  O   UNL d   1      30.852  18.401 -24.083  0.00  0.00    -0.241 OA
ENDROOT
BRANCH   3   5
ATOM      5  N   UNL d   1      32.395  18.728 -23.613  0.00  0.00    -0.101 NA
ATOM      6  C   UNL d   1      32.861  18.913 -22.957  0.00  0.00     0.298 C 
ATOM      7  O   UNL d   1      33.091  18.314 -22.438  0.00  0.00    -0.264 OA
BRANCH   6   8
ATOM      8  C   UNL d   1      33.091  19.691 -22.827  0.00  0.00     0.083 C 
BRANCH   8   9
ATOM      9  C   UNL d   1      33.240  19.947 -22.061  0.00  0.00     0.085 C 
BRANCH   9  10
ATOM     10  N   UNL d   1      33.082  20.729 -21.846  0.00  0.00    -0.299 N 
ATOM     11  C   UNL d   1      33.169  21.327 -22.397  0.00  0.00     0.107 A 
ATOM     12  C   UNL d   1      33.011  22.107 -22.182  0.00  0.00     0.142 A 
ATOM     13  O   UNL d   1      32.765  22.279 -21.411  0.00  0.00    -0.300 OA
ATOM     14  C   UNL d   1      32.677  21.675 -20.857  0.00  0.00     0.142 A 
ATOM     15  C   UNL d   1      32.836  20.901 -21.076  0.00  0.00     0.107 A 
ENDBRANCH   9  10
ENDBRANCH   8   9
ENDBRANCH   6   8
ENDBRANCH   3   5
BRANCH   2  16
ATOM     16  C   UNL d   1      30.389  16.840 -24.354  0.00  0.00     0.108 A 
ATOM     17  C   UNL d   1      30.012  16.162 -24.090  0.00  0.00     0.112 A 
ATOM     18  C   UNL d   1      29.249  15.994 -24.320  0.00  0.00     0.026 A 
ATOM     19  C   UNL d   1      28.846  16.512 -24.824  0.00  0.00     0.002 A 
ATOM     20  C   UNL d   1      29.221  17.196 -25.093  0.00  0.00     0.002 A 
ATOM     21  C   UNL d   1      29.994  17.361 -24.857  0.00  0.00     0.021 A 
BRANCH  17  22
ATOM     22  O   UNL d   1      30.413  15.647 -23.588  0.00  0.00    -0.327 OA
ATOM     23  C   UNL d   1      30.096  15.476 -22.842  0.00  0.00     0.181 C 
ENDBRANCH  17  22
ENDBRANCH   2  16
TORSDOF 6
ENDMDL
