MODEL 1
REMARK VINA RESULT:      -3.6      0.000      0.000
REMARK  2 active torsions:
REMARK  status: ('A' for Active; 'I' for Inactive)
REMARK    1  A    between atoms: C_7  and  C_1 
REMARK    2  A    between atoms: C_9  and  C_1 
ROOT
ATOM      1  C   UNL d   1      56.023   0.020  33.107  0.00  0.00     0.240 A 
ATOM      2  S   UNL d   1      55.594   0.060  33.804  0.00  0.00    -0.043 SA
ATOM      3  N   UNL d   1      56.830   0.189  33.115  0.00  0.00    -0.199 NA
ATOM      4  C   UNL d   1      55.964   0.268  34.509  0.00  0.00     0.181 A 
ATOM      5  N   UNL d   1      56.772   0.437  34.517  0.00  0.00    -0.237 N 
ATOM      6  C   UNL d   1      57.209   0.398  33.821  0.00  0.00     0.352 A 
ATOM      7  N   UNL d   1      55.528   0.306  35.206  0.00  0.00    -0.221 NA
ATOM      8  O   UNL d   1      58.017   0.566  33.821  0.00  0.00    -0.244 OA
ATOM      9  C   UNL d   1      57.143   0.645  35.222  0.00  0.00     0.088 A 
ATOM     10  C   UNL d   1      55.899   0.513  35.903  0.00  0.00     0.103 A 
ATOM     11  C   UNL d   1      56.706   0.682  35.911  0.00  0.00     0.040 A 
ENDROOT
BRANCH   1  12
ATOM     12  C   UNL d   1      55.215  -0.150  33.098  0.00  0.00     0.429 C 
ATOM     13  F   UNL d   1      54.478  -0.291  33.091  0.00  0.00    -0.167 F 
ATOM     14  F   UNL d   1      54.559   0.402  33.120  0.00  0.00    -0.167 F 
ATOM     15  F   UNL d   1      54.821  -0.904  33.067  0.00  0.00    -0.167 F 
ENDBRANCH   1  12
BRANCH   1  16
ATOM     16  C   UNL d   1      56.468  -0.017  32.410  0.00  0.00     0.016 A 
ATOM     17  C   UNL d   1      56.618   0.679  31.982  0.00  0.00    -0.001 A 
ATOM     18  C   UNL d   1      57.061   0.645  31.287  0.00  0.00    -0.000 A 
ATOM     19  C   UNL d   1      57.356  -0.086  31.019  0.00  0.00    -0.000 A 
ATOM     20  C   UNL d   1      57.200  -0.773  31.454  0.00  0.00    -0.000 A 
ATOM     21  C   UNL d   1      56.758  -0.744  32.149  0.00  0.00    -0.001 A 
ENDBRANCH   1  16
TORSDOF 2
ENDMDL
MODEL 2
REMARK VINA RESULT:      -3.2      5.271      6.173
REMARK  2 active torsions:
REMARK  status: ('A' for Active; 'I' for Inactive)
REMARK    1  A    between atoms: C_7  and  C_1 
REMARK    2  A    between atoms: C_9  and  C_1 
ROOT
ATOM      1  C   UNL d   1      59.385  -1.129  29.192  0.00  0.00     0.240 A 
ATOM      2  S   UNL d   1      58.822  -1.725  29.190  0.00  0.00    -0.043 SA
ATOM      3  N   UNL d   1      60.155  -1.296  28.947  0.00  0.00    -0.199 NA
ATOM      4  C   UNL d   1      59.021  -2.485  28.946  0.00  0.00     0.181 A 
ATOM      5  N   UNL d   1      59.791  -2.652  28.700  0.00  0.00    -0.237 N 
ATOM      6  C   UNL d   1      60.362  -2.059  28.699  0.00  0.00     0.352 A 
ATOM      7  N   UNL d   1      58.451  -3.079  28.946  0.00  0.00    -0.221 NA
ATOM      8  O   UNL d   1      61.133  -2.218  28.455  0.00  0.00    -0.244 OA
ATOM      9  C   UNL d   1      59.990  -3.413  28.455  0.00  0.00     0.088 A 
ATOM     10  C   UNL d   1      58.652  -3.831  28.703  0.00  0.00     0.103 A 
ATOM     11  C   UNL d   1      59.422  -3.998  28.458  0.00  0.00     0.040 A 
ENDROOT
BRANCH   1  12
ATOM     12  C   UNL d   1      58.615  -0.963  29.438  0.00  0.00     0.429 C 
ATOM     13  F   UNL d   1      57.912  -0.808  29.649  0.00  0.00    -0.167 F 
ATOM     14  F   UNL d   1      57.959  -0.679  28.965  0.00  0.00    -0.167 F 
ATOM     15  F   UNL d   1      58.269  -1.025  30.214  0.00  0.00    -0.167 F 
ENDBRANCH   1  12
BRANCH   1  16
ATOM     16  C   UNL d   1      59.963  -0.538  29.189  0.00  0.00     0.016 A 
ATOM     17  C   UNL d   1      60.418  -0.405  29.871  0.00  0.00    -0.001 A 
ATOM     18  C   UNL d   1      60.996   0.184  29.871  0.00  0.00    -0.000 A 
ATOM     19  C   UNL d   1      61.120   0.643  29.187  0.00  0.00    -0.000 A 
ATOM     20  C   UNL d   1      60.659   0.501  28.513  0.00  0.00    -0.000 A 
ATOM     21  C   UNL d   1      60.082  -0.086  28.509  0.00  0.00    -0.001 A 
ENDBRANCH   1  16
TORSDOF 2
ENDMDL
MODEL 3
REMARK VINA RESULT:      -3.1      3.166      4.506
REMARK  2 active torsions:
REMARK  status: ('A' for Active; 'I' for Inactive)
REMARK    1  A    between atoms: C_7  and  C_1 
REMARK    2  A    between atoms: C_9  and  C_1 
ROOT
ATOM      1  C   UNL d   1      58.234  -0.032  30.430  0.00  0.00     0.240 A 
ATOM      2  S   UNL d   1      58.853  -0.029  29.894  0.00  0.00    -0.043 SA
ATOM      3  N   UNL d   1      58.370   0.205  31.209  0.00  0.00    -0.199 NA
ATOM      4  C   UNL d   1      59.606   0.207  30.127  0.00  0.00     0.181 A 
ATOM      5  N   UNL d   1      59.741   0.444  30.906  0.00  0.00    -0.237 N 
ATOM      6  C   UNL d   1      59.124   0.444  31.451  0.00  0.00     0.352 A 
ATOM      7  N   UNL d   1      60.223   0.208  29.583  0.00  0.00    -0.221 NA
ATOM      8  O   UNL d   1      59.252   0.680  32.231  0.00  0.00    -0.244 OA
ATOM      9  C   UNL d   1      60.495   0.682  31.140  0.00  0.00     0.088 A 
ATOM     10  C   UNL d   1      60.968   0.443  29.818  0.00  0.00     0.103 A 
ATOM     11  C   UNL d   1      61.104   0.680  30.596  0.00  0.00     0.040 A 
ENDROOT
BRANCH   1  12
ATOM     12  C   UNL d   1      58.098  -0.269  29.652  0.00  0.00     0.429 C 
ATOM     13  F   UNL d   1      57.978  -0.497  28.947  0.00  0.00    -0.167 F 
ATOM     14  F   UNL d   1      58.160  -1.058  29.321  0.00  0.00    -0.167 F 
ATOM     15  F   UNL d   1      57.864   0.196  28.978  0.00  0.00    -0.167 F 
ENDBRANCH   1  12
BRANCH   1  16
ATOM     16  C   UNL d   1      57.618  -0.030  30.983  0.00  0.00     0.016 A 
ATOM     17  C   UNL d   1      57.376  -0.744  31.330  0.00  0.00    -0.001 A 
ATOM     18  C   UNL d   1      56.762  -0.745  31.882  0.00  0.00    -0.000 A 
ATOM     19  C   UNL d   1      56.389  -0.030  32.088  0.00  0.00    -0.000 A 
ATOM     20  C   UNL d   1      56.640   0.676  31.735  0.00  0.00    -0.000 A 
ATOM     21  C   UNL d   1      57.252   0.682  31.184  0.00  0.00    -0.001 A 
ENDBRANCH   1  16
TORSDOF 2
ENDMDL
MODEL 4
REMARK VINA RESULT:      -2.6      5.478      6.204
REMARK  2 active torsions:
REMARK  status: ('A' for Active; 'I' for Inactive)
REMARK    1  A    between atoms: C_7  and  C_1 
REMARK    2  A    between atoms: C_9  and  C_1 
ROOT
ATOM      1  C   UNL d   1      59.336  -2.227  29.072  0.00  0.00     0.240 A 
ATOM      2  S   UNL d   1      58.765  -1.641  29.032  0.00  0.00    -0.043 SA
ATOM      3  N   UNL d   1      60.124  -2.038  28.920  0.00  0.00    -0.199 NA
ATOM      4  C   UNL d   1      58.974  -0.869  28.841  0.00  0.00     0.181 A 
ATOM      5  N   UNL d   1      59.762  -0.680  28.689  0.00  0.00    -0.237 N 
ATOM      6  C   UNL d   1      60.342  -1.263  28.727  0.00  0.00     0.352 A 
ATOM      7  N   UNL d   1      58.395  -0.284  28.803  0.00  0.00    -0.221 NA
ATOM      8  O   UNL d   1      61.132  -1.082  28.576  0.00  0.00    -0.244 OA
ATOM      9  C   UNL d   1      59.972   0.094  28.498  0.00  0.00     0.088 A 
ATOM     10  C   UNL d   1      58.606   0.481  28.613  0.00  0.00     0.103 A 
ATOM     11  C   UNL d   1      59.395   0.670  28.461  0.00  0.00     0.040 A 
ENDROOT
BRANCH   1  12
ATOM     12  C   UNL d   1      58.547  -2.416  29.224  0.00  0.00     0.429 C 
ATOM     13  F   UNL d   1      57.829  -2.592  29.351  0.00  0.00    -0.167 F 
ATOM     14  F   UNL d   1      57.968  -2.745  28.684  0.00  0.00    -0.167 F 
ATOM     15  F   UNL d   1      58.102  -2.338  29.946  0.00  0.00    -0.167 F 
ENDBRANCH   1  12
BRANCH   1  16
ATOM     16  C   UNL d   1      59.923  -2.809  29.109  0.00  0.00     0.016 A 
ATOM     17  C   UNL d   1      60.399  -2.869  29.787  0.00  0.00    -0.001 A 
ATOM     18  C   UNL d   1      60.985  -3.448  29.827  0.00  0.00    -0.000 A 
ATOM     19  C   UNL d   1      61.097  -3.970  29.187  0.00  0.00    -0.000 A 
ATOM     20  C   UNL d   1      60.616  -3.899  28.517  0.00  0.00    -0.000 A 
ATOM     21  C   UNL d   1      60.029  -3.323  28.472  0.00  0.00    -0.001 A 
ENDBRANCH   1  16
TORSDOF 2
ENDMDL
MODEL 5
REMARK VINA RESULT:      -2.4      1.003      1.554
REMARK  2 active torsions:
REMARK  status: ('A' for Active; 'I' for Inactive)
REMARK    1  A    between atoms: C_7  and  C_1 
REMARK    2  A    between atoms: C_9  and  C_1 
ROOT
ATOM      1  C   UNL d   1      56.896  -0.040  32.110  0.00  0.00     0.240 A 
ATOM      2  S   UNL d   1      56.527  -0.038  32.841  0.00  0.00    -0.043 SA
ATOM      3  N   UNL d   1      57.683   0.201  32.050  0.00  0.00    -0.199 NA
ATOM      4  C   UNL d   1      56.937   0.201  33.513  0.00  0.00     0.181 A 
ATOM      5  N   UNL d   1      57.724   0.442  33.454  0.00  0.00    -0.237 N 
ATOM      6  C   UNL d   1      58.101   0.443  32.723  0.00  0.00     0.352 A 
ATOM      7  N   UNL d   1      56.561   0.200  34.246  0.00  0.00    -0.221 NA
ATOM      8  O   UNL d   1      58.888   0.682  32.655  0.00  0.00    -0.244 OA
ATOM      9  C   UNL d   1      58.134   0.681  34.127  0.00  0.00     0.088 A 
ATOM     10  C   UNL d   1      56.970   0.438  34.910  0.00  0.00     0.103 A 
ATOM     11  C   UNL d   1      57.757   0.679  34.851  0.00  0.00     0.040 A 
ENDROOT
BRANCH   1  12
ATOM     12  C   UNL d   1      56.109  -0.280  32.169  0.00  0.00     0.429 C 
ATOM     13  F   UNL d   1      55.398  -0.511  32.224  0.00  0.00    -0.167 F 
ATOM     14  F   UNL d   1      55.804  -1.078  32.239  0.00  0.00    -0.167 F 
ATOM     15  F   UNL d   1      55.399   0.190  32.176  0.00  0.00    -0.167 F 
ENDBRANCH   1  12
BRANCH   1  16
ATOM     16  C   UNL d   1      57.281  -0.036  31.377  0.00  0.00     0.016 A 
ATOM     17  C   UNL d   1      57.682  -0.717  31.121  0.00  0.00    -0.001 A 
ATOM     18  C   UNL d   1      58.067  -0.717  30.391  0.00  0.00    -0.000 A 
ATOM     19  C   UNL d   1      58.052  -0.033  29.916  0.00  0.00    -0.000 A 
ATOM     20  C   UNL d   1      57.650   0.639  30.182  0.00  0.00    -0.000 A 
ATOM     21  C   UNL d   1      57.264   0.644  30.910  0.00  0.00    -0.001 A 
ENDBRANCH   1  16
TORSDOF 2
ENDMDL
MODEL 6
REMARK VINA RESULT:      -2.1      9.576     10.444
REMARK  2 active torsions:
REMARK  status: ('A' for Active; 'I' for Inactive)
REMARK    1  A    between atoms: C_7  and  C_1 
REMARK    2  A    between atoms: C_9  and  C_1 
ROOT
ATOM      1  C   UNL d   1      59.694  -9.184  33.902  0.00  0.00     0.240 A 
ATOM      2  S   UNL d   1      59.788  -9.321  33.100  0.00  0.00    -0.043 SA
ATOM      3  N   UNL d   1      58.939  -9.213  34.234  0.00  0.00    -0.199 NA
ATOM      4  C   UNL d   1      59.136  -9.487  32.626  0.00  0.00     0.181 A 
ATOM      5  N   UNL d   1      58.381  -9.517  32.958  0.00  0.00    -0.237 N 
ATOM      6  C   UNL d   1      58.278  -9.380  33.763  0.00  0.00     0.352 A 
ATOM      7  N   UNL d   1      59.238  -9.624  31.821  0.00  0.00    -0.221 NA
ATOM      8  O   UNL d   1      57.527  -9.408  34.102  0.00  0.00    -0.244 OA
ATOM      9  C   UNL d   1      57.728  -9.683  32.484  0.00  0.00     0.088 A 
ATOM     10  C   UNL d   1      58.589  -9.788  31.354  0.00  0.00     0.103 A 
ATOM     11  C   UNL d   1      57.834  -9.818  31.686  0.00  0.00     0.040 A 
ENDROOT
BRANCH   1  12
ATOM     12  C   UNL d   1      60.449  -9.154  33.570  0.00  0.00     0.429 C 
ATOM     13  F   UNL d   1      61.133  -9.115  33.267  0.00  0.00    -0.167 F 
ATOM     14  F   UNL d   1      60.863  -8.471  33.259  0.00  0.00    -0.167 F 
ATOM     15  F   UNL d   1      61.011  -9.783  33.449  0.00  0.00    -0.167 F 
ENDBRANCH   1  12
BRANCH   1  16
ATOM     16  C   UNL d   1      59.584  -9.048  34.710  0.00  0.00     0.016 A 
ATOM     17  C   UNL d   1      59.610  -9.686  35.242  0.00  0.00    -0.001 A 
ATOM     18  C   UNL d   1      59.501  -9.553  36.049  0.00  0.00    -0.000 A 
ATOM     19  C   UNL d   1      59.364  -8.780  36.326  0.00  0.00    -0.000 A 
ATOM     20  C   UNL d   1      59.340  -8.152  35.787  0.00  0.00    -0.000 A 
ATOM     21  C   UNL d   1      59.448  -8.280  34.981  0.00  0.00    -0.001 A 
ENDBRANCH   1  16
TORSDOF 2
ENDMDL
MODEL 7
REMARK VINA RESULT:      -1.7      1.197      3.074
REMARK  2 active torsions:
REMARK  status: ('A' for Active; 'I' for Inactive)
REMARK    1  A    between atoms: C_7  and  C_1 
REMARK    2  A    between atoms: C_9  and  C_1 
ROOT
ATOM      1  C   UNL d   1      55.988  -0.834  33.082  0.00  0.00     0.240 A 
ATOM      2  S   UNL d   1      56.117  -1.304  32.423  0.00  0.00    -0.043 SA
ATOM      3  N   UNL d   1      56.464  -0.173  33.210  0.00  0.00    -0.199 NA
ATOM      4  C   UNL d   1      56.716  -1.119  31.891  0.00  0.00     0.181 A 
ATOM      5  N   UNL d   1      57.193  -0.458  32.018  0.00  0.00    -0.237 N 
ATOM      6  C   UNL d   1      57.070   0.019  32.678  0.00  0.00     0.352 A 
ATOM      7  N   UNL d   1      56.841  -1.595  31.230  0.00  0.00    -0.221 NA
ATOM      8  O   UNL d   1      57.542   0.681  32.813  0.00  0.00    -0.244 OA
ATOM      9  C   UNL d   1      57.794  -0.273  31.486  0.00  0.00     0.088 A 
ATOM     10  C   UNL d   1      57.436  -1.409  30.705  0.00  0.00     0.103 A 
ATOM     11  C   UNL d   1      57.913  -0.748  30.833  0.00  0.00     0.040 A 
ENDROOT
BRANCH   1  12
ATOM     12  C   UNL d   1      55.511  -1.495  32.954  0.00  0.00     0.429 C 
ATOM     13  F   UNL d   1      55.087  -2.104  32.844  0.00  0.00    -0.167 F 
ATOM     14  F   UNL d   1      55.657  -2.306  33.191  0.00  0.00    -0.167 F 
ATOM     15  F   UNL d   1      54.758  -1.551  32.560  0.00  0.00    -0.167 F 
ENDBRANCH   1  12
BRANCH   1  16
ATOM     16  C   UNL d   1      55.869  -0.351  33.743  0.00  0.00     0.016 A 
ATOM     17  C   UNL d   1      55.245   0.197  33.744  0.00  0.00    -0.001 A 
ATOM     18  C   UNL d   1      55.124   0.680  34.402  0.00  0.00    -0.000 A 
ATOM     19  C   UNL d   1      55.629   0.616  35.061  0.00  0.00    -0.000 A 
ATOM     20  C   UNL d   1      56.248   0.066  35.048  0.00  0.00    -0.000 A 
ATOM     21  C   UNL d   1      56.372  -0.418  34.393  0.00  0.00    -0.001 A 
ENDBRANCH   1  16
TORSDOF 2
ENDMDL
MODEL 8
REMARK VINA RESULT:      -1.6      3.254      4.275
REMARK  2 active torsions:
REMARK  status: ('A' for Active; 'I' for Inactive)
REMARK    1  A    between atoms: C_7  and  C_1 
REMARK    2  A    between atoms: C_9  and  C_1 
ROOT
ATOM      1  C   UNL d   1      58.771   0.013  29.784  0.00  0.00     0.240 A 
ATOM      2  S   UNL d   1      57.998   0.037  30.052  0.00  0.00    -0.043 SA
ATOM      3  N   UNL d   1      59.386   0.207  30.298  0.00  0.00    -0.199 NA
ATOM      4  C   UNL d   1      57.832   0.252  30.829  0.00  0.00     0.181 A 
ATOM      5  N   UNL d   1      58.447   0.446  31.343  0.00  0.00    -0.237 N 
ATOM      6  C   UNL d   1      59.227   0.425  31.081  0.00  0.00     0.352 A 
ATOM      7  N   UNL d   1      57.053   0.273  31.092  0.00  0.00    -0.221 NA
ATOM      8  O   UNL d   1      59.848   0.617  31.590  0.00  0.00    -0.244 OA
ATOM      9  C   UNL d   1      58.282   0.661  32.121  0.00  0.00     0.088 A 
ATOM     10  C   UNL d   1      56.893   0.487  31.863  0.00  0.00     0.103 A 
ATOM     11  C   UNL d   1      57.508   0.681  32.378  0.00  0.00     0.040 A 
ENDROOT
BRANCH   1  12
ATOM     12  C   UNL d   1      58.157  -0.181  29.269  0.00  0.00     0.429 C 
ATOM     13  F   UNL d   1      57.594  -0.345  28.800  0.00  0.00    -0.167 F 
ATOM     14  F   UNL d   1      57.608   0.349  28.876  0.00  0.00    -0.167 F 
ATOM     15  F   UNL d   1      57.903  -0.946  28.993  0.00  0.00    -0.167 F 
ENDBRANCH   1  12
BRANCH   1  16
ATOM     16  C   UNL d   1      59.557  -0.006  29.527  0.00  0.00     0.016 A 
ATOM     17  C   UNL d   1      59.985  -0.717  29.567  0.00  0.00    -0.001 A 
ATOM     18  C   UNL d   1      60.770  -0.739  29.311  0.00  0.00    -0.000 A 
ATOM     19  C   UNL d   1      61.128  -0.049  29.014  0.00  0.00    -0.000 A 
ATOM     20  C   UNL d   1      60.691   0.654  28.979  0.00  0.00    -0.000 A 
ATOM     21  C   UNL d   1      59.908   0.681  29.233  0.00  0.00    -0.001 A 
ENDBRANCH   1  16
TORSDOF 2
ENDMDL
