MODEL 1
REMARK VINA RESULT:       7.0      0.000      0.000
REMARK  3 active torsions:
REMARK  status: ('A' for Active; 'I' for Inactive)
REMARK    1  A    between atoms: C_4  and  C_1 
REMARK    2  A    between atoms: C_12  and  N_3 
REMARK    3  A    between atoms: C_14  and  C_7 
ROOT
ATOM      1  N   UNL d   1     -42.691-122.630 -51.340  0.00  0.00    -0.165 NA
ATOM      2  N   UNL d   1     -42.715-122.767 -50.541  0.00  0.00    -0.230 N 
ATOM      3  C   UNL d   1     -41.937-122.572 -51.589  0.00  0.00     0.108 A 
ATOM      4  C   UNL d   1     -41.909-122.798 -50.272  0.00  0.00     0.084 A 
ATOM      5  C   UNL d   1     -41.426-122.676 -50.925  0.00  0.00     0.040 A 
ENDROOT
BRANCH   3   6
ATOM      6  C   UNL d   1     -41.737-122.433 -52.371  0.00  0.00     0.083 A 
ATOM      7  C   UNL d   1     -41.476-121.677 -52.598  0.00  0.00     0.302 A 
ATOM      8  O   UNL d   1     -41.272-121.535 -53.393  0.00  0.00    -0.273 OA
ATOM      9  O   UNL d   1     -41.423-121.072 -52.027  0.00  0.00    -0.259 OA
ATOM     10  C   UNL d   1     -41.326-122.135 -53.949  0.00  0.00     0.103 A 
ATOM     11  C   UNL d   1     -41.586-122.891 -53.723  0.00  0.00     0.023 A 
ATOM     12  C   UNL d   1     -41.123-121.985 -54.725  0.00  0.00     0.025 A 
ATOM     13  C   UNL d   1     -41.790-123.038 -52.942  0.00  0.00     0.009 A 
ATOM     14  C   UNL d   1     -41.641-123.489 -54.274  0.00  0.00     0.002 A 
ATOM     15  C   UNL d   1     -41.438-123.341 -55.055  0.00  0.00     0.000 A 
ATOM     16  C   UNL d   1     -41.178-122.585 -55.281  0.00  0.00     0.002 A 
ENDBRANCH   3   6
BRANCH   2  17
ATOM     17  C   UNL d   1     -43.402-122.856 -50.106  0.00  0.00     0.083 A 
ATOM     18  C   UNL d   1     -43.822-122.188 -49.864  0.00  0.00     0.019 A 
ATOM     19  C   UNL d   1     -44.520-122.269 -49.422  0.00  0.00     0.002 A 
ATOM     20  C   UNL d   1     -44.791-123.038 -49.225  0.00  0.00     0.000 A 
ATOM     21  C   UNL d   1     -44.370-123.706 -49.467  0.00  0.00     0.002 A 
ATOM     22  C   UNL d   1     -43.667-123.618 -49.912  0.00  0.00     0.019 A 
ENDBRANCH   2  17
BRANCH   4  23
ATOM     23  C   UNL d   1     -41.653-122.923 -49.514  0.00  0.00     0.018 A 
ATOM     24  C   UNL d   1     -41.625-122.313 -48.973  0.00  0.00     0.002 A 
ATOM     25  C   UNL d   1     -41.364-122.441 -48.205  0.00  0.00     0.000 A 
ATOM     26  C   UNL d   1     -41.125-123.194 -47.964  0.00  0.00     0.000 A 
ATOM     27  C   UNL d   1     -41.151-123.818 -48.509  0.00  0.00     0.000 A 
ATOM     28  C   UNL d   1     -41.416-123.679 -49.287  0.00  0.00     0.002 A 
ENDBRANCH   4  23
TORSDOF 3
ENDMDL
MODEL 2
REMARK VINA RESULT:       9.1      1.431      4.805
REMARK  3 active torsions:
REMARK  status: ('A' for Active; 'I' for Inactive)
REMARK    1  A    between atoms: C_4  and  C_1 
REMARK    2  A    between atoms: C_12  and  N_3 
REMARK    3  A    between atoms: C_14  and  C_7 
ROOT
ATOM      1  N   UNL d   1     -42.065-122.069 -51.005  0.00  0.00    -0.165 NA
ATOM      2  N   UNL d   1     -41.949-122.079 -51.807  0.00  0.00    -0.230 N 
ATOM      3  C   UNL d   1     -42.172-122.809 -50.730  0.00  0.00     0.108 A 
ATOM      4  C   UNL d   1     -41.987-122.892 -52.051  0.00  0.00     0.084 A 
ATOM      5  C   UNL d   1     -42.126-123.346 -51.381  0.00  0.00     0.040 A 
ENDROOT
BRANCH   3   6
ATOM      6  C   UNL d   1     -42.302-122.976 -49.939  0.00  0.00     0.083 A 
ATOM      7  C   UNL d   1     -43.072-122.922 -49.632  0.00  0.00     0.302 A 
ATOM      8  O   UNL d   1     -43.206-123.092 -48.827  0.00  0.00    -0.273 OA
ATOM      9  O   UNL d   1     -43.699-122.699 -50.133  0.00  0.00    -0.259 OA
ATOM     10  C   UNL d   1     -42.584-123.311 -48.340  0.00  0.00     0.103 A 
ATOM     11  C   UNL d   1     -41.813-123.365 -48.647  0.00  0.00     0.023 A 
ATOM     12  C   UNL d   1     -42.725-123.475 -47.554  0.00  0.00     0.025 A 
ATOM     13  C   UNL d   1     -41.674-123.199 -49.438  0.00  0.00     0.009 A 
ATOM     14  C   UNL d   1     -41.193-123.582 -48.165  0.00  0.00     0.002 A 
ATOM     15  C   UNL d   1     -41.332-123.747 -47.374  0.00  0.00     0.000 A 
ATOM     16  C   UNL d   1     -42.102-123.694 -47.067  0.00  0.00     0.002 A 
ENDBRANCH   3   6
BRANCH   2  17
ATOM     17  C   UNL d   1     -41.822-121.414 -52.266  0.00  0.00     0.083 A 
ATOM     18  C   UNL d   1     -41.259-120.857 -52.034  0.00  0.00     0.019 A 
ATOM     19  C   UNL d   1     -41.124-120.180 -52.493  0.00  0.00     0.002 A 
ATOM     20  C   UNL d   1     -41.568-120.069 -53.196  0.00  0.00     0.000 A 
ATOM     21  C   UNL d   1     -42.132-120.625 -53.428  0.00  0.00     0.002 A 
ATOM     22  C   UNL d   1     -42.264-121.307 -52.960  0.00  0.00     0.019 A 
ENDBRANCH   2  17
BRANCH   4  23
ATOM     23  C   UNL d   1     -41.904-123.179 -52.805  0.00  0.00     0.018 A 
ATOM     24  C   UNL d   1     -41.206-123.526 -53.048  0.00  0.00     0.002 A 
ATOM     25  C   UNL d   1     -41.123-123.816 -53.811  0.00  0.00     0.000 A 
ATOM     26  C   UNL d   1     -41.747-123.764 -54.350  0.00  0.00     0.000 A 
ATOM     27  C   UNL d   1     -42.457-123.412 -54.108  0.00  0.00     0.000 A 
ATOM     28  C   UNL d   1     -42.534-123.120 -53.332  0.00  0.00     0.002 A 
ENDBRANCH   4  23
TORSDOF 3
ENDMDL
