MODEL 1
REMARK VINA RESULT:      -2.6      0.000      0.000
REMARK  4 active torsions:
REMARK  status: ('A' for Active; 'I' for Inactive)
REMARK    1  A    between atoms: C_9  and  N_1 
REMARK    2  A    between atoms: C_2  and  N_5 
REMARK    3  A    between atoms: N_5  and  O_12 
REMARK    4  A    between atoms: O_12  and  C_16 
ROOT
ATOM      1  N   UNL d   1      32.621  20.786 -22.101  0.00  0.00    -0.126 NA
ENDROOT
BRANCH   1   2
ATOM      2  C   UNL d   1      32.749  21.513 -21.733  0.00  0.00     0.108 A 
ATOM      3  C   UNL d   1      32.992  22.167 -22.191  0.00  0.00     0.023 A 
ATOM      4  C   UNL d   1      33.116  22.876 -21.832  0.00  0.00     0.044 A 
ATOM      5  C   UNL d   1      33.111  22.087 -23.052  0.00  0.00     0.002 C 
ATOM      6  C   UNL d   1      33.001  22.953 -21.003  0.00  0.00     0.196 A 
ATOM      7  C   UNL d   1      32.764  22.302 -20.579  0.00  0.00     0.044 A 
ATOM      8  O   UNL d   1      33.128  23.680 -20.635  0.00  0.00    -0.287 OA
ATOM      9  C   UNL d   1      32.637  21.575 -20.947  0.00  0.00     0.023 A 
ATOM     10  C   UNL d   1      32.414  20.978 -20.524  0.00  0.00     0.002 C 
ENDBRANCH   1   2
BRANCH   1  11
ATOM     11  O   UNL d   1      33.241  20.345 -22.387  0.00  0.00    -0.211 OA
BRANCH  11  12
ATOM     12  C   UNL d   1      33.127  19.595 -22.667  0.00  0.00     0.125 A 
ATOM     13  C   UNL d   1      32.894  19.472 -23.460  0.00  0.00     0.029 A 
ATOM     14  C   UNL d   1      32.777  18.707 -23.746  0.00  0.00     0.026 A 
ATOM     15  C   UNL d   1      32.892  18.054 -23.242  0.00  0.00     0.127 A 
ATOM     16  C   UNL d   1      33.122  18.175 -22.459  0.00  0.00     0.026 A 
ATOM     17  C   UNL d   1      33.241  18.956 -22.168  0.00  0.00     0.029 A 
BRANCH  15  18
ATOM     18  N   UNL d   1      32.778  17.299 -23.523  0.00  0.00    -0.114 N 
ATOM     19  O   UNL d   1      33.230  16.929 -24.103  0.00  0.00    -0.532 OA
ATOM     20  O   UNL d   1      32.190  16.803 -23.263  0.00  0.00    -0.532 OA
ENDBRANCH  15  18
ENDBRANCH  11  12
ENDBRANCH   1  11
TORSDOF 4
ENDMDL
MODEL 2
REMARK VINA RESULT:      -1.6      1.546      4.943
REMARK  4 active torsions:
REMARK  status: ('A' for Active; 'I' for Inactive)
REMARK    1  A    between atoms: C_9  and  N_1 
REMARK    2  A    between atoms: C_2  and  N_5 
REMARK    3  A    between atoms: N_5  and  O_12 
REMARK    4  A    between atoms: O_12  and  C_16 
ROOT
ATOM      1  N   UNL d   1      32.130  18.570 -23.463  0.00  0.00    -0.126 NA
ENDROOT
BRANCH   1   2
ATOM      2  C   UNL d   1      32.041  17.860 -23.873  0.00  0.00     0.108 A 
ATOM      3  C   UNL d   1      32.383  17.163 -23.565  0.00  0.00     0.023 A 
ATOM      4  C   UNL d   1      32.296  16.471 -23.965  0.00  0.00     0.044 A 
ATOM      5  C   UNL d   1      32.830  17.182 -22.816  0.00  0.00     0.002 C 
ATOM      6  C   UNL d   1      31.865  16.454 -24.686  0.00  0.00     0.196 A 
ATOM      7  C   UNL d   1      31.542  17.144 -24.966  0.00  0.00     0.044 A 
ATOM      8  O   UNL d   1      31.776  15.744 -25.097  0.00  0.00    -0.287 OA
ATOM      9  C   UNL d   1      31.630  17.854 -24.556  0.00  0.00     0.023 A 
ATOM     10  C   UNL d   1      31.316  18.491 -24.841  0.00  0.00     0.002 C 
ENDBRANCH   1   2
BRANCH   1  11
ATOM     11  O   UNL d   1      32.856  18.926 -23.391  0.00  0.00    -0.211 OA
BRANCH  11  12
ATOM     12  C   UNL d   1      32.926  19.684 -23.118  0.00  0.00     0.125 A 
ATOM     13  C   UNL d   1      33.170  20.296 -23.632  0.00  0.00     0.029 A 
ATOM     14  C   UNL d   1      33.241  21.070 -23.353  0.00  0.00     0.026 A 
ATOM     15  C   UNL d   1      33.069  21.241 -22.557  0.00  0.00     0.127 A 
ATOM     16  C   UNL d   1      32.828  20.638 -22.050  0.00  0.00     0.026 A 
ATOM     17  C   UNL d   1      32.755  19.848 -22.334  0.00  0.00     0.029 A 
BRANCH  15  18
ATOM     18  N   UNL d   1      33.139  22.004 -22.282  0.00  0.00    -0.114 N 
ATOM     19  O   UNL d   1      33.131  22.232 -21.491  0.00  0.00    -0.532 OA
ATOM     20  O   UNL d   1      33.227  22.653 -22.763  0.00  0.00    -0.532 OA
ENDBRANCH  15  18
ENDBRANCH  11  12
ENDBRANCH   1  11
TORSDOF 4
ENDMDL
MODEL 3
REMARK VINA RESULT:      -1.1      0.958      4.564
REMARK  4 active torsions:
REMARK  status: ('A' for Active; 'I' for Inactive)
REMARK    1  A    between atoms: C_9  and  N_1 
REMARK    2  A    between atoms: C_2  and  N_5 
REMARK    3  A    between atoms: N_5  and  O_12 
REMARK    4  A    between atoms: O_12  and  C_16 
ROOT
ATOM      1  N   UNL d   1      33.241  19.996 -22.407  0.00  0.00    -0.126 NA
ENDROOT
BRANCH   1   2
ATOM      2  C   UNL d   1      33.188  19.323 -22.880  0.00  0.00     0.108 A 
ATOM      3  C   UNL d   1      33.135  19.408 -23.709  0.00  0.00     0.023 A 
ATOM      4  C   UNL d   1      33.083  18.751 -24.171  0.00  0.00     0.044 A 
ATOM      5  C   UNL d   1      33.134  20.200 -24.075  0.00  0.00     0.002 C 
ATOM      6  C   UNL d   1      33.084  17.989 -23.818  0.00  0.00     0.196 A 
ATOM      7  C   UNL d   1      33.137  17.931 -23.009  0.00  0.00     0.044 A 
ATOM      8  O   UNL d   1      33.031  17.315 -24.291  0.00  0.00    -0.287 OA
ATOM      9  C   UNL d   1      33.190  18.604 -22.536  0.00  0.00     0.023 A 
ATOM     10  C   UNL d   1      33.239  18.522 -21.776  0.00  0.00     0.002 C 
ENDBRANCH   1   2
BRANCH   1  11
ATOM     11  O   UNL d   1      32.621  20.517 -22.346  0.00  0.00    -0.211 OA
BRANCH  11  12
ATOM     12  C   UNL d   1      32.624  21.110 -21.796  0.00  0.00     0.125 A 
ATOM     13  C   UNL d   1      32.128  21.064 -21.124  0.00  0.00     0.029 A 
ATOM     14  C   UNL d   1      32.132  21.668 -20.563  0.00  0.00     0.026 A 
ATOM     15  C   UNL d   1      32.631  22.327 -20.666  0.00  0.00     0.127 A 
ATOM     16  C   UNL d   1      33.120  22.372 -21.327  0.00  0.00     0.026 A 
ATOM     17  C   UNL d   1      33.117  21.755 -21.900  0.00  0.00     0.029 A 
BRANCH  15  18
ATOM     18  N   UNL d   1      32.635  22.924 -20.112  0.00  0.00    -0.114 N 
ATOM     19  O   UNL d   1      33.037  22.910 -19.394  0.00  0.00    -0.532 OA
ATOM     20  O   UNL d   1      32.233  23.624 -20.198  0.00  0.00    -0.532 OA
ENDBRANCH  15  18
ENDBRANCH  11  12
ENDBRANCH   1  11
TORSDOF 4
ENDMDL
MODEL 4
REMARK VINA RESULT:      -0.0      1.818      4.863
REMARK  4 active torsions:
REMARK  status: ('A' for Active; 'I' for Inactive)
REMARK    1  A    between atoms: C_9  and  N_1 
REMARK    2  A    between atoms: C_2  and  N_5 
REMARK    3  A    between atoms: N_5  and  O_12 
REMARK    4  A    between atoms: O_12  and  C_16 
ROOT
ATOM      1  N   UNL d   1      33.143  21.597 -21.576  0.00  0.00    -0.126 NA
ENDROOT
BRANCH   1   2
ATOM      2  C   UNL d   1      33.101  21.132 -22.256  0.00  0.00     0.108 A 
ATOM      3  C   UNL d   1      33.124  20.299 -22.186  0.00  0.00     0.023 A 
ATOM      4  C   UNL d   1      33.083  19.846 -22.849  0.00  0.00     0.044 A 
ATOM      5  C   UNL d   1      33.192  19.922 -21.402  0.00  0.00     0.002 C 
ATOM      6  C   UNL d   1      33.017  20.211 -23.603  0.00  0.00     0.196 A 
ATOM      7  C   UNL d   1      32.996  21.021 -23.647  0.00  0.00     0.044 A 
ATOM      8  O   UNL d   1      32.975  19.745 -24.283  0.00  0.00    -0.287 OA
ATOM      9  C   UNL d   1      33.039  21.486 -22.967  0.00  0.00     0.023 A 
ATOM     10  C   UNL d   1      33.017  22.248 -23.035  0.00  0.00     0.002 C 
ENDBRANCH   1   2
BRANCH   1  11
ATOM     11  O   UNL d   1      32.471  21.833 -21.187  0.00  0.00    -0.211 OA
BRANCH  11  12
ATOM     12  C   UNL d   1      32.510  22.175 -20.454  0.00  0.00     0.125 A 
ATOM     13  C   UNL d   1      32.202  21.777 -19.787  0.00  0.00     0.029 A 
ATOM     14  C   UNL d   1      32.242  22.125 -19.040  0.00  0.00     0.026 A 
ATOM     15  C   UNL d   1      32.590  22.877 -18.951  0.00  0.00     0.127 A 
ATOM     16  C   UNL d   1      32.893  23.270 -19.609  0.00  0.00     0.026 A 
ATOM     17  C   UNL d   1      32.852  22.914 -20.371  0.00  0.00     0.029 A 
BRANCH  15  18
ATOM     18  N   UNL d   1      32.629  23.221 -18.214  0.00  0.00    -0.114 N 
ATOM     19  O   UNL d   1      33.239  23.702 -17.941  0.00  0.00    -0.532 OA
ATOM     20  O   UNL d   1      32.060  23.132 -17.642  0.00  0.00    -0.532 OA
ENDBRANCH  15  18
ENDBRANCH  11  12
ENDBRANCH   1  11
TORSDOF 4
ENDMDL
