MODEL 1
REMARK VINA RESULT:      58.4      0.000      0.000
REMARK  1 active torsions:
REMARK  status: ('A' for Active; 'I' for Inactive)
REMARK       I    between atoms: C_4  and  N_1 
REMARK    1  A    between atoms: C_7  and  C_4 
ROOT
ATOM      1  N   UNL d   1      60.102  49.661  51.033  0.00  0.00    -0.175 N 
ATOM      2  N   UNL d   1      59.489  49.686  51.592  0.00  0.00    -0.057 NA
ATOM      3  N   UNL d   1      58.779  49.699  51.189  0.00  0.00    -0.129 NA
ATOM      4  C   UNL d   1      60.916  49.642  51.203  0.00  0.00     0.282 C 
ATOM      5  C   UNL d   1      59.765  49.659  50.281  0.00  0.00     0.107 A 
ATOM      6  C   UNL d   1      58.945  49.683  50.375  0.00  0.00     0.122 A 
ATOM      7  O   UNL d   1      61.458  49.618  50.587  0.00  0.00    -0.265 OA
ATOM      8  C   UNL d   1      60.090  49.640  49.526  0.00  0.00     0.021 A 
ATOM      9  C   UNL d   1      58.448  49.687  49.704  0.00  0.00     0.022 A 
ATOM     10  C   UNL d   1      59.599  49.643  48.863  0.00  0.00     0.002 A 
ATOM     11  C   UNL d   1      58.777  49.667  48.948  0.00  0.00     0.002 A 
ENDROOT
BRANCH   4  12
ATOM     12  C   UNL d   1      61.169  49.646  51.987  0.00  0.00     0.058 A 
ATOM     13  C   UNL d   1      61.973  49.601  52.163  0.00  0.00     0.005 A 
ATOM     14  C   UNL d   1      62.226  49.606  52.947  0.00  0.00     0.000 A 
ATOM     15  C   UNL d   1      61.681  49.655  53.561  0.00  0.00     0.000 A 
ATOM     16  C   UNL d   1      60.876  49.700  53.388  0.00  0.00     0.000 A 
ATOM     17  C   UNL d   1      61.947  49.659  54.354  0.00  0.00     0.000 C 
ATOM     18  C   UNL d   1      60.620  49.696  52.604  0.00  0.00     0.005 A 
ENDBRANCH   4  12
TORSDOF 1
ENDMDL
