MODEL 1
REMARK VINA RESULT:      -1.9      0.000      0.000
REMARK  7 active torsions:
REMARK  status: ('A' for Active; 'I' for Inactive)
REMARK    1  A    between atoms: S_6  and  C_1 
REMARK    2  A    between atoms: C_12  and  N_2 
REMARK       I    between atoms: N_4  and  C_8 
REMARK    3  A    between atoms: C_5  and  N_4 
REMARK    4  A    between atoms: C_15  and  S_6 
REMARK    5  A    between atoms: O_18  and  C_7 
REMARK    6  A    between atoms: C_8  and  C_15 
REMARK    7  A    between atoms: O_19  and  C_16 
ROOT
ATOM      1  N   UNL d   1     -41.812-122.981 -52.396  0.00  0.00    -0.206 NA
ATOM      2  C   UNL d   1     -41.631-122.678 -51.659  0.00  0.00     0.286 C 
ATOM      3  O   UNL d   1     -41.505-121.871 -51.558  0.00  0.00    -0.265 OA
ENDROOT
BRANCH   2   4
ATOM      4  C   UNL d   1     -41.573-123.176 -51.021  0.00  0.00     0.101 C 
BRANCH   4   5
ATOM      5  S   UNL d   1     -41.824-122.931 -50.273  0.00  0.00    -0.044 SA
BRANCH   5   6
ATOM      6  C   UNL d   1     -42.501-123.263 -49.931  0.00  0.00     0.180 A 
ATOM      7  N   UNL d   1     -42.625-123.379 -49.130  0.00  0.00    -0.284 N 
ATOM      8  C   UNL d   1     -43.372-123.722 -49.042  0.00  0.00     0.103 A 
ATOM      9  C   UNL d   1     -43.706-123.816 -49.804  0.00  0.00     0.120 A 
ATOM     10  N   UNL d   1     -43.165-123.531 -50.337  0.00  0.00    -0.219 NA
BRANCH   7  11
ATOM     11  C   UNL d   1     -42.125-123.201 -48.498  0.00  0.00     0.066 A 
ATOM     12  C   UNL d   1     -42.017-122.416 -48.267  0.00  0.00     0.018 A 
ATOM     13  C   UNL d   1     -41.517-122.239 -47.635  0.00  0.00     0.002 A 
ATOM     14  C   UNL d   1     -41.126-122.845 -47.234  0.00  0.00     0.000 A 
ATOM     15  C   UNL d   1     -41.237-123.621 -47.468  0.00  0.00     0.002 A 
ATOM     16  C   UNL d   1     -41.736-123.799 -48.100  0.00  0.00     0.018 A 
ENDBRANCH   7  11
ENDBRANCH   5   6
ENDBRANCH   4   5
ENDBRANCH   2   4
BRANCH   1  17
ATOM     17  C   UNL d   1     -41.872-122.484 -53.045  0.00  0.00     0.107 A 
ATOM     18  C   UNL d   1     -41.778-122.777 -53.801  0.00  0.00     0.114 A 
ATOM     19  C   UNL d   1     -41.838-122.283 -54.445  0.00  0.00     0.050 A 
ATOM     20  C   UNL d   1     -41.995-121.477 -54.337  0.00  0.00     0.096 A 
ATOM     21  C   UNL d   1     -42.092-121.173 -53.571  0.00  0.00     0.026 A 
ATOM     22  C   UNL d   1     -42.029-121.682 -52.928  0.00  0.00     0.023 A 
BRANCH  18  23
ATOM     23  O   UNL d   1     -41.623-123.573 -53.920  0.00  0.00    -0.327 OA
ATOM     24  C   UNL d   1     -41.193-123.817 -54.593  0.00  0.00     0.181 C 
ENDBRANCH  18  23
BRANCH  20  25
ATOM     25  O   UNL d   1     -42.056-120.975 -54.999  0.00  0.00    -0.328 OA
ATOM     26  C   UNL d   1     -41.970-121.288 -55.762  0.00  0.00     0.181 C 
ENDBRANCH  20  25
ENDBRANCH   1  17
TORSDOF 7
ENDMDL
MODEL 2
REMARK VINA RESULT:      -0.3      1.558      5.491
REMARK  7 active torsions:
REMARK  status: ('A' for Active; 'I' for Inactive)
REMARK    1  A    between atoms: S_6  and  C_1 
REMARK    2  A    between atoms: C_12  and  N_2 
REMARK       I    between atoms: N_4  and  C_8 
REMARK    3  A    between atoms: C_5  and  N_4 
REMARK    4  A    between atoms: C_15  and  S_6 
REMARK    5  A    between atoms: O_18  and  C_7 
REMARK    6  A    between atoms: C_8  and  C_15 
REMARK    7  A    between atoms: O_19  and  C_16 
ROOT
ATOM      1  N   UNL d   1     -41.738-122.075 -50.881  0.00  0.00    -0.206 NA
ATOM      2  C   UNL d   1     -41.382-122.428 -51.526  0.00  0.00     0.286 C 
ATOM      3  O   UNL d   1     -41.154-123.218 -51.498  0.00  0.00    -0.265 OA
ENDROOT
BRANCH   2   4
ATOM      4  C   UNL d   1     -41.252-121.997 -52.202  0.00  0.00     0.101 C 
BRANCH   4   5
ATOM      5  S   UNL d   1     -41.658-122.175 -52.899  0.00  0.00    -0.044 SA
BRANCH   5   6
ATOM      6  C   UNL d   1     -41.808-121.583 -53.457  0.00  0.00     0.180 A 
ATOM      7  N   UNL d   1     -41.917-121.700 -54.260  0.00  0.00    -0.284 N 
ATOM      8  C   UNL d   1     -42.050-120.959 -54.602  0.00  0.00     0.103 A 
ATOM      9  C   UNL d   1     -42.021-120.383 -53.995  0.00  0.00     0.120 A 
ATOM     10  N   UNL d   1     -41.873-120.778 -53.302  0.00  0.00    -0.219 NA
BRANCH   7  11
ATOM     11  C   UNL d   1     -41.904-122.406 -54.687  0.00  0.00     0.066 A 
ATOM     12  C   UNL d   1     -41.188-122.702 -54.972  0.00  0.00     0.018 A 
ATOM     13  C   UNL d   1     -41.175-123.408 -55.399  0.00  0.00     0.002 A 
ATOM     14  C   UNL d   1     -41.878-123.818 -55.541  0.00  0.00     0.000 A 
ATOM     15  C   UNL d   1     -42.585-123.520 -55.257  0.00  0.00     0.002 A 
ATOM     16  C   UNL d   1     -42.597-122.814 -54.830  0.00  0.00     0.018 A 
ENDBRANCH   7  11
ENDBRANCH   5   6
ENDBRANCH   4   5
ENDBRANCH   2   4
BRANCH   1  17
ATOM     17  C   UNL d   1     -41.872-122.504 -50.196  0.00  0.00     0.107 A 
ATOM     18  C   UNL d   1     -42.611-122.508 -49.847  0.00  0.00     0.114 A 
ATOM     19  C   UNL d   1     -42.743-122.935 -49.166  0.00  0.00     0.050 A 
ATOM     20  C   UNL d   1     -42.127-123.368 -48.822  0.00  0.00     0.096 A 
ATOM     21  C   UNL d   1     -41.375-123.369 -49.171  0.00  0.00     0.026 A 
ATOM     22  C   UNL d   1     -41.253-122.934 -49.859  0.00  0.00     0.023 A 
BRANCH  18  23
ATOM     23  O   UNL d   1     -43.227-122.082 -50.179  0.00  0.00    -0.327 OA
ATOM     24  C   UNL d   1     -43.991-122.125 -49.844  0.00  0.00     0.181 C 
ENDBRANCH  18  23
BRANCH  20  25
ATOM     25  O   UNL d   1     -42.267-123.803 -48.126  0.00  0.00    -0.328 OA
ATOM     26  C   UNL d   1     -42.127-123.453 -47.387  0.00  0.00     0.181 C 
ENDBRANCH  20  25
ENDBRANCH   1  17
TORSDOF 7
ENDMDL
