MODEL 1
REMARK VINA RESULT:      26.3      0.000      0.000
REMARK  5 active torsions:
REMARK  status: ('A' for Active; 'I' for Inactive)
REMARK    1  A    between atoms: C_2  and  C_4 
REMARK    2  A    between atoms: C_4  and  C_10 
REMARK    3  A    between atoms: S_8  and  C_6 
REMARK    4  A    between atoms: C_14  and  C_7 
REMARK    5  A    between atoms: C_10  and  S_8 
ROOT
ATOM      1  N   UNL d   1      13.581  13.206  -3.005  0.00  0.00    -0.148 NA
ATOM      2  N   UNL d   1      13.708  13.248  -2.191  0.00  0.00    -0.141 NA
ATOM      3  C   UNL d   1      13.775  12.559  -1.744  0.00  0.00     0.133 A 
ATOM      4  C   UNL d   1      13.521  12.468  -3.371  0.00  0.00     0.103 A 
ATOM      5  C   UNL d   1      13.587  11.779  -2.933  0.00  0.00     0.023 A 
ATOM      6  C   UNL d   1      13.714  11.817  -2.123  0.00  0.00     0.029 A 
ENDROOT
BRANCH   3   7
ATOM      7  S   UNL d   1      13.901  12.605  -0.939  0.00  0.00    -0.062 SA
BRANCH   7   8
ATOM      8  C   UNL d   1      14.183  13.303  -0.604  0.00  0.00     0.079 C 
BRANCH   8   9
ATOM      9  C   UNL d   1      14.936  13.333  -0.284  0.00  0.00     0.208 C 
ATOM     10  O   UNL d   1      15.310  12.634  -0.054  0.00  0.00    -0.285 OA
BRANCH   9  11
ATOM     11  C   UNL d   1      15.324  14.049  -0.188  0.00  0.00     0.069 A 
ATOM     12  S   UNL d   1      14.967  14.788  -0.170  0.00  0.00    -0.083 SA
ATOM     13  C   UNL d   1      15.555  15.354  -0.064  0.00  0.00     0.035 A 
ATOM     14  C   UNL d   1      16.276  14.952  -0.018  0.00  0.00     0.008 A 
ATOM     15  C   UNL d   1      16.131  14.151  -0.094  0.00  0.00     0.010 A 
ENDBRANCH   9  11
ENDBRANCH   8   9
ENDBRANCH   7   8
ENDBRANCH   3   7
BRANCH   4  16
ATOM     16  C   UNL d   1      13.393  12.427  -4.185  0.00  0.00     0.019 A 
ATOM     17  C   UNL d   1      13.729  12.997  -4.689  0.00  0.00     0.002 A 
ATOM     18  C   UNL d   1      13.601  12.957  -5.507  0.00  0.00     0.000 A 
ATOM     19  C   UNL d   1      13.138  12.346  -5.827  0.00  0.00     0.000 A 
ATOM     20  C   UNL d   1      12.809  11.786  -5.333  0.00  0.00     0.000 A 
ATOM     21  C   UNL d   1      12.929  11.816  -4.513  0.00  0.00     0.002 A 
ENDBRANCH   4  16
TORSDOF 5
ENDMDL
