MODEL 1
REMARK VINA RESULT:      59.9      0.000      0.000
REMARK  3 active torsions:
REMARK  status: ('A' for Active; 'I' for Inactive)
REMARK    1  A    between atoms: N_8  and  C_1 
REMARK    2  A    between atoms: N_7  and  C_2 
REMARK    3  A    between atoms: C_11  and  N_8 
ROOT
ATOM      1  C   UNL d   1     -51.434  25.291  33.967  0.00  0.00     0.139 A 
ATOM      2  C   UNL d   1     -51.158  24.549  33.751  0.00  0.00     0.124 A 
ATOM      3  C   UNL d   1     -51.684  23.938  33.528  0.00  0.00     0.213 A 
ATOM      4  C   UNL d   1     -52.246  25.447  33.967  0.00  0.00     0.215 A 
ATOM      5  C   UNL d   1     -52.495  24.114  33.534  0.00  0.00     0.044 A 
ATOM      6  C   UNL d   1     -52.772  24.856  33.750  0.00  0.00     0.044 A 
ATOM      7  O   UNL d   1     -51.405  23.188  33.310  0.00  0.00    -0.285 OA
ATOM      8  O   UNL d   1     -52.525  26.196  34.185  0.00  0.00    -0.285 OA
ATOM      9  C   UNL d   1     -53.022  23.503  33.311  0.00  0.00     0.003 A 
ATOM     10  C   UNL d   1     -53.584  25.012  33.750  0.00  0.00     0.003 A 
ATOM     11  C   UNL d   1     -53.837  23.678  33.317  0.00  0.00     0.000 A 
ATOM     12  C   UNL d   1     -54.113  24.420  33.533  0.00  0.00     0.000 A 
ENDROOT
BRANCH   1  13
ATOM     13  N   UNL d   1     -50.883  25.890  34.187  0.00  0.00    -0.241 NA
BRANCH  13  14
ATOM     14  C   UNL d   1     -50.977  26.659  33.891  0.00  0.00     0.082 A 
ATOM     15  C   UNL d   1     -50.335  27.176  33.878  0.00  0.00     0.019 A 
ATOM     16  C   UNL d   1     -50.428  27.941  33.584  0.00  0.00     0.002 A 
ATOM     17  C   UNL d   1     -51.163  28.178  33.307  0.00  0.00     0.000 A 
ATOM     18  C   UNL d   1     -51.800  27.671  33.318  0.00  0.00     0.002 A 
ATOM     19  C   UNL d   1     -51.706  26.906  33.613  0.00  0.00     0.019 A 
ENDBRANCH  13  14
ENDBRANCH   1  13
BRANCH   2  20
ATOM     20  N   UNL d   1     -50.339  24.375  33.745  0.00  0.00    -0.300 N 
ATOM     21  C   UNL d   1     -49.772  24.977  33.802  0.00  0.00     0.080 A 
ATOM     22  C   UNL d   1     -48.973  24.790  33.796  0.00  0.00     0.019 A 
ATOM     23  C   UNL d   1     -48.720  23.993  33.732  0.00  0.00     0.003 A 
ATOM     24  C   UNL d   1     -49.287  23.391  33.675  0.00  0.00     0.019 A 
ATOM     25  C   UNL d   1     -50.117  23.575  33.681  0.00  0.00     0.080 A 
ENDBRANCH   2  20
TORSDOF 3
ENDMDL
