MODEL 1
REMARK VINA RESULT:      51.0      0.000      0.000
REMARK  4 active torsions:
REMARK  status: ('A' for Active; 'I' for Inactive)
REMARK    1  A    between atoms: C_8  and  N_2 
REMARK    2  A    between atoms: C_13  and  C_8 
REMARK    3  A    between atoms: O_17  and  C_13 
REMARK    4  A    between atoms: O_18  and  C_15 
ROOT
ATOM      1  C   UNL d   1     -51.078  25.754  33.315  0.00  0.00     0.166 A 
ATOM      2  N   UNL d   1     -51.807  26.139  33.316  0.00  0.00    -0.285 N 
ATOM      3  C   UNL d   1     -51.222  24.938  33.315  0.00  0.00     0.117 A 
ATOM      4  C   UNL d   1     -52.038  24.818  33.317  0.00  0.00     0.039 A 
ATOM      5  C   UNL d   1     -52.398  25.559  33.317  0.00  0.00     0.067 A 
ATOM      6  N   UNL d   1     -50.313  26.043  33.314  0.00  0.00    -0.225 NA
ATOM      7  N   UNL d   1     -50.590  24.412  33.314  0.00  0.00    -0.241 NA
ATOM      8  C   UNL d   1     -49.669  25.519  33.313  0.00  0.00     0.101 A 
ATOM      9  C   UNL d   1     -49.813  24.703  33.313  0.00  0.00     0.099 A 
ATOM     10  C   UNL d   1     -53.229  25.627  33.319  0.00  0.00     0.020 A 
ATOM     11  C   UNL d   1     -52.498  24.145  33.317  0.00  0.00     0.027 A 
ATOM     12  C   UNL d   1     -53.322  24.201  33.319  0.00  0.00     0.094 A 
ATOM     13  C   UNL d   1     -53.683  24.942  33.319  0.00  0.00     0.026 A 
ATOM     14  C   UNL d   1     -49.181  24.178  33.312  0.00  0.00     0.021 A 
ATOM     15  C   UNL d   1     -48.902  25.797  33.312  0.00  0.00     0.021 A 
ATOM     16  C   UNL d   1     -48.261  25.272  33.310  0.00  0.00     0.002 A 
ATOM     17  C   UNL d   1     -48.405  24.457  33.311  0.00  0.00     0.002 A 
ENDROOT
BRANCH   2  18
ATOM     18  C   UNL d   1     -51.927  26.954  33.317  0.00  0.00     0.150 C 
BRANCH  18  19
ATOM     19  C   UNL d   1     -51.552  27.425  33.885  0.00  0.00     0.314 C 
ATOM     20  O   UNL d   1     -51.245  27.070  34.569  0.00  0.00    -0.257 OA
BRANCH  19  21
ATOM     21  O   UNL d   1     -51.486  28.226  33.773  0.00  0.00    -0.295 OA
ATOM     22  C   UNL d   1     -50.782  28.620  33.962  0.00  0.00     0.185 C 
ENDBRANCH  19  21
ENDBRANCH  18  19
ENDBRANCH   2  18
BRANCH  12  23
ATOM     23  O   UNL d   1     -53.776  23.515  33.319  0.00  0.00    -0.328 OA
ATOM     24  C   UNL d   1     -54.050  23.195  34.028  0.00  0.00     0.181 C 
ENDBRANCH  12  23
TORSDOF 4
ENDMDL
