MODEL 1
REMARK VINA RESULT:      24.4      0.000      0.000
REMARK  4 active torsions:
REMARK  status: ('A' for Active; 'I' for Inactive)
REMARK    1  A    between atoms: C_8  and  C_2 
REMARK    2  A    between atoms: O_6  and  C_8 
REMARK    3  A    between atoms: C_7  and  O_6 
REMARK    4  A    between atoms: O_10  and  C_9 
ROOT
ATOM      1  C   UNL d   1      58.750  49.478  50.588  0.00  0.00     0.161 C 
ENDROOT
BRANCH   1   2
ATOM      2  O   UNL d   1      58.050  49.706  50.785  0.00  0.00    -0.300 OA
BRANCH   2   3
ATOM      3  C   UNL d   1      57.413  49.687  50.222  0.00  0.00     0.122 A 
ATOM      4  C   UNL d   1      56.656  49.655  50.477  0.00  0.00     0.117 A 
ATOM      5  C   UNL d   1      56.041  49.636  49.920  0.00  0.00     0.026 A 
ATOM      6  C   UNL d   1      56.219  49.650  49.114  0.00  0.00     0.002 A 
ATOM      7  C   UNL d   1      57.016  49.684  48.838  0.00  0.00     0.002 A 
ATOM      8  C   UNL d   1      57.618  49.702  49.423  0.00  0.00     0.027 A 
BRANCH   4   9
ATOM      9  O   UNL d   1      56.479  49.641  51.279  0.00  0.00    -0.326 OA
ATOM     10  C   UNL d   1      56.043  49.044  51.594  0.00  0.00     0.181 C 
ENDBRANCH   4   9
ENDBRANCH   2   3
ENDBRANCH   1   2
BRANCH   1  11
ATOM     11  C   UNL d   1      59.348  49.559  51.119  0.00  0.00     0.188 A 
ATOM     12  N   UNL d   1      59.706  49.698  51.847  0.00  0.00    -0.224 NA
ATOM     13  C   UNL d   1      60.506  49.632  51.764  0.00  0.00     0.101 A 
ATOM     14  C   UNL d   1      60.663  49.449  50.975  0.00  0.00     0.101 A 
ATOM     15  C   UNL d   1      61.133  49.706  52.270  0.00  0.00     0.021 A 
ATOM     16  C   UNL d   1      61.442  49.347  50.722  0.00  0.00     0.021 A 
ATOM     17  N   UNL d   1      59.957  49.406  50.585  0.00  0.00    -0.224 NA
ATOM     18  C   UNL d   1      62.064  49.428  51.259  0.00  0.00     0.002 A 
ATOM     19  C   UNL d   1      61.907  49.611  52.048  0.00  0.00     0.002 A 
ENDBRANCH   1  11
TORSDOF 4
ENDMDL
