MODEL 1
REMARK VINA RESULT:     -10.8      0.000      0.000
REMARK  4 active torsions:
REMARK  status: ('A' for Active; 'I' for Inactive)
REMARK    1  A    between atoms: S_6  and  C_1 
REMARK    2  A    between atoms: C_9  and  N_2 
REMARK    3  A    between atoms: C_15  and  S_6 
REMARK    4  A    between atoms: C_14  and  C_9 
ROOT
ATOM      1  C   UNL d   1      52.638  33.122  53.184  0.00  0.00     0.145 A 
ATOM      2  N   UNL d   1      53.888  32.961  53.596  0.00  0.00    -0.270 N 
ATOM      3  C   UNL d   1      52.776  32.308  53.252  0.00  0.00     0.130 A 
ATOM      4  C   UNL d   1      53.323  33.525  53.396  0.00  0.00     0.183 A 
ATOM      5  C   UNL d   1      53.554  32.208  53.509  0.00  0.00     0.168 A 
ATOM      6  N   UNL d   1      52.298  31.651  53.116  0.00  0.00    -0.240 NA
ATOM      7  N   UNL d   1      53.855  31.450  53.629  0.00  0.00    -0.225 NA
ATOM      8  C   UNL d   1      52.599  30.894  53.236  0.00  0.00     0.099 A 
ATOM      9  C   UNL d   1      53.378  30.793  53.492  0.00  0.00     0.101 A 
ATOM     10  N   UNL d   1      53.438  34.342  53.410  0.00  0.00    -0.128 N 
ATOM     11  C   UNL d   1      52.121  30.236  53.099  0.00  0.00     0.021 A 
ATOM     12  C   UNL d   1      53.679  30.036  53.612  0.00  0.00     0.021 A 
ATOM     13  C   UNL d   1      53.201  29.378  53.475  0.00  0.00     0.002 A 
ATOM     14  C   UNL d   1      52.422  29.479  53.219  0.00  0.00     0.002 A 
ENDROOT
BRANCH   1  15
ATOM     15  S   UNL d   1      51.926  33.465  52.942  0.00  0.00     0.214 S 
ATOM     16  O   UNL d   1      52.390  33.421  52.266  0.00  0.00    -0.217 OA
ATOM     17  O   UNL d   1      51.460  33.510  53.624  0.00  0.00    -0.217 OA
BRANCH  15  18
ATOM     18  C   UNL d   1      51.222  33.809  52.688  0.00  0.00     0.088 A 
ATOM     19  C   UNL d   1      51.199  33.950  51.872  0.00  0.00     0.011 A 
ATOM     20  C   UNL d   1      50.523  34.295  51.536  0.00  0.00     0.001 A 
ATOM     21  C   UNL d   1      49.877  34.496  52.010  0.00  0.00     0.000 A 
ATOM     22  C   UNL d   1      49.904  34.353  52.823  0.00  0.00     0.001 A 
ATOM     23  C   UNL d   1      50.577  34.009  53.164  0.00  0.00     0.011 A 
ENDBRANCH  15  18
ENDBRANCH   1  15
BRANCH   2  24
ATOM     24  C   UNL d   1      54.662  33.113  53.844  0.00  0.00     0.108 C 
BRANCH  24  25
ATOM     25  C   UNL d   1      54.807  33.347  54.616  0.00  0.00     0.118 A 
ATOM     26  O   UNL d   1      54.486  33.006  55.287  0.00  0.00    -0.304 OA
ATOM     27  C   UNL d   1      54.779  33.412  55.949  0.00  0.00     0.123 A 
ATOM     28  C   UNL d   1      55.279  34.001  55.676  0.00  0.00     0.029 A 
ATOM     29  C   UNL d   1      55.293  33.957  54.853  0.00  0.00     0.028 A 
ENDBRANCH  24  25
ENDBRANCH   2  24
TORSDOF 4
ENDMDL
MODEL 2
REMARK VINA RESULT:     -10.3      0.826      2.952
REMARK  4 active torsions:
REMARK  status: ('A' for Active; 'I' for Inactive)
REMARK    1  A    between atoms: S_6  and  C_1 
REMARK    2  A    between atoms: C_9  and  N_2 
REMARK    3  A    between atoms: C_15  and  S_6 
REMARK    4  A    between atoms: C_14  and  C_9 
ROOT
ATOM      1  C   UNL d   1      52.459  32.749  53.179  0.00  0.00     0.145 A 
ATOM      2  N   UNL d   1      53.326  31.751  53.276  0.00  0.00    -0.270 N 
ATOM      3  C   UNL d   1      53.073  32.998  53.675  0.00  0.00     0.130 A 
ATOM      4  C   UNL d   1      52.614  31.979  52.933  0.00  0.00     0.183 A 
ATOM      5  C   UNL d   1      53.613  32.377  53.735  0.00  0.00     0.168 A 
ATOM      6  N   UNL d   1      53.209  33.705  54.076  0.00  0.00    -0.240 NA
ATOM      7  N   UNL d   1      54.290  32.462  54.197  0.00  0.00    -0.225 NA
ATOM      8  C   UNL d   1      53.886  33.790  54.538  0.00  0.00     0.099 A 
ATOM      9  C   UNL d   1      54.427  33.168  54.598  0.00  0.00     0.101 A 
ATOM     10  N   UNL d   1      52.151  31.511  52.434  0.00  0.00    -0.128 N 
ATOM     11  C   UNL d   1      54.023  34.496  54.939  0.00  0.00     0.021 A 
ATOM     12  C   UNL d   1      55.104  33.253  55.060  0.00  0.00     0.021 A 
ATOM     13  C   UNL d   1      55.241  33.960  55.461  0.00  0.00     0.002 A 
ATOM     14  C   UNL d   1      54.700  34.581  55.401  0.00  0.00     0.002 A 
ENDROOT
BRANCH   1  15
ATOM     15  S   UNL d   1      51.800  33.203  52.970  0.00  0.00     0.214 S 
ATOM     16  O   UNL d   1      52.330  33.283  52.347  0.00  0.00    -0.217 OA
ATOM     17  O   UNL d   1      51.268  33.122  53.598  0.00  0.00    -0.217 OA
BRANCH  15  18
ATOM     18  C   UNL d   1      51.152  33.659  52.750  0.00  0.00     0.088 A 
ATOM     19  C   UNL d   1      51.210  33.969  51.984  0.00  0.00     0.011 A 
ATOM     20  C   UNL d   1      50.596  34.441  51.685  0.00  0.00     0.001 A 
ATOM     21  C   UNL d   1      49.930  34.601  52.148  0.00  0.00     0.000 A 
ATOM     22  C   UNL d   1      49.876  34.290  52.911  0.00  0.00     0.001 A 
ATOM     23  C   UNL d   1      50.486  33.818  53.214  0.00  0.00     0.011 A 
ENDBRANCH  15  18
ENDBRANCH   1  15
BRANCH   2  24
ATOM     24  C   UNL d   1      53.699  31.019  53.183  0.00  0.00     0.108 C 
BRANCH  24  25
ATOM     25  C   UNL d   1      53.435  30.367  53.604  0.00  0.00     0.118 A 
ATOM     26  O   UNL d   1      53.497  30.263  54.413  0.00  0.00    -0.304 OA
ATOM     27  C   UNL d   1      53.160  29.530  54.607  0.00  0.00     0.123 A 
ATOM     28  C   UNL d   1      52.893  29.190  53.911  0.00  0.00     0.029 A 
ATOM     29  C   UNL d   1      53.064  29.709  53.295  0.00  0.00     0.028 A 
ENDBRANCH  24  25
ENDBRANCH   2  24
TORSDOF 4
ENDMDL
MODEL 3
REMARK VINA RESULT:      -8.7      0.816      3.532
REMARK  4 active torsions:
REMARK  status: ('A' for Active; 'I' for Inactive)
REMARK    1  A    between atoms: S_6  and  C_1 
REMARK    2  A    between atoms: C_9  and  N_2 
REMARK    3  A    between atoms: C_15  and  S_6 
REMARK    4  A    between atoms: C_14  and  C_9 
ROOT
ATOM      1  C   UNL d   1      53.414  32.991  53.687  0.00  0.00     0.145 A 
ATOM      2  N   UNL d   1      52.425  32.950  52.804  0.00  0.00    -0.270 N 
ATOM      3  C   UNL d   1      53.234  32.195  53.550  0.00  0.00     0.130 A 
ATOM      4  C   UNL d   1      52.915  33.458  53.228  0.00  0.00     0.183 A 
ATOM      5  C   UNL d   1      52.618  32.169  53.000  0.00  0.00     0.168 A 
ATOM      6  N   UNL d   1      53.548  31.495  53.851  0.00  0.00    -0.240 NA
ATOM      7  N   UNL d   1      52.317  31.444  52.751  0.00  0.00    -0.225 NA
ATOM      8  C   UNL d   1      53.247  30.770  53.602  0.00  0.00     0.099 A 
ATOM      9  C   UNL d   1      52.631  30.744  53.052  0.00  0.00     0.101 A 
ATOM     10  N   UNL d   1      52.898  34.282  53.189  0.00  0.00    -0.128 N 
ATOM     11  C   UNL d   1      53.561  30.070  53.903  0.00  0.00     0.021 A 
ATOM     12  C   UNL d   1      52.329  30.019  52.803  0.00  0.00     0.021 A 
ATOM     13  C   UNL d   1      52.643  29.319  53.105  0.00  0.00     0.002 A 
ATOM     14  C   UNL d   1      53.259  29.345  53.654  0.00  0.00     0.002 A 
ENDROOT
BRANCH   1  15
ATOM     15  S   UNL d   1      53.999  33.265  54.202  0.00  0.00     0.214 S 
ATOM     16  O   UNL d   1      54.356  33.229  53.463  0.00  0.00    -0.217 OA
ATOM     17  O   UNL d   1      53.639  33.301  54.946  0.00  0.00    -0.217 OA
BRANCH  15  18
ATOM     18  C   UNL d   1      54.591  33.539  54.704  0.00  0.00     0.088 A 
ATOM     19  C   UNL d   1      55.292  33.739  54.311  0.00  0.00     0.011 A 
ATOM     20  C   UNL d   1      55.939  34.024  54.747  0.00  0.00     0.001 A 
ATOM     21  C   UNL d   1      55.885  34.108  55.567  0.00  0.00     0.000 A 
ATOM     22  C   UNL d   1      55.184  33.907  55.955  0.00  0.00     0.001 A 
ATOM     23  C   UNL d   1      54.536  33.623  55.525  0.00  0.00     0.011 A 
ENDBRANCH  15  18
ENDBRANCH   1  15
BRANCH   2  24
ATOM     24  C   UNL d   1      51.835  33.175  52.270  0.00  0.00     0.108 C 
BRANCH  24  25
ATOM     25  C   UNL d   1      51.158  33.550  52.542  0.00  0.00     0.118 A 
ATOM     26  O   UNL d   1      50.679  33.290  53.150  0.00  0.00    -0.304 OA
ATOM     27  C   UNL d   1      50.058  33.832  53.241  0.00  0.00     0.123 A 
ATOM     28  C   UNL d   1      50.163  34.423  52.685  0.00  0.00     0.029 A 
ATOM     29  C   UNL d   1      50.843  34.245  52.255  0.00  0.00     0.028 A 
ENDBRANCH  24  25
ENDBRANCH   2  24
TORSDOF 4
ENDMDL
MODEL 4
REMARK VINA RESULT:      -8.4      1.086      4.119
REMARK  4 active torsions:
REMARK  status: ('A' for Active; 'I' for Inactive)
REMARK    1  A    between atoms: S_6  and  C_1 
REMARK    2  A    between atoms: C_9  and  N_2 
REMARK    3  A    between atoms: C_15  and  S_6 
REMARK    4  A    between atoms: C_14  and  C_9 
ROOT
ATOM      1  C   UNL d   1      53.533  32.556  53.754  0.00  0.00     0.145 A 
ATOM      2  N   UNL d   1      52.944  31.626  53.015  0.00  0.00    -0.270 N 
ATOM      3  C   UNL d   1      52.825  32.875  53.467  0.00  0.00     0.130 A 
ATOM      4  C   UNL d   1      53.607  31.784  53.476  0.00  0.00     0.183 A 
ATOM      5  C   UNL d   1      52.458  32.296  53.007  0.00  0.00     0.168 A 
ATOM      6  N   UNL d   1      52.470  33.612  53.564  0.00  0.00    -0.240 NA
ATOM      7  N   UNL d   1      51.736  32.454  52.643  0.00  0.00    -0.225 NA
ATOM      8  C   UNL d   1      51.748  33.770  53.200  0.00  0.00     0.099 A 
ATOM      9  C   UNL d   1      51.381  33.191  52.740  0.00  0.00     0.101 A 
ATOM     10  N   UNL d   1      54.225  31.257  53.623  0.00  0.00    -0.128 N 
ATOM     11  C   UNL d   1      51.392  34.507  53.297  0.00  0.00     0.021 A 
ATOM     12  C   UNL d   1      50.658  33.349  52.376  0.00  0.00     0.021 A 
ATOM     13  C   UNL d   1      50.303  34.086  52.473  0.00  0.00     0.002 A 
ATOM     14  C   UNL d   1      50.670  34.665  52.934  0.00  0.00     0.002 A 
ENDROOT
BRANCH   1  15
ATOM     15  S   UNL d   1      54.072  32.951  54.240  0.00  0.00     0.214 S 
ATOM     16  O   UNL d   1      54.358  33.041  53.475  0.00  0.00    -0.217 OA
ATOM     17  O   UNL d   1      53.783  32.860  55.010  0.00  0.00    -0.217 OA
BRANCH  15  18
ATOM     18  C   UNL d   1      54.617  33.349  54.712  0.00  0.00     0.088 A 
ATOM     19  C   UNL d   1      55.235  33.695  54.284  0.00  0.00     0.011 A 
ATOM     20  C   UNL d   1      55.827  34.116  54.687  0.00  0.00     0.001 A 
ATOM     21  C   UNL d   1      55.800  34.188  55.510  0.00  0.00     0.000 A 
ATOM     22  C   UNL d   1      55.182  33.841  55.933  0.00  0.00     0.001 A 
ATOM     23  C   UNL d   1      54.589  33.421  55.536  0.00  0.00     0.011 A 
ENDBRANCH  15  18
ENDBRANCH   1  15
BRANCH   2  24
ATOM     24  C   UNL d   1      52.782  30.916  52.623  0.00  0.00     0.108 C 
BRANCH  24  25
ATOM     25  C   UNL d   1      52.574  30.249  53.051  0.00  0.00     0.118 A 
ATOM     26  O   UNL d   1      51.843  30.105  53.387  0.00  0.00    -0.304 OA
ATOM     27  C   UNL d   1      51.873  29.369  53.768  0.00  0.00     0.123 A 
ATOM     28  C   UNL d   1      52.626  29.066  53.661  0.00  0.00     0.029 A 
ATOM     29  C   UNL d   1      53.056  29.612  53.218  0.00  0.00     0.028 A 
ENDBRANCH  24  25
ENDBRANCH   2  24
TORSDOF 4
ENDMDL
MODEL 5
REMARK VINA RESULT:      -8.1      1.270      4.290
REMARK  4 active torsions:
REMARK  status: ('A' for Active; 'I' for Inactive)
REMARK    1  A    between atoms: S_6  and  C_1 
REMARK    2  A    between atoms: C_9  and  N_2 
REMARK    3  A    between atoms: C_15  and  S_6 
REMARK    4  A    between atoms: C_14  and  C_9 
ROOT
ATOM      1  C   UNL d   1      53.124  31.581  53.660  0.00  0.00     0.145 A 
ATOM      2  N   UNL d   1      52.710  32.643  52.982  0.00  0.00    -0.270 N 
ATOM      3  C   UNL d   1      53.505  32.244  53.976  0.00  0.00     0.130 A 
ATOM      4  C   UNL d   1      52.633  31.826  53.046  0.00  0.00     0.183 A 
ATOM      5  C   UNL d   1      53.247  32.905  53.554  0.00  0.00     0.168 A 
ATOM      6  N   UNL d   1      54.049  32.331  54.589  0.00  0.00    -0.240 NA
ATOM      7  N   UNL d   1      53.534  33.654  53.744  0.00  0.00    -0.225 NA
ATOM      8  C   UNL d   1      54.335  33.080  54.779  0.00  0.00     0.099 A 
ATOM      9  C   UNL d   1      54.078  33.742  54.357  0.00  0.00     0.101 A 
ATOM     10  N   UNL d   1      52.148  31.352  52.575  0.00  0.00    -0.128 N 
ATOM     11  C   UNL d   1      54.879  33.168  55.392  0.00  0.00     0.021 A 
ATOM     12  C   UNL d   1      54.364  34.490  54.547  0.00  0.00     0.021 A 
ATOM     13  C   UNL d   1      54.908  34.578  55.160  0.00  0.00     0.002 A 
ATOM     14  C   UNL d   1      55.165  33.916  55.582  0.00  0.00     0.002 A 
ENDROOT
BRANCH   1  15
ATOM     15  S   UNL d   1      53.224  30.803  53.922  0.00  0.00     0.214 S 
ATOM     16  O   UNL d   1      53.695  30.873  53.252  0.00  0.00    -0.217 OA
ATOM     17  O   UNL d   1      52.750  30.735  54.595  0.00  0.00    -0.217 OA
BRANCH  15  18
ATOM     18  C   UNL d   1      53.333  30.027  54.171  0.00  0.00     0.088 A 
ATOM     19  C   UNL d   1      53.836  29.589  53.680  0.00  0.00     0.011 A 
ATOM     20  C   UNL d   1      53.998  28.795  53.863  0.00  0.00     0.001 A 
ATOM     21  C   UNL d   1      53.660  28.444  54.531  0.00  0.00     0.000 A 
ATOM     22  C   UNL d   1      53.160  28.884  55.018  0.00  0.00     0.001 A 
ATOM     23  C   UNL d   1      52.995  29.676  54.840  0.00  0.00     0.011 A 
ENDBRANCH  15  18
ENDBRANCH   1  15
BRANCH   2  24
ATOM     24  C   UNL d   1      52.319  33.127  52.438  0.00  0.00     0.108 C 
BRANCH  24  25
ATOM     25  C   UNL d   1      51.617  33.496  52.648  0.00  0.00     0.118 A 
ATOM     26  O   UNL d   1      51.031  33.177  53.120  0.00  0.00    -0.304 OA
ATOM     27  C   UNL d   1      50.422  33.735  53.191  0.00  0.00     0.123 A 
ATOM     28  C   UNL d   1      50.641  34.396  52.760  0.00  0.00     0.029 A 
ATOM     29  C   UNL d   1      51.379  34.244  52.426  0.00  0.00     0.028 A 
ENDBRANCH  24  25
ENDBRANCH   2  24
TORSDOF 4
ENDMDL
MODEL 6
REMARK VINA RESULT:      -7.9      1.114      3.449
REMARK  4 active torsions:
REMARK  status: ('A' for Active; 'I' for Inactive)
REMARK    1  A    between atoms: S_6  and  C_1 
REMARK    2  A    between atoms: C_9  and  N_2 
REMARK    3  A    between atoms: C_15  and  S_6 
REMARK    4  A    between atoms: C_14  and  C_9 
ROOT
ATOM      1  C   UNL d   1      53.258  32.092  53.403  0.00  0.00     0.145 A 
ATOM      2  N   UNL d   1      53.841  33.273  53.554  0.00  0.00    -0.270 N 
ATOM      3  C   UNL d   1      52.676  32.673  53.304  0.00  0.00     0.130 A 
ATOM      4  C   UNL d   1      53.977  32.462  53.557  0.00  0.00     0.183 A 
ATOM      5  C   UNL d   1      53.040  33.409  53.398  0.00  0.00     0.168 A 
ATOM      6  N   UNL d   1      51.870  32.629  53.142  0.00  0.00    -0.240 NA
ATOM      7  N   UNL d   1      52.597  34.100  53.330  0.00  0.00    -0.225 NA
ATOM      8  C   UNL d   1      51.426  33.320  53.074  0.00  0.00     0.099 A 
ATOM      9  C   UNL d   1      51.790  34.056  53.168  0.00  0.00     0.101 A 
ATOM     10  N   UNL d   1      54.706  32.099  53.692  0.00  0.00    -0.128 N 
ATOM     11  C   UNL d   1      50.620  33.275  52.912  0.00  0.00     0.021 A 
ATOM     12  C   UNL d   1      51.347  34.747  53.100  0.00  0.00     0.021 A 
ATOM     13  C   UNL d   1      50.540  34.702  52.938  0.00  0.00     0.002 A 
ATOM     14  C   UNL d   1      50.177  33.967  52.844  0.00  0.00     0.002 A 
ENDROOT
BRANCH   1  15
ATOM     15  S   UNL d   1      53.130  31.277  53.354  0.00  0.00     0.214 S 
ATOM     16  O   UNL d   1      53.123  31.454  54.157  0.00  0.00    -0.217 OA
ATOM     17  O   UNL d   1      53.138  31.101  52.546  0.00  0.00    -0.217 OA
BRANCH  15  18
ATOM     18  C   UNL d   1      53.002  30.465  53.320  0.00  0.00     0.088 A 
ATOM     19  C   UNL d   1      53.176  30.072  54.028  0.00  0.00     0.011 A 
ATOM     20  C   UNL d   1      53.074  29.249  54.075  0.00  0.00     0.001 A 
ATOM     21  C   UNL d   1      52.800  28.825  53.422  0.00  0.00     0.000 A 
ATOM     22  C   UNL d   1      52.628  29.220  52.718  0.00  0.00     0.001 A 
ATOM     23  C   UNL d   1      52.728  30.041  52.665  0.00  0.00     0.011 A 
ENDBRANCH  15  18
ENDBRANCH   1  15
BRANCH   2  24
ATOM     24  C   UNL d   1      54.407  33.862  53.684  0.00  0.00     0.108 C 
BRANCH  24  25
ATOM     25  C   UNL d   1      54.669  34.018  54.446  0.00  0.00     0.118 A 
ATOM     26  O   UNL d   1      54.240  34.394  55.031  0.00  0.00    -0.304 OA
ATOM     27  C   UNL d   1      54.712  34.437  55.712  0.00  0.00     0.123 A 
ATOM     28  C   UNL d   1      55.430  34.084  55.536  0.00  0.00     0.029 A 
ATOM     29  C   UNL d   1      55.399  33.827  54.754  0.00  0.00     0.028 A 
ENDBRANCH  24  25
ENDBRANCH   2  24
TORSDOF 4
ENDMDL
