MODEL 1
REMARK VINA RESULT:      33.8      0.000      0.000
REMARK  3 active torsions:
REMARK  status: ('A' for Active; 'I' for Inactive)
REMARK    1  A    between atoms: C_5  and  N_1 
REMARK    2  A    between atoms: C_13  and  C_3 
REMARK    3  A    between atoms: C_4  and  C_5 
ROOT
ATOM      1  N   UNL d   1      13.868  12.633  -3.087  0.00  0.00    -0.286 N 
ATOM      2  N   UNL d   1      13.177  13.298  -4.039  0.00  0.00    -0.224 NA
ATOM      3  C   UNL d   1      13.365  12.540  -3.737  0.00  0.00     0.191 A 
ATOM      4  C   UNL d   1      13.999  13.449  -2.976  0.00  0.00     0.083 A 
ATOM      5  C   UNL d   1      13.574  13.856  -3.562  0.00  0.00     0.099 A 
ATOM      6  C   UNL d   1      14.448  13.882  -2.422  0.00  0.00     0.019 A 
ATOM      7  C   UNL d   1      13.593  14.688  -3.599  0.00  0.00     0.021 A 
ATOM      8  C   UNL d   1      14.469  14.706  -2.457  0.00  0.00     0.002 A 
ATOM      9  C   UNL d   1      14.042  15.108  -3.044  0.00  0.00     0.002 A 
ENDROOT
BRANCH   1  10
ATOM     10  C   UNL d   1      14.099  11.925  -2.732  0.00  0.00     0.082 C 
BRANCH  10  11
ATOM     11  C   UNL d   1      14.184  11.884  -1.916  0.00  0.00     0.018 A 
ATOM     12  C   UNL d   1      14.941  11.876  -1.581  0.00  0.00     0.001 A 
ATOM     13  C   UNL d   1      15.028  11.835  -0.766  0.00  0.00     0.000 A 
ATOM     14  C   UNL d   1      15.605  11.908  -2.065  0.00  0.00     0.000 C 
ATOM     15  C   UNL d   1      15.784  11.827  -0.431  0.00  0.00     0.000 C 
ATOM     16  C   UNL d   1      14.365  11.803  -0.281  0.00  0.00     0.000 A 
ATOM     17  C   UNL d   1      13.609  11.811  -0.619  0.00  0.00     0.000 A 
ATOM     18  C   UNL d   1      13.524  11.852  -1.435  0.00  0.00     0.001 A 
ATOM     19  C   UNL d   1      12.936  11.779  -0.148  0.00  0.00     0.000 C 
ATOM     20  C   UNL d   1      12.777  11.860  -1.776  0.00  0.00     0.000 C 
ENDBRANCH  10  11
ENDBRANCH   1  10
BRANCH   3  21
ATOM     21  C   UNL d   1      13.092  11.824  -4.039  0.00  0.00     0.271 C 
ATOM     22  O   UNL d   1      12.785  11.785  -4.801  0.00  0.00    -0.280 OA
ENDBRANCH   3  21
TORSDOF 3
ENDMDL
