MODEL 1
REMARK VINA RESULT:      -3.6      0.000      0.000
REMARK  1 active torsions:
REMARK  status: ('A' for Active; 'I' for Inactive)
REMARK       I    between atoms: C_8  and  N_9 
REMARK    1  A    between atoms: N_9  and  C_10 
ROOT
ATOM      1  N   UNL d   1      29.446  17.289 -24.492  0.00  0.00    -0.304 N 
ATOM      2  C   UNL d   1      30.271  17.256 -24.471  0.00  0.00     0.066 A 
ATOM      3  C   UNL d   1      30.491  16.645 -23.959  0.00  0.00     0.018 A 
ATOM      4  C   UNL d   1      29.157  16.699 -23.994  0.00  0.00     0.064 A 
ATOM      5  C   UNL d   1      29.801  16.302 -23.665  0.00  0.00     0.018 A 
ATOM      6  C   UNL d   1      30.852  17.703 -24.851  0.00  0.00     0.037 A 
ATOM      7  C   UNL d   1      31.288  16.483 -23.829  0.00  0.00     0.003 A 
ATOM      8  C   UNL d   1      31.653  17.539 -24.718  0.00  0.00     0.086 A 
ATOM      9  C   UNL d   1      31.863  16.925 -24.204  0.00  0.00     0.019 A 
ATOM     10  C   UNL d   1      28.999  17.813 -24.929  0.00  0.00     0.099 C 
ATOM     11  C   UNL d   1      28.389  16.469 -23.795  0.00  0.00     0.018 A 
ATOM     12  C   UNL d   1      29.674  15.677 -23.139  0.00  0.00     0.002 A 
ATOM     13  C   UNL d   1      28.910  15.453 -22.945  0.00  0.00     0.000 A 
ATOM     14  C   UNL d   1      28.266  15.850 -23.274  0.00  0.00     0.002 A 
ENDROOT
BRANCH   8  15
ATOM     15  N   UNL d   1      32.222  17.984 -25.097  0.00  0.00    -0.208 NA
ATOM     16  C   UNL d   1      32.664  18.539 -24.682  0.00  0.00     0.279 C 
ATOM     17  O   UNL d   1      33.235  18.984 -25.070  0.00  0.00    -0.265 OA
ATOM     18  C   UNL d   1      32.531  18.645 -23.882  0.00  0.00     0.068 C 
ENDBRANCH   8  15
TORSDOF 1
ENDMDL
MODEL 2
REMARK VINA RESULT:      -3.4      1.896      3.806
REMARK  1 active torsions:
REMARK  status: ('A' for Active; 'I' for Inactive)
REMARK       I    between atoms: C_8  and  N_9 
REMARK    1  A    between atoms: N_9  and  C_10 
ROOT
ATOM      1  N   UNL d   1      31.569  16.169 -23.618  0.00  0.00    -0.304 N 
ATOM      2  C   UNL d   1      30.807  16.307 -23.905  0.00  0.00     0.066 A 
ATOM      3  C   UNL d   1      30.800  17.049 -24.271  0.00  0.00     0.018 A 
ATOM      4  C   UNL d   1      32.032  16.825 -23.807  0.00  0.00     0.064 A 
ATOM      5  C   UNL d   1      31.558  17.367 -24.210  0.00  0.00     0.018 A 
ATOM      6  C   UNL d   1      30.117  15.854 -23.881  0.00  0.00     0.037 A 
ATOM      7  C   UNL d   1      30.106  17.334 -24.611  0.00  0.00     0.003 A 
ATOM      8  C   UNL d   1      29.420  16.144 -24.223  0.00  0.00     0.086 A 
ATOM      9  C   UNL d   1      29.423  16.887 -24.587  0.00  0.00     0.019 A 
ATOM     10  C   UNL d   1      31.817  15.502 -23.220  0.00  0.00     0.099 C 
ATOM     11  C   UNL d   1      32.827  17.000 -23.665  0.00  0.00     0.018 A 
ATOM     12  C   UNL d   1      31.881  18.083 -24.468  0.00  0.00     0.002 A 
ATOM     13  C   UNL d   1      32.670  18.253 -24.325  0.00  0.00     0.000 A 
ATOM     14  C   UNL d   1      33.144  17.710 -23.923  0.00  0.00     0.002 A 
ENDROOT
BRANCH   8  15
ATOM     15  N   UNL d   1      28.741  15.691 -24.196  0.00  0.00    -0.208 NA
ATOM     16  C   UNL d   1      28.109  15.913 -23.721  0.00  0.00     0.279 C 
ATOM     17  O   UNL d   1      27.429  15.453 -23.698  0.00  0.00    -0.265 OA
ATOM     18  C   UNL d   1      28.162  16.594 -23.271  0.00  0.00     0.068 C 
ENDBRANCH   8  15
TORSDOF 1
ENDMDL
MODEL 3
REMARK VINA RESULT:      -3.2      1.845      3.579
REMARK  1 active torsions:
REMARK  status: ('A' for Active; 'I' for Inactive)
REMARK       I    between atoms: C_8  and  N_9 
REMARK    1  A    between atoms: N_9  and  C_10 
ROOT
ATOM      1  N   UNL d   1      31.076  17.457 -24.534  0.00  0.00    -0.304 N 
ATOM      2  C   UNL d   1      30.670  16.808 -24.226  0.00  0.00     0.066 A 
ATOM      3  C   UNL d   1      31.161  16.436 -23.672  0.00  0.00     0.018 A 
ATOM      4  C   UNL d   1      31.816  17.488 -24.171  0.00  0.00     0.064 A 
ATOM      5  C   UNL d   1      31.868  16.859 -23.639  0.00  0.00     0.018 A 
ATOM      6  C   UNL d   1      29.918  16.504 -24.377  0.00  0.00     0.037 A 
ATOM      7  C   UNL d   1      30.898  15.766 -23.273  0.00  0.00     0.003 A 
ATOM      8  C   UNL d   1      29.655  15.829 -23.974  0.00  0.00     0.086 A 
ATOM      9  C   UNL d   1      30.153  15.465 -23.422  0.00  0.00     0.019 A 
ATOM     10  C   UNL d   1      30.794  17.975 -25.097  0.00  0.00     0.099 C 
ATOM     11  C   UNL d   1      32.453  18.008 -24.254  0.00  0.00     0.018 A 
ATOM     12  C   UNL d   1      32.556  16.753 -23.194  0.00  0.00     0.002 A 
ATOM     13  C   UNL d   1      33.185  17.271 -23.280  0.00  0.00     0.000 A 
ATOM     14  C   UNL d   1      33.133  17.900 -23.811  0.00  0.00     0.002 A 
ENDROOT
BRANCH   8  15
ATOM     15  N   UNL d   1      28.910  15.534 -24.128  0.00  0.00    -0.208 NA
ATOM     16  C   UNL d   1      28.269  15.754 -23.664  0.00  0.00     0.279 C 
ATOM     17  O   UNL d   1      27.522  15.453 -23.825  0.00  0.00    -0.265 OA
ATOM     18  C   UNL d   1      28.380  16.274 -23.042  0.00  0.00     0.068 C 
ENDBRANCH   8  15
TORSDOF 1
ENDMDL
MODEL 4
REMARK VINA RESULT:      -2.8      2.775      5.027
REMARK  1 active torsions:
REMARK  status: ('A' for Active; 'I' for Inactive)
REMARK       I    between atoms: C_8  and  N_9 
REMARK    1  A    between atoms: N_9  and  C_10 
ROOT
ATOM      1  N   UNL d   1      33.239  21.004 -22.892  0.00  0.00    -0.304 N 
ATOM      2  C   UNL d   1      33.238  20.179 -22.912  0.00  0.00     0.066 A 
ATOM      3  C   UNL d   1      33.238  19.902 -22.132  0.00  0.00     0.018 A 
ATOM      4  C   UNL d   1      33.239  21.237 -22.100  0.00  0.00     0.064 A 
ATOM      5  C   UNL d   1      33.238  20.558 -21.632  0.00  0.00     0.018 A 
ATOM      6  C   UNL d   1      33.238  19.641 -23.539  0.00  0.00     0.037 A 
ATOM      7  C   UNL d   1      33.237  19.093 -21.982  0.00  0.00     0.003 A 
ATOM      8  C   UNL d   1      33.237  18.827 -23.385  0.00  0.00     0.086 A 
ATOM      9  C   UNL d   1      33.237  18.560 -22.602  0.00  0.00     0.019 A 
ATOM     10  C   UNL d   1      33.239  21.499 -23.540  0.00  0.00     0.099 C 
ATOM     11  C   UNL d   1      33.239  21.982 -21.743  0.00  0.00     0.018 A 
ATOM     12  C   UNL d   1      33.238  20.627 -20.809  0.00  0.00     0.002 A 
ATOM     13  C   UNL d   1      33.238  21.367 -20.458  0.00  0.00     0.000 A 
ATOM     14  C   UNL d   1      33.239  22.047 -20.926  0.00  0.00     0.002 A 
ENDROOT
BRANCH   8  15
ATOM     15  N   UNL d   1      33.237  18.301 -24.009  0.00  0.00    -0.208 NA
ATOM     16  C   UNL d   1      32.553  17.893 -24.213  0.00  0.00     0.279 C 
ATOM     17  O   UNL d   1      32.560  17.365 -24.842  0.00  0.00    -0.265 OA
ATOM     18  C   UNL d   1      31.867  18.017 -23.785  0.00  0.00     0.068 C 
ENDBRANCH   8  15
TORSDOF 1
ENDMDL
MODEL 5
REMARK VINA RESULT:      -2.5      6.179      7.840
REMARK  1 active torsions:
REMARK  status: ('A' for Active; 'I' for Inactive)
REMARK       I    between atoms: C_8  and  N_9 
REMARK    1  A    between atoms: N_9  and  C_10 
ROOT
ATOM      1  N   UNL d   1      33.215  21.413 -20.565  0.00  0.00    -0.304 N 
ATOM      2  C   UNL d   1      33.215  22.046 -20.034  0.00  0.00     0.066 A 
ATOM      3  C   UNL d   1      33.195  22.749 -20.471  0.00  0.00     0.018 A 
ATOM      4  C   UNL d   1      33.196  21.724 -21.329  0.00  0.00     0.064 A 
ATOM      5  C   UNL d   1      33.183  22.547 -21.271  0.00  0.00     0.018 A 
ATOM      6  C   UNL d   1      33.230  22.075 -19.209  0.00  0.00     0.037 A 
ATOM      7  C   UNL d   1      33.191  23.474 -20.084  0.00  0.00     0.003 A 
ATOM      8  C   UNL d   1      33.226  22.808 -18.821  0.00  0.00     0.086 A 
ATOM      9  C   UNL d   1      33.206  23.505 -19.268  0.00  0.00     0.019 A 
ATOM     10  C   UNL d   1      33.232  20.622 -20.366  0.00  0.00     0.099 C 
ATOM     11  C   UNL d   1      33.187  21.365 -22.072  0.00  0.00     0.018 A 
ATOM     12  C   UNL d   1      33.163  23.006 -21.957  0.00  0.00     0.002 A 
ATOM     13  C   UNL d   1      33.154  22.646 -22.693  0.00  0.00     0.000 A 
ATOM     14  C   UNL d   1      33.167  21.823 -22.751  0.00  0.00     0.002 A 
ENDROOT
BRANCH   8  15
ATOM     15  N   UNL d   1      33.241  22.831 -18.006  0.00  0.00    -0.208 NA
ATOM     16  C   UNL d   1      32.690  23.275 -17.589  0.00  0.00     0.279 C 
ATOM     17  O   UNL d   1      32.711  23.293 -16.768  0.00  0.00    -0.265 OA
ATOM     18  C   UNL d   1      32.121  23.698 -17.997  0.00  0.00     0.068 C 
ENDBRANCH   8  15
TORSDOF 1
ENDMDL
MODEL 6
REMARK VINA RESULT:      -2.5      1.874      2.569
REMARK  1 active torsions:
REMARK  status: ('A' for Active; 'I' for Inactive)
REMARK       I    between atoms: C_8  and  N_9 
REMARK    1  A    between atoms: N_9  and  C_10 
ROOT
ATOM      1  N   UNL d   1      31.610  17.790 -24.493  0.00  0.00    -0.304 N 
ATOM      2  C   UNL d   1      32.143  18.139 -23.968  0.00  0.00     0.066 A 
ATOM      3  C   UNL d   1      32.430  17.549 -23.463  0.00  0.00     0.018 A 
ATOM      4  C   UNL d   1      31.568  16.986 -24.314  0.00  0.00     0.064 A 
ATOM      5  C   UNL d   1      32.073  16.837 -23.679  0.00  0.00     0.018 A 
ATOM      6  C   UNL d   1      32.405  18.917 -23.881  0.00  0.00     0.037 A 
ATOM      7  C   UNL d   1      32.976  17.738 -22.877  0.00  0.00     0.003 A 
ATOM      8  C   UNL d   1      32.955  19.105 -23.290  0.00  0.00     0.086 A 
ATOM      9  C   UNL d   1      33.236  18.508 -22.791  0.00  0.00     0.019 A 
ATOM     10  C   UNL d   1      31.199  18.174 -25.083  0.00  0.00     0.099 C 
ATOM     11  C   UNL d   1      31.134  16.367 -24.646  0.00  0.00     0.018 A 
ATOM     12  C   UNL d   1      32.143  16.070 -23.380  0.00  0.00     0.002 A 
ATOM     13  C   UNL d   1      31.710  15.459 -23.713  0.00  0.00     0.000 A 
ATOM     14  C   UNL d   1      31.205  15.607 -24.348  0.00  0.00     0.002 A 
ENDROOT
BRANCH   8  15
ATOM     15  N   UNL d   1      33.210  19.876 -23.210  0.00  0.00    -0.208 NA
ATOM     16  C   UNL d   1      32.978  20.328 -22.565  0.00  0.00     0.279 C 
ATOM     17  O   UNL d   1      33.239  21.104 -22.491  0.00  0.00    -0.265 OA
ATOM     18  C   UNL d   1      32.487  20.002 -21.998  0.00  0.00     0.068 C 
ENDBRANCH   8  15
TORSDOF 1
ENDMDL
MODEL 7
REMARK VINA RESULT:      -1.6      6.011      7.207
REMARK  1 active torsions:
REMARK  status: ('A' for Active; 'I' for Inactive)
REMARK       I    between atoms: C_8  and  N_9 
REMARK    1  A    between atoms: N_9  and  C_10 
ROOT
ATOM      1  N   UNL d   1      33.135  21.786 -20.694  0.00  0.00    -0.304 N 
ATOM      2  C   UNL d   1      33.170  22.266 -21.364  0.00  0.00     0.066 A 
ATOM      3  C   UNL d   1      33.187  23.055 -21.116  0.00  0.00     0.018 A 
ATOM      4  C   UNL d   1      33.131  22.278 -20.031  0.00  0.00     0.064 A 
ATOM      5  C   UNL d   1      33.163  23.060 -20.292  0.00  0.00     0.018 A 
ATOM      6  C   UNL d   1      33.188  22.088 -22.171  0.00  0.00     0.037 A 
ATOM      7  C   UNL d   1      33.223  23.661 -21.672  0.00  0.00     0.003 A 
ATOM      8  C   UNL d   1      33.223  22.700 -22.729  0.00  0.00     0.086 A 
ATOM      9  C   UNL d   1      33.241  23.486 -22.470  0.00  0.00     0.019 A 
ATOM     10  C   UNL d   1      33.109  20.971 -20.689  0.00  0.00     0.099 C 
ATOM     11  C   UNL d   1      33.102  22.116 -19.222  0.00  0.00     0.018 A 
ATOM     12  C   UNL d   1      33.167  23.676 -19.741  0.00  0.00     0.002 A 
ATOM     13  C   UNL d   1      33.138  23.511 -18.939  0.00  0.00     0.000 A 
ATOM     14  C   UNL d   1      33.106  22.729 -18.679  0.00  0.00     0.002 A 
ENDROOT
BRANCH   8  15
ATOM     15  N   UNL d   1      33.241  22.518 -23.524  0.00  0.00    -0.208 NA
ATOM     16  C   UNL d   1      32.892  23.017 -24.075  0.00  0.00     0.279 C 
ATOM     17  O   UNL d   1      32.913  22.827 -24.874  0.00  0.00    -0.265 OA
ATOM     18  C   UNL d   1      32.523  23.702 -23.823  0.00  0.00     0.068 C 
ENDBRANCH   8  15
TORSDOF 1
ENDMDL
MODEL 8
REMARK VINA RESULT:      -1.6      5.385      7.085
REMARK  1 active torsions:
REMARK  status: ('A' for Active; 'I' for Inactive)
REMARK       I    between atoms: C_8  and  N_9 
REMARK    1  A    between atoms: N_9  and  C_10 
ROOT
ATOM      1  N   UNL d   1      32.398  23.027 -20.218  0.00  0.00    -0.304 N 
ATOM      2  C   UNL d   1      32.625  22.277 -20.477  0.00  0.00     0.066 A 
ATOM      3  C   UNL d   1      32.960  21.873 -19.836  0.00  0.00     0.018 A 
ATOM      4  C   UNL d   1      32.594  23.088 -19.419  0.00  0.00     0.064 A 
ATOM      5  C   UNL d   1      32.940  22.377 -19.184  0.00  0.00     0.018 A 
ATOM      6  C   UNL d   1      32.569  21.906 -21.212  0.00  0.00     0.037 A 
ATOM      7  C   UNL d   1      33.238  21.105 -19.934  0.00  0.00     0.003 A 
ATOM      8  C   UNL d   1      32.850  21.131 -21.307  0.00  0.00     0.086 A 
ATOM      9  C   UNL d   1      33.184  20.737 -20.661  0.00  0.00     0.019 A 
ATOM     10  C   UNL d   1      32.045  23.604 -20.673  0.00  0.00     0.099 C 
ATOM     11  C   UNL d   1      32.502  23.700 -18.872  0.00  0.00     0.018 A 
ATOM     12  C   UNL d   1      33.192  22.282 -18.403  0.00  0.00     0.002 A 
ATOM     13  C   UNL d   1      33.099  22.892 -17.863  0.00  0.00     0.000 A 
ATOM     14  C   UNL d   1      32.753  23.603 -18.098  0.00  0.00     0.002 A 
ENDROOT
BRANCH   8  15
ATOM     15  N   UNL d   1      32.792  20.770 -22.037  0.00  0.00    -0.208 NA
ATOM     16  C   UNL d   1      32.944  19.967 -22.119  0.00  0.00     0.279 C 
ATOM     17  O   UNL d   1      32.884  19.610 -22.857  0.00  0.00    -0.265 OA
ATOM     18  C   UNL d   1      33.154  19.526 -21.463  0.00  0.00     0.068 C 
ENDBRANCH   8  15
TORSDOF 1
ENDMDL
MODEL 9
REMARK VINA RESULT:      -1.6      2.441      4.734
REMARK  1 active torsions:
REMARK  status: ('A' for Active; 'I' for Inactive)
REMARK       I    between atoms: C_8  and  N_9 
REMARK    1  A    between atoms: N_9  and  C_10 
ROOT
ATOM      1  N   UNL d   1      33.060  19.993 -22.759  0.00  0.00    -0.304 N 
ATOM      2  C   UNL d   1      33.086  19.282 -23.179  0.00  0.00     0.066 A 
ATOM      3  C   UNL d   1      33.157  19.461 -23.984  0.00  0.00     0.018 A 
ATOM      4  C   UNL d   1      33.115  20.610 -23.303  0.00  0.00     0.064 A 
ATOM      5  C   UNL d   1      33.175  20.283 -24.058  0.00  0.00     0.018 A 
ATOM      6  C   UNL d   1      33.054  18.494 -22.935  0.00  0.00     0.037 A 
ATOM      7  C   UNL d   1      33.196  18.855 -24.539  0.00  0.00     0.003 A 
ATOM      8  C   UNL d   1      33.094  17.885 -23.496  0.00  0.00     0.086 A 
ATOM      9  C   UNL d   1      33.165  18.075 -24.299  0.00  0.00     0.019 A 
ATOM     10  C   UNL d   1      32.992  20.068 -21.950  0.00  0.00     0.099 C 
ATOM     11  C   UNL d   1      33.118  21.431 -23.211  0.00  0.00     0.018 A 
ATOM     12  C   UNL d   1      33.238  20.778 -24.717  0.00  0.00     0.002 A 
ATOM     13  C   UNL d   1      33.241  21.592 -24.621  0.00  0.00     0.000 A 
ATOM     14  C   UNL d   1      33.181  21.919 -23.866  0.00  0.00     0.002 A 
ENDROOT
BRANCH   8  15
ATOM     15  N   UNL d   1      33.062  17.109 -23.248  0.00  0.00    -0.208 NA
ATOM     16  C   UNL d   1      32.388  16.656 -23.375  0.00  0.00     0.279 C 
ATOM     17  O   UNL d   1      32.363  15.875 -23.123  0.00  0.00    -0.265 OA
ATOM     18  C   UNL d   1      31.744  16.989 -23.754  0.00  0.00     0.068 C 
ENDBRANCH   8  15
TORSDOF 1
ENDMDL
