MODEL 1
REMARK VINA RESULT:      15.5      0.000      0.000
REMARK  3 active torsions:
REMARK  status: ('A' for Active; 'I' for Inactive)
REMARK    1  A    between atoms: C_12  and  C_9 
REMARK    2  A    between atoms: O_26  and  C_19 
REMARK    3  A    between atoms: O_27  and  C_22 
ROOT
ATOM      1  C   UNL d   1     -41.544-121.412 -53.569  0.00  0.00     0.156 A 
ATOM      2  C   UNL d   1     -41.652-121.909 -52.920  0.00  0.00     0.091 A 
ATOM      3  N   UNL d   1     -41.572-121.713 -54.332  0.00  0.00    -0.241 N 
ATOM      4  N   UNL d   1     -41.817-123.012 -53.803  0.00  0.00    -0.224 N 
ATOM      5  C   UNL d   1     -41.708-122.511 -54.449  0.00  0.00     0.343 A 
ATOM      6  C   UNL d   1     -41.790-122.713 -53.042  0.00  0.00     0.271 A 
ATOM      7  C   UNL d   1     -41.487-120.807 -52.039  0.00  0.00     0.056 A 
ATOM      8  N   UNL d   1     -41.407-120.611 -53.449  0.00  0.00    -0.228 NA
ATOM      9  C   UNL d   1     -41.624-121.610 -52.160  0.00  0.00     0.012 A 
ATOM     10  C   UNL d   1     -41.377-120.305 -52.693  0.00  0.00     0.082 A 
ATOM     11  C   UNL d   1     -41.459-120.505 -51.275  0.00  0.00     0.193 A 
ATOM     12  C   UNL d   1     -41.240-119.504 -52.574  0.00  0.00    -0.003 A 
ATOM     13  C   UNL d   1     -41.211-119.196 -51.811  0.00  0.00     0.042 A 
ATOM     14  O   UNL d   1     -41.737-122.816 -55.214  0.00  0.00    -0.245 OA
ATOM     15  C   UNL d   1     -41.321-119.698 -51.163  0.00  0.00     0.019 A 
ATOM     16  O   UNL d   1     -41.875-123.110 -52.563  0.00  0.00    -0.266 OA
ATOM     17  O   UNL d   1     -41.555-120.947 -50.711  0.00  0.00    -0.287 OA
ATOM     18  C   UNL d   1     -41.463-121.214 -54.977  0.00  0.00     0.105 C 
ATOM     19  C   UNL d   1     -41.955-123.816 -53.925  0.00  0.00     0.107 C 
ATOM     20  C   UNL d   1     -41.124-118.795 -52.329  0.00  0.00     0.009 C 
ATOM     21  C   UNL d   1     -41.184-118.898 -51.044  0.00  0.00     0.009 C 
ENDROOT
BRANCH   9  22
ATOM     22  C   UNL d   1     -41.740-122.140 -51.476  0.00  0.00     0.003 A 
ATOM     23  C   UNL d   1     -42.615-122.289 -51.102  0.00  0.00     0.026 A 
ATOM     24  C   UNL d   1     -42.678-122.829 -50.417  0.00  0.00     0.116 A 
ATOM     25  C   UNL d   1     -41.971-123.202 -50.105  0.00  0.00     0.116 A 
ATOM     26  C   UNL d   1     -41.194-123.048 -50.464  0.00  0.00     0.026 A 
ATOM     27  C   UNL d   1     -41.129-122.517 -51.139  0.00  0.00     0.002 A 
BRANCH  24  28
ATOM     28  O   UNL d   1     -43.449-122.977 -50.067  0.00  0.00    -0.326 OA
ATOM     29  C   UNL d   1     -44.040-122.345 -50.026  0.00  0.00     0.181 C 
ENDBRANCH  24  28
BRANCH  25  30
ATOM     30  O   UNL d   1     -42.044-123.727 -49.436  0.00  0.00    -0.326 OA
ATOM     31  C   UNL d   1     -41.421-123.770 -48.831  0.00  0.00     0.181 C 
ENDBRANCH  25  30
ENDBRANCH   9  22
TORSDOF 3
ENDMDL
