MODEL 1
REMARK VINA RESULT:      25.5      0.000      0.000
REMARK  2 active torsions:
REMARK  status: ('A' for Active; 'I' for Inactive)
REMARK       I    between atoms: C_6  and  N_1 
REMARK    1  A    between atoms: C_7  and  C_3 
REMARK    2  A    between atoms: C_8  and  C_4 
ROOT
ATOM      1  N   UNL d   1      46.181 -17.570  42.700  0.00  0.00    -0.195 N 
ATOM      2  N   UNL d   1      46.035 -16.775  42.789  0.00  0.00    -0.163 NA
ATOM      3  C   UNL d   1      45.954 -16.632  43.598  0.00  0.00     0.106 A 
ATOM      4  C   UNL d   1      46.191 -17.919  43.447  0.00  0.00     0.088 A 
ATOM      5  C   UNL d   1      46.050 -17.335  43.995  0.00  0.00     0.040 A 
ATOM      6  C   UNL d   1      46.305 -17.984  41.964  0.00  0.00     0.281 C 
ATOM      7  O   UNL d   1      46.445 -18.771  41.955  0.00  0.00    -0.265 OA
ATOM      8  C   UNL d   1      46.277 -17.548  41.263  0.00  0.00     0.068 C 
ENDROOT
BRANCH   3   9
ATOM      9  C   UNL d   1      45.801 -15.899  43.944  0.00  0.00     0.058 A 
ATOM     10  C   UNL d   1      45.213 -15.828  44.518  0.00  0.00     0.197 A 
ATOM     11  O   UNL d   1      44.799 -16.492  44.727  0.00  0.00    -0.286 OA
ATOM     12  C   UNL d   1      45.081 -15.098  44.843  0.00  0.00     0.042 A 
ATOM     13  C   UNL d   1      45.490 -14.458  44.633  0.00  0.00     0.003 A 
ATOM     14  C   UNL d   1      46.078 -14.530  44.058  0.00  0.00     0.000 A 
ATOM     15  C   UNL d   1      46.236 -15.237  43.715  0.00  0.00     0.005 A 
ENDBRANCH   3   9
BRANCH   4  16
ATOM     16  C   UNL d   1      46.322 -18.723  43.602  0.00  0.00     0.018 A 
ATOM     17  C   UNL d   1      46.509 -18.992  44.352  0.00  0.00     0.002 A 
ATOM     18  C   UNL d   1      46.563 -18.426  44.953  0.00  0.00     0.000 C 
ATOM     19  C   UNL d   1      46.638 -19.766  44.512  0.00  0.00     0.000 A 
ATOM     20  C   UNL d   1      46.584 -20.330  43.910  0.00  0.00     0.000 A 
ATOM     21  C   UNL d   1      46.396 -20.099  43.135  0.00  0.00     0.000 A 
ATOM     22  C   UNL d   1      46.270 -19.292  43.004  0.00  0.00     0.002 A 
ENDBRANCH   4  16
TORSDOF 2
ENDMDL
