MODEL 1
REMARK VINA RESULT:      -8.5      0.000      0.000
REMARK  4 active torsions:
REMARK  status: ('A' for Active; 'I' for Inactive)
REMARK    1  A    between atoms: N_3  and  C_1 
REMARK       I    between atoms: C_5  and  N_3 
REMARK    2  A    between atoms: C_7  and  C_5 
REMARK    3  A    between atoms: C_9  and  C_12 
REMARK    4  A    between atoms: O_18  and  C_9 
ROOT
ATOM      1  C   UNL d   1      53.648  33.950  54.445  0.00  0.00     0.197 A 
ATOM      2  N   UNL d   1      54.258  33.701  53.932  0.00  0.00    -0.221 NA
ATOM      3  S   UNL d   1      53.158  33.303  54.586  0.00  0.00    -0.047 SA
ATOM      4  C   UNL d   1      53.451  32.650  54.170  0.00  0.00     0.050 A 
ATOM      5  C   UNL d   1      54.136  32.898  53.762  0.00  0.00     0.090 A 
ATOM      6  C   UNL d   1      53.609  31.343  53.640  0.00  0.00     0.064 A 
ATOM      7  C   UNL d   1      53.192  31.870  54.105  0.00  0.00     0.013 A 
ATOM      8  C   UNL d   1      54.548  32.361  53.297  0.00  0.00     0.020 A 
ATOM      9  C   UNL d   1      54.294  31.591  53.232  0.00  0.00     0.007 A 
ENDROOT
BRANCH   1  10
ATOM     10  N   UNL d   1      53.556  34.712  54.754  0.00  0.00    -0.183 NA
ATOM     11  C   UNL d   1      53.062  35.254  54.376  0.00  0.00     0.281 C 
ATOM     12  O   UNL d   1      52.971  36.011  54.683  0.00  0.00    -0.265 OA
BRANCH  11  13
ATOM     13  C   UNL d   1      52.660  35.035  53.690  0.00  0.00     0.058 A 
ATOM     14  C   UNL d   1      51.981  34.750  53.318  0.00  0.00     0.005 A 
ATOM     15  C   UNL d   1      52.645  34.942  52.872  0.00  0.00     0.005 A 
ENDBRANCH  11  13
ENDBRANCH   1  10
BRANCH   6  16
ATOM     16  C   UNL d   1      53.360  30.558  53.565  0.00  0.00     0.296 C 
ATOM     17  O   UNL d   1      52.939  30.316  52.908  0.00  0.00    -0.259 OA
BRANCH  16  18
ATOM     18  O   UNL d   1      53.544  30.018  54.170  0.00  0.00    -0.296 OA
ATOM     19  C   UNL d   1      53.244  29.255  54.136  0.00  0.00     0.185 C 
ENDBRANCH  16  18
ENDBRANCH   6  16
TORSDOF 4
ENDMDL
MODEL 2
REMARK VINA RESULT:      -8.1      2.103      3.540
REMARK  4 active torsions:
REMARK  status: ('A' for Active; 'I' for Inactive)
REMARK    1  A    between atoms: N_3  and  C_1 
REMARK       I    between atoms: C_5  and  N_3 
REMARK    2  A    between atoms: C_7  and  C_5 
REMARK    3  A    between atoms: C_9  and  C_12 
REMARK    4  A    between atoms: O_18  and  C_9 
ROOT
ATOM      1  C   UNL d   1      53.291  34.160  54.479  0.00  0.00     0.197 A 
ATOM      2  N   UNL d   1      52.763  33.516  54.544  0.00  0.00    -0.221 NA
ATOM      3  S   UNL d   1      53.034  34.633  53.855  0.00  0.00    -0.047 SA
ATOM      4  C   UNL d   1      52.353  34.297  53.527  0.00  0.00     0.050 A 
ATOM      5  C   UNL d   1      52.184  33.600  53.956  0.00  0.00     0.090 A 
ATOM      6  C   UNL d   1      51.219  34.066  52.706  0.00  0.00     0.064 A 
ATOM      7  C   UNL d   1      51.866  34.525  52.902  0.00  0.00     0.013 A 
ATOM      8  C   UNL d   1      51.531  33.146  53.751  0.00  0.00     0.020 A 
ATOM      9  C   UNL d   1      51.050  33.369  53.135  0.00  0.00     0.007 A 
ENDROOT
BRANCH   1  10
ATOM     10  N   UNL d   1      53.951  34.295  54.958  0.00  0.00    -0.183 NA
ATOM     11  C   UNL d   1      54.626  33.828  54.871  0.00  0.00     0.281 C 
ATOM     12  O   UNL d   1      55.283  33.962  55.346  0.00  0.00    -0.265 OA
BRANCH  11  13
ATOM     13  C   UNL d   1      54.641  33.228  54.305  0.00  0.00     0.058 A 
ATOM     14  C   UNL d   1      54.819  32.966  53.543  0.00  0.00     0.005 A 
ATOM     15  C   UNL d   1      54.488  32.448  54.090  0.00  0.00     0.005 A 
ENDBRANCH  11  13
ENDBRANCH   1  10
BRANCH   6  16
ATOM     16  C   UNL d   1      50.722  34.282  52.082  0.00  0.00     0.296 C 
ATOM     17  O   UNL d   1      51.003  34.302  51.314  0.00  0.00    -0.259 OA
BRANCH  16  18
ATOM     18  O   UNL d   1      49.932  34.480  52.245  0.00  0.00    -0.296 OA
ATOM     19  C   UNL d   1      49.405  34.589  51.625  0.00  0.00     0.185 C 
ENDBRANCH  16  18
ENDBRANCH   6  16
TORSDOF 4
ENDMDL
MODEL 3
REMARK VINA RESULT:      -7.9      1.508      4.143
REMARK  4 active torsions:
REMARK  status: ('A' for Active; 'I' for Inactive)
REMARK    1  A    between atoms: N_3  and  C_1 
REMARK       I    between atoms: C_5  and  N_3 
REMARK    2  A    between atoms: C_7  and  C_5 
REMARK    3  A    between atoms: C_9  and  C_12 
REMARK    4  A    between atoms: O_18  and  C_9 
ROOT
ATOM      1  C   UNL d   1      53.071  31.267  52.972  0.00  0.00     0.197 A 
ATOM      2  N   UNL d   1      53.876  31.447  53.103  0.00  0.00    -0.221 NA
ATOM      3  S   UNL d   1      52.622  31.885  53.280  0.00  0.00    -0.047 SA
ATOM      4  C   UNL d   1      53.132  32.451  53.603  0.00  0.00     0.050 A 
ATOM      5  C   UNL d   1      53.914  32.178  53.493  0.00  0.00     0.090 A 
ATOM      6  C   UNL d   1      53.629  33.616  54.243  0.00  0.00     0.064 A 
ATOM      7  C   UNL d   1      52.996  33.172  53.979  0.00  0.00     0.013 A 
ATOM      8  C   UNL d   1      54.543  32.632  53.761  0.00  0.00     0.020 A 
ATOM      9  C   UNL d   1      54.411  33.343  54.133  0.00  0.00     0.007 A 
ENDROOT
BRANCH   1  10
ATOM     10  N   UNL d   1      52.782  30.588  52.598  0.00  0.00    -0.183 NA
ATOM     11  C   UNL d   1      52.783  29.866  52.996  0.00  0.00     0.281 C 
ATOM     12  O   UNL d   1      52.495  29.191  52.626  0.00  0.00    -0.265 OA
BRANCH  11  13
ATOM     13  C   UNL d   1      53.074  29.821  53.767  0.00  0.00     0.058 A 
ATOM     14  C   UNL d   1      52.956  29.887  54.581  0.00  0.00     0.005 A 
ATOM     15  C   UNL d   1      53.696  29.679  54.287  0.00  0.00     0.005 A 
ENDBRANCH  11  13
ENDBRANCH   1  10
BRANCH   6  16
ATOM     16  C   UNL d   1      53.507  34.340  54.622  0.00  0.00     0.296 C 
ATOM     17  O   UNL d   1      53.733  34.445  55.401  0.00  0.00    -0.259 OA
BRANCH  16  18
ATOM     18  O   UNL d   1      53.151  34.961  54.200  0.00  0.00    -0.296 OA
ATOM     19  C   UNL d   1      53.009  35.677  54.575  0.00  0.00     0.185 C 
ENDBRANCH  16  18
ENDBRANCH   6  16
TORSDOF 4
ENDMDL
MODEL 4
REMARK VINA RESULT:      -7.5      2.007      4.113
REMARK  4 active torsions:
REMARK  status: ('A' for Active; 'I' for Inactive)
REMARK    1  A    between atoms: N_3  and  C_1 
REMARK       I    between atoms: C_5  and  N_3 
REMARK    2  A    between atoms: C_7  and  C_5 
REMARK    3  A    between atoms: C_9  and  C_12 
REMARK    4  A    between atoms: O_18  and  C_9 
ROOT
ATOM      1  C   UNL d   1      52.570  32.087  53.003  0.00  0.00     0.197 A 
ATOM      2  N   UNL d   1      52.799  32.727  52.517  0.00  0.00    -0.221 NA
ATOM      3  S   UNL d   1      51.835  32.269  53.328  0.00  0.00    -0.047 SA
ATOM      4  C   UNL d   1      51.598  33.013  53.053  0.00  0.00     0.050 A 
ATOM      5  C   UNL d   1      52.198  33.298  52.548  0.00  0.00     0.090 A 
ATOM      6  C   UNL d   1      50.848  34.197  52.830  0.00  0.00     0.064 A 
ATOM      7  C   UNL d   1      50.924  33.467  53.191  0.00  0.00     0.013 A 
ATOM      8  C   UNL d   1      52.112  34.032  52.191  0.00  0.00     0.020 A 
ATOM      9  C   UNL d   1      51.449  34.482  52.325  0.00  0.00     0.007 A 
ENDROOT
BRANCH   1  10
ATOM     10  N   UNL d   1      53.007  31.397  53.133  0.00  0.00    -0.183 NA
ATOM     11  C   UNL d   1      53.650  31.407  53.650  0.00  0.00     0.281 C 
ATOM     12  O   UNL d   1      54.084  30.721  53.779  0.00  0.00    -0.265 OA
BRANCH  11  13
ATOM     13  C   UNL d   1      53.856  32.105  54.037  0.00  0.00     0.058 A 
ATOM     14  C   UNL d   1      53.784  32.614  54.683  0.00  0.00     0.005 A 
ATOM     15  C   UNL d   1      54.287  32.806  54.061  0.00  0.00     0.005 A 
ENDBRANCH  11  13
ENDBRANCH   1  10
BRANCH   6  16
ATOM     16  C   UNL d   1      50.178  34.663  52.960  0.00  0.00     0.296 C 
ATOM     17  O   UNL d   1      50.159  35.203  53.573  0.00  0.00    -0.259 OA
BRANCH  16  18
ATOM     18  O   UNL d   1      49.522  34.574  52.457  0.00  0.00    -0.296 OA
ATOM     19  C   UNL d   1      48.878  35.077  52.539  0.00  0.00     0.185 C 
ENDBRANCH  16  18
ENDBRANCH   6  16
TORSDOF 4
ENDMDL
