MODEL 1
REMARK VINA RESULT:      -5.6      0.000      0.000
REMARK  5 active torsions:
REMARK  status: ('A' for Active; 'I' for Inactive)
REMARK    1  A    between atoms: S_2  and  C_1 
REMARK    2  A    between atoms: C_9  and  S_2 
REMARK    3  A    between atoms: C_8  and  N_3 
REMARK    4  A    between atoms: C_7  and  C_8 
REMARK       I    between atoms: N_12  and  C_7 
REMARK    5  A    between atoms: C_14  and  C_9 
ROOT
ATOM      1  C   UNL d   1     -48.187  13.357  22.696  0.00  0.00     0.107 A 
ATOM      2  N   UNL d   1     -47.049  12.756  23.038  0.00  0.00    -0.299 N 
ATOM      3  C   UNL d   1     -47.362  13.443  22.707  0.00  0.00     0.092 A 
ATOM      4  C   UNL d   1     -48.374  12.621  23.018  0.00  0.00     0.028 A 
ATOM      5  C   UNL d   1     -47.666  12.249  23.230  0.00  0.00     0.065 A 
ATOM      6  C   UNL d   1     -49.094  12.244  23.146  0.00  0.00     0.002 A 
ATOM      7  C   UNL d   1     -47.687  11.498  23.570  0.00  0.00     0.018 A 
ATOM      8  C   UNL d   1     -49.117  11.489  23.487  0.00  0.00     0.000 A 
ATOM      9  C   UNL d   1     -48.407  11.120  23.697  0.00  0.00     0.002 A 
ENDROOT
BRANCH   1  10
ATOM     10  S   UNL d   1     -48.729  13.917  22.409  0.00  0.00     0.212 S 
ATOM     11  O   UNL d   1     -48.554  14.338  23.096  0.00  0.00    -0.217 OA
ATOM     12  O   UNL d   1     -48.902  13.491  21.721  0.00  0.00    -0.217 OA
BRANCH  10  13
ATOM     13  C   UNL d   1     -49.267  14.471  22.124  0.00  0.00     0.099 C 
BRANCH  13  14
ATOM     14  C   UNL d   1     -49.765  14.865  22.645  0.00  0.00     0.011 A 
ATOM     15  C   UNL d   1     -50.560  14.651  22.693  0.00  0.00     0.001 A 
ATOM     16  C   UNL d   1     -51.062  15.053  23.223  0.00  0.00     0.000 A 
ATOM     17  C   UNL d   1     -50.761  15.663  23.698  0.00  0.00     0.000 A 
ATOM     18  C   UNL d   1     -49.963  15.866  23.638  0.00  0.00     0.000 A 
ATOM     19  C   UNL d   1     -49.472  15.470  23.116  0.00  0.00     0.001 A 
ENDBRANCH  13  14
ENDBRANCH  10  13
ENDBRANCH   1  10
BRANCH   2  20
ATOM     20  C   UNL d   1     -46.246  12.604  23.156  0.00  0.00     0.142 C 
BRANCH  20  21
ATOM     21  C   UNL d   1     -45.685  12.945  22.659  0.00  0.00     0.283 C 
ATOM     22  N   UNL d   1     -45.020  12.514  22.431  0.00  0.00    -0.268 N 
ATOM     23  C   UNL d   1     -44.450  12.852  21.930  0.00  0.00     0.102 C 
ATOM     24  C   UNL d   1     -44.916  11.741  22.699  0.00  0.00     0.102 C 
ATOM     25  O   UNL d   1     -45.788  13.716  22.391  0.00  0.00    -0.265 OA
ENDBRANCH  20  21
ENDBRANCH   2  20
TORSDOF 5
ENDMDL
MODEL 2
REMARK VINA RESULT:      -5.6      1.491      4.227
REMARK  5 active torsions:
REMARK  status: ('A' for Active; 'I' for Inactive)
REMARK    1  A    between atoms: S_2  and  C_1 
REMARK    2  A    between atoms: C_9  and  S_2 
REMARK    3  A    between atoms: C_8  and  N_3 
REMARK    4  A    between atoms: C_7  and  C_8 
REMARK       I    between atoms: N_12  and  C_7 
REMARK    5  A    between atoms: C_14  and  C_9 
ROOT
ATOM      1  C   UNL d   1     -48.127  13.882  22.823  0.00  0.00     0.107 A 
ATOM      2  N   UNL d   1     -49.339  13.344  22.697  0.00  0.00    -0.299 N 
ATOM      3  C   UNL d   1     -48.540  13.164  22.789  0.00  0.00     0.092 A 
ATOM      4  C   UNL d   1     -48.672  14.497  22.753  0.00  0.00     0.028 A 
ATOM      5  C   UNL d   1     -49.425  14.161  22.674  0.00  0.00     0.065 A 
ATOM      6  C   UNL d   1     -48.582  15.315  22.750  0.00  0.00     0.002 A 
ATOM      7  C   UNL d   1     -50.083  14.652  22.593  0.00  0.00     0.018 A 
ATOM      8  C   UNL d   1     -49.243  15.809  22.668  0.00  0.00     0.000 A 
ATOM      9  C   UNL d   1     -49.993  15.470  22.590  0.00  0.00     0.002 A 
ENDROOT
BRANCH   1  10
ATOM     10  S   UNL d   1     -47.306  13.966  22.913  0.00  0.00     0.212 S 
ATOM     11  O   UNL d   1     -47.411  13.559  23.623  0.00  0.00    -0.217 OA
ATOM     12  O   UNL d   1     -47.205  14.375  22.200  0.00  0.00    -0.217 OA
BRANCH  10  13
ATOM     13  C   UNL d   1     -46.492  14.050  23.001  0.00  0.00     0.099 C 
BRANCH  13  14
ATOM     14  C   UNL d   1     -45.988  13.451  22.751  0.00  0.00     0.011 A 
ATOM     15  C   UNL d   1     -45.952  12.744  23.174  0.00  0.00     0.001 A 
ATOM     16  C   UNL d   1     -45.441  12.138  22.917  0.00  0.00     0.000 A 
ATOM     17  C   UNL d   1     -44.973  12.248  22.241  0.00  0.00     0.000 A 
ATOM     18  C   UNL d   1     -45.021  12.962  21.828  0.00  0.00     0.000 A 
ATOM     19  C   UNL d   1     -45.524  13.556  22.082  0.00  0.00     0.001 A 
ENDBRANCH  13  14
ENDBRANCH  10  13
ENDBRANCH   1  10
BRANCH   2  20
ATOM     20  C   UNL d   1     -49.951  12.794  22.637  0.00  0.00     0.142 C 
BRANCH  20  21
ATOM     21  C   UNL d   1     -49.837  12.021  22.898  0.00  0.00     0.283 C 
ATOM     22  N   UNL d   1     -50.370  11.682  23.428  0.00  0.00    -0.268 N 
ATOM     23  C   UNL d   1     -50.260  10.903  23.695  0.00  0.00     0.102 C 
ATOM     24  C   UNL d   1     -51.017  12.115  23.698  0.00  0.00     0.102 C 
ATOM     25  O   UNL d   1     -49.191  11.588  22.629  0.00  0.00    -0.265 OA
ENDBRANCH  20  21
ENDBRANCH   2  20
TORSDOF 5
ENDMDL
MODEL 3
REMARK VINA RESULT:      -4.9      1.335      4.077
REMARK  5 active torsions:
REMARK  status: ('A' for Active; 'I' for Inactive)
REMARK    1  A    between atoms: S_2  and  C_1 
REMARK    2  A    between atoms: C_9  and  S_2 
REMARK    3  A    between atoms: C_8  and  N_3 
REMARK    4  A    between atoms: C_7  and  C_8 
REMARK       I    between atoms: N_12  and  C_7 
REMARK    5  A    between atoms: C_14  and  C_9 
ROOT
ATOM      1  C   UNL d   1     -48.002  12.806  22.956  0.00  0.00     0.107 A 
ATOM      2  N   UNL d   1     -49.126  13.404  22.565  0.00  0.00    -0.299 N 
ATOM      3  C   UNL d   1     -48.305  13.479  22.580  0.00  0.00     0.092 A 
ATOM      4  C   UNL d   1     -48.636  12.323  23.170  0.00  0.00     0.028 A 
ATOM      5  C   UNL d   1     -49.333  12.696  22.926  0.00  0.00     0.065 A 
ATOM      6  C   UNL d   1     -48.668  11.595  23.553  0.00  0.00     0.002 A 
ATOM      7  C   UNL d   1     -50.060  12.334  23.070  0.00  0.00     0.018 A 
ATOM      8  C   UNL d   1     -49.398  11.230  23.698  0.00  0.00     0.000 A 
ATOM      9  C   UNL d   1     -50.092  11.606  23.453  0.00  0.00     0.002 A 
ENDROOT
BRANCH   1  10
ATOM     10  S   UNL d   1     -47.199  12.646  23.094  0.00  0.00     0.212 S 
ATOM     11  O   UNL d   1     -47.236  13.273  23.629  0.00  0.00    -0.217 OA
ATOM     12  O   UNL d   1     -47.166  12.018  22.556  0.00  0.00    -0.217 OA
BRANCH  10  13
ATOM     13  C   UNL d   1     -46.403  12.487  23.229  0.00  0.00     0.099 C 
BRANCH  13  14
ATOM     14  C   UNL d   1     -45.829  12.830  22.750  0.00  0.00     0.011 A 
ATOM     15  C   UNL d   1     -45.754  13.651  22.726  0.00  0.00     0.001 A 
ATOM     16  C   UNL d   1     -45.172  13.995  22.239  0.00  0.00     0.000 A 
ATOM     17  C   UNL d   1     -44.673  13.513  21.783  0.00  0.00     0.000 A 
ATOM     18  C   UNL d   1     -44.761  12.693  21.818  0.00  0.00     0.000 A 
ATOM     19  C   UNL d   1     -45.334  12.357  22.298  0.00  0.00     0.001 A 
ENDBRANCH  13  14
ENDBRANCH  10  13
ENDBRANCH   1  10
BRANCH   2  20
ATOM     20  C   UNL d   1     -49.652  13.951  22.241  0.00  0.00     0.142 C 
BRANCH  20  21
ATOM     21  C   UNL d   1     -49.680  14.720  22.535  0.00  0.00     0.283 C 
ATOM     22  N   UNL d   1     -50.386  15.146  22.510  0.00  0.00    -0.268 N 
ATOM     23  C   UNL d   1     -50.420  15.922  22.805  0.00  0.00     0.102 C 
ATOM     24  C   UNL d   1     -51.064  14.803  22.192  0.00  0.00     0.102 C 
ATOM     25  O   UNL d   1     -49.003  15.063  22.852  0.00  0.00    -0.265 OA
ENDBRANCH  20  21
ENDBRANCH   2  20
TORSDOF 5
ENDMDL
MODEL 4
REMARK VINA RESULT:      -4.6      1.620      2.523
REMARK  5 active torsions:
REMARK  status: ('A' for Active; 'I' for Inactive)
REMARK    1  A    between atoms: S_2  and  C_1 
REMARK    2  A    between atoms: C_9  and  S_2 
REMARK    3  A    between atoms: C_8  and  N_3 
REMARK    4  A    between atoms: C_7  and  C_8 
REMARK       I    between atoms: N_12  and  C_7 
REMARK    5  A    between atoms: C_14  and  C_9 
ROOT
ATOM      1  C   UNL d   1     -47.559  12.490  23.147  0.00  0.00     0.107 A 
ATOM      2  N   UNL d   1     -46.252  12.279  23.000  0.00  0.00    -0.299 N 
ATOM      3  C   UNL d   1     -46.971  11.905  23.150  0.00  0.00     0.092 A 
ATOM      4  C   UNL d   1     -47.198  13.216  22.995  0.00  0.00     0.028 A 
ATOM      5  C   UNL d   1     -46.386  13.083  22.904  0.00  0.00     0.065 A 
ATOM      6  C   UNL d   1     -47.503  13.978  22.928  0.00  0.00     0.002 A 
ATOM      7  C   UNL d   1     -45.886  13.719  22.746  0.00  0.00     0.018 A 
ATOM      8  C   UNL d   1     -47.000  14.618  22.769  0.00  0.00     0.000 A 
ATOM      9  C   UNL d   1     -46.190  14.481  22.679  0.00  0.00     0.002 A 
ENDROOT
BRANCH   1  10
ATOM     10  S   UNL d   1     -48.369  12.365  23.274  0.00  0.00     0.212 S 
ATOM     11  O   UNL d   1     -48.258  11.665  22.851  0.00  0.00    -0.217 OA
ATOM     12  O   UNL d   1     -48.477  13.067  23.698  0.00  0.00    -0.217 OA
BRANCH  10  13
ATOM     13  C   UNL d   1     -49.174  12.242  23.401  0.00  0.00     0.099 C 
BRANCH  13  14
ATOM     14  C   UNL d   1     -49.720  12.493  22.841  0.00  0.00     0.011 A 
ATOM     15  C   UNL d   1     -50.274  13.071  23.041  0.00  0.00     0.001 A 
ATOM     16  C   UNL d   1     -50.826  13.324  22.470  0.00  0.00     0.000 A 
ATOM     17  C   UNL d   1     -50.817  12.995  21.709  0.00  0.00     0.000 A 
ATOM     18  C   UNL d   1     -50.257  12.418  21.524  0.00  0.00     0.000 A 
ATOM     19  C   UNL d   1     -49.715  12.171  22.087  0.00  0.00     0.001 A 
ENDBRANCH  13  14
ENDBRANCH  10  13
ENDBRANCH   1  10
BRANCH   2  20
ATOM     20  C   UNL d   1     -45.518  11.905  22.954  0.00  0.00     0.142 C 
BRANCH  20  21
ATOM     21  C   UNL d   1     -45.404  11.174  23.317  0.00  0.00     0.283 C 
ATOM     22  N   UNL d   1     -44.660  10.818  23.305  0.00  0.00    -0.268 N 
ATOM     23  C   UNL d   1     -44.539  10.082  23.669  0.00  0.00     0.102 C 
ATOM     24  C   UNL d   1     -44.029  11.193  22.929  0.00  0.00     0.102 C 
ATOM     25  O   UNL d   1     -46.033  10.800  23.693  0.00  0.00    -0.265 OA
ENDBRANCH  20  21
ENDBRANCH   2  20
TORSDOF 5
ENDMDL
MODEL 5
REMARK VINA RESULT:      -4.3      1.141      1.646
REMARK  5 active torsions:
REMARK  status: ('A' for Active; 'I' for Inactive)
REMARK    1  A    between atoms: S_2  and  C_1 
REMARK    2  A    between atoms: C_9  and  S_2 
REMARK    3  A    between atoms: C_8  and  N_3 
REMARK    4  A    between atoms: C_7  and  C_8 
REMARK       I    between atoms: N_12  and  C_7 
REMARK    5  A    between atoms: C_14  and  C_9 
ROOT
ATOM      1  C   UNL d   1     -48.469  12.744  22.939  0.00  0.00     0.107 A 
ATOM      2  N   UNL d   1     -47.157  12.891  22.756  0.00  0.00    -0.299 N 
ATOM      3  C   UNL d   1     -47.885  13.269  22.672  0.00  0.00     0.092 A 
ATOM      4  C   UNL d   1     -48.097  12.049  23.185  0.00  0.00     0.028 A 
ATOM      5  C   UNL d   1     -47.283  12.143  23.070  0.00  0.00     0.065 A 
ATOM      6  C   UNL d   1     -48.394  11.348  23.496  0.00  0.00     0.002 A 
ATOM      7  C   UNL d   1     -46.772  11.527  23.271  0.00  0.00     0.018 A 
ATOM      8  C   UNL d   1     -47.881  10.729  23.697  0.00  0.00     0.000 A 
ATOM      9  C   UNL d   1     -47.068  10.825  23.582  0.00  0.00     0.002 A 
ENDROOT
BRANCH   1  10
ATOM     10  S   UNL d   1     -49.285  12.893  22.956  0.00  0.00     0.212 S 
ATOM     11  O   UNL d   1     -49.308  12.471  22.248  0.00  0.00    -0.217 OA
ATOM     12  O   UNL d   1     -49.258  13.316  23.667  0.00  0.00    -0.217 OA
BRANCH  10  13
ATOM     13  C   UNL d   1     -50.095  13.042  22.974  0.00  0.00     0.099 C 
BRANCH  13  14
ATOM     14  C   UNL d   1     -50.417  13.616  22.482  0.00  0.00     0.011 A 
ATOM     15  C   UNL d   1     -50.590  14.364  22.784  0.00  0.00     0.001 A 
ATOM     16  C   UNL d   1     -50.917  14.943  22.282  0.00  0.00     0.000 A 
ATOM     17  C   UNL d   1     -51.064  14.767  21.485  0.00  0.00     0.000 A 
ATOM     18  C   UNL d   1     -50.885  14.014  21.197  0.00  0.00     0.000 A 
ATOM     19  C   UNL d   1     -50.564  13.446  21.693  0.00  0.00     0.001 A 
ENDBRANCH  13  14
ENDBRANCH  10  13
ENDBRANCH   1  10
BRANCH   2  20
ATOM     20  C   UNL d   1     -46.424  13.213  22.558  0.00  0.00     0.142 C 
BRANCH  20  21
ATOM     21  C   UNL d   1     -46.294  14.022  22.638  0.00  0.00     0.283 C 
ATOM     22  N   UNL d   1     -45.571  14.348  22.412  0.00  0.00    -0.268 N 
ATOM     23  C   UNL d   1     -45.433  15.163  22.491  0.00  0.00     0.102 C 
ATOM     24  C   UNL d   1     -44.978  13.865  22.105  0.00  0.00     0.102 C 
ATOM     25  O   UNL d   1     -46.885  14.504  22.945  0.00  0.00    -0.265 OA
ENDBRANCH  20  21
ENDBRANCH   2  20
TORSDOF 5
ENDMDL
MODEL 6
REMARK VINA RESULT:      -3.3      7.224     10.075
REMARK  5 active torsions:
REMARK  status: ('A' for Active; 'I' for Inactive)
REMARK    1  A    between atoms: S_2  and  C_1 
REMARK    2  A    between atoms: C_9  and  S_2 
REMARK    3  A    between atoms: C_8  and  N_3 
REMARK    4  A    between atoms: C_7  and  C_8 
REMARK       I    between atoms: N_12  and  C_7 
REMARK    5  A    between atoms: C_14  and  C_9 
ROOT
ATOM      1  C   UNL d   1     -38.815  14.152  20.136  0.00  0.00     0.107 A 
ATOM      2  N   UNL d   1     -39.761  14.504  21.005  0.00  0.00    -0.299 N 
ATOM      3  C   UNL d   1     -39.523  14.576  20.219  0.00  0.00     0.092 A 
ATOM      4  C   UNL d   1     -38.623  13.824  20.868  0.00  0.00     0.028 A 
ATOM      5  C   UNL d   1     -39.212  14.043  21.407  0.00  0.00     0.065 A 
ATOM      6  C   UNL d   1     -37.992  13.356  21.113  0.00  0.00     0.002 A 
ATOM      7  C   UNL d   1     -39.161  13.789  22.190  0.00  0.00     0.018 A 
ATOM      8  C   UNL d   1     -37.940  13.100  21.900  0.00  0.00     0.000 A 
ATOM      9  C   UNL d   1     -38.530  13.322  22.435  0.00  0.00     0.002 A 
ENDROOT
BRANCH   1  10
ATOM     10  S   UNL d   1     -38.376  14.073  19.436  0.00  0.00     0.212 S 
ATOM     11  O   UNL d   1     -38.061  14.810  19.630  0.00  0.00    -0.217 OA
ATOM     12  O   UNL d   1     -38.695  13.333  19.244  0.00  0.00    -0.217 OA
BRANCH  10  13
ATOM     13  C   UNL d   1     -37.942  13.993  18.741  0.00  0.00     0.099 C 
BRANCH  13  14
ATOM     14  C   UNL d   1     -38.252  14.266  18.030  0.00  0.00     0.011 A 
ATOM     15  C   UNL d   1     -38.867  13.853  17.668  0.00  0.00     0.001 A 
ATOM     16  C   UNL d   1     -39.179  14.133  16.947  0.00  0.00     0.000 A 
ATOM     17  C   UNL d   1     -38.872  14.820  16.600  0.00  0.00     0.000 A 
ATOM     18  C   UNL d   1     -38.256  15.222  16.975  0.00  0.00     0.000 A 
ATOM     19  C   UNL d   1     -37.951  14.946  17.684  0.00  0.00     0.001 A 
ENDBRANCH  13  14
ENDBRANCH  10  13
ENDBRANCH   1  10
BRANCH   2  20
ATOM     20  C   UNL d   1     -40.439  14.839  21.333  0.00  0.00     0.142 C 
BRANCH  20  21
ATOM     21  C   UNL d   1     -40.884  15.378  20.898  0.00  0.00     0.283 C 
ATOM     22  N   UNL d   1     -41.707  15.380  20.960  0.00  0.00    -0.268 N 
ATOM     23  C   UNL d   1     -42.161  15.922  20.523  0.00  0.00     0.102 C 
ATOM     24  C   UNL d   1     -42.085  14.843  21.457  0.00  0.00     0.102 C 
ATOM     25  O   UNL d   1     -40.507  15.915  20.401  0.00  0.00    -0.265 OA
ENDBRANCH  20  21
ENDBRANCH   2  20
TORSDOF 5
ENDMDL
MODEL 7
REMARK VINA RESULT:      -3.3      8.405     10.022
REMARK  5 active torsions:
REMARK  status: ('A' for Active; 'I' for Inactive)
REMARK    1  A    between atoms: S_2  and  C_1 
REMARK    2  A    between atoms: C_9  and  S_2 
REMARK    3  A    between atoms: C_8  and  N_3 
REMARK    4  A    between atoms: C_7  and  C_8 
REMARK       I    between atoms: N_12  and  C_7 
REMARK    5  A    between atoms: C_14  and  C_9 
ROOT
ATOM      1  C   UNL d   1     -39.097  15.131  20.238  0.00  0.00     0.107 A 
ATOM      2  N   UNL d   1     -39.718  15.262  19.067  0.00  0.00    -0.299 N 
ATOM      3  C   UNL d   1     -39.005  15.045  19.418  0.00  0.00     0.092 A 
ATOM      4  C   UNL d   1     -39.863  15.399  20.385  0.00  0.00     0.028 A 
ATOM      5  C   UNL d   1     -40.247  15.480  19.656  0.00  0.00     0.065 A 
ATOM      6  C   UNL d   1     -40.258  15.578  21.083  0.00  0.00     0.002 A 
ATOM      7  C   UNL d   1     -41.029  15.742  19.637  0.00  0.00     0.018 A 
ATOM      8  C   UNL d   1     -41.044  15.842  21.065  0.00  0.00     0.000 A 
ATOM      9  C   UNL d   1     -41.425  15.922  20.336  0.00  0.00     0.002 A 
ENDROOT
BRANCH   1  10
ATOM     10  S   UNL d   1     -38.517  14.973  20.810  0.00  0.00     0.212 S 
ATOM     11  O   UNL d   1     -38.643  14.180  20.622  0.00  0.00    -0.217 OA
ATOM     12  O   UNL d   1     -38.392  15.770  20.996  0.00  0.00    -0.217 OA
BRANCH  10  13
ATOM     13  C   UNL d   1     -37.941  14.819  21.378  0.00  0.00     0.099 C 
BRANCH  13  14
ATOM     14  C   UNL d   1     -38.098  14.290  21.988  0.00  0.00     0.011 A 
ATOM     15  C   UNL d   1     -38.002  13.481  21.862  0.00  0.00     0.001 A 
ATOM     16  C   UNL d   1     -38.162  12.948  22.483  0.00  0.00     0.000 A 
ATOM     17  C   UNL d   1     -38.417  13.233  23.219  0.00  0.00     0.000 A 
ATOM     18  C   UNL d   1     -38.509  14.046  23.329  0.00  0.00     0.000 A 
ATOM     19  C   UNL d   1     -38.351  14.567  22.718  0.00  0.00     0.001 A 
ENDBRANCH  13  14
ENDBRANCH  10  13
ENDBRANCH   1  10
BRANCH   2  20
ATOM     20  C   UNL d   1     -39.874  15.261  18.257  0.00  0.00     0.142 C 
BRANCH  20  21
ATOM     21  C   UNL d   1     -39.536  14.686  17.773  0.00  0.00     0.283 C 
ATOM     22  N   UNL d   1     -39.264  14.887  17.021  0.00  0.00    -0.268 N 
ATOM     23  C   UNL d   1     -38.923  14.311  16.529  0.00  0.00     0.102 C 
ATOM     24  C   UNL d   1     -39.330  15.663  16.752  0.00  0.00     0.102 C 
ATOM     25  O   UNL d   1     -39.471  13.911  18.042  0.00  0.00    -0.265 OA
ENDBRANCH  20  21
ENDBRANCH   2  20
TORSDOF 5
ENDMDL
MODEL 8
REMARK VINA RESULT:      -2.9      8.741      9.882
REMARK  5 active torsions:
REMARK  status: ('A' for Active; 'I' for Inactive)
REMARK    1  A    between atoms: S_2  and  C_1 
REMARK    2  A    between atoms: C_9  and  S_2 
REMARK    3  A    between atoms: C_8  and  N_3 
REMARK    4  A    between atoms: C_7  and  C_8 
REMARK       I    between atoms: N_12  and  C_7 
REMARK    5  A    between atoms: C_14  and  C_9 
ROOT
ATOM      1  C   UNL d   1     -39.888  14.965  18.925  0.00  0.00     0.107 A 
ATOM      2  N   UNL d   1     -39.494  14.339  17.817  0.00  0.00    -0.299 N 
ATOM      3  C   UNL d   1     -39.347  14.413  18.625  0.00  0.00     0.092 A 
ATOM      4  C   UNL d   1     -40.363  15.226  18.302  0.00  0.00     0.028 A 
ATOM      5  C   UNL d   1     -40.116  14.836  17.615  0.00  0.00     0.065 A 
ATOM      6  C   UNL d   1     -40.984  15.765  18.272  0.00  0.00     0.002 A 
ATOM      7  C   UNL d   1     -40.498  14.992  16.901  0.00  0.00     0.018 A 
ATOM      8  C   UNL d   1     -41.368  15.922  17.555  0.00  0.00     0.000 A 
ATOM      9  C   UNL d   1     -41.120  15.531  16.871  0.00  0.00     0.002 A 
ENDROOT
BRANCH   1  10
ATOM     10  S   UNL d   1     -39.942  15.212  19.715  0.00  0.00     0.212 S 
ATOM     11  O   UNL d   1     -40.565  14.674  19.770  0.00  0.00    -0.217 OA
ATOM     12  O   UNL d   1     -39.316  15.750  19.657  0.00  0.00    -0.217 OA
BRANCH  10  13
ATOM     13  C   UNL d   1     -39.994  15.458  20.500  0.00  0.00     0.099 C 
BRANCH  13  14
ATOM     14  C   UNL d   1     -39.614  15.029  21.090  0.00  0.00     0.011 A 
ATOM     15  C   UNL d   1     -39.983  14.367  21.415  0.00  0.00     0.001 A 
ATOM     16  C   UNL d   1     -39.595  13.934  22.013  0.00  0.00     0.000 A 
ATOM     17  C   UNL d   1     -38.844  14.170  22.276  0.00  0.00     0.000 A 
ATOM     18  C   UNL d   1     -38.488  14.835  21.939  0.00  0.00     0.000 A 
ATOM     19  C   UNL d   1     -38.871  15.259  21.352  0.00  0.00     0.001 A 
ENDBRANCH  13  14
ENDBRANCH  10  13
ENDBRANCH   1  10
BRANCH   2  20
ATOM     20  C   UNL d   1     -39.083  13.847  17.298  0.00  0.00     0.142 C 
BRANCH  20  21
ATOM     21  C   UNL d   1     -38.802  13.118  17.557  0.00  0.00     0.283 C 
ATOM     22  N   UNL d   1     -38.230  12.716  17.119  0.00  0.00    -0.268 N 
ATOM     23  C   UNL d   1     -37.943  11.980  17.376  0.00  0.00     0.102 C 
ATOM     24  C   UNL d   1     -37.939  13.044  16.421  0.00  0.00     0.102 C 
ATOM     25  O   UNL d   1     -39.093  12.790  18.254  0.00  0.00    -0.265 OA
ENDBRANCH  20  21
ENDBRANCH   2  20
TORSDOF 5
ENDMDL
