MODEL 1
REMARK VINA RESULT:      33.5      0.000      0.000
REMARK  4 active torsions:
REMARK  status: ('A' for Active; 'I' for Inactive)
REMARK    1  A    between atoms: S_2  and  N_1 
REMARK    2  A    between atoms: C_7  and  S_2 
REMARK    3  A    between atoms: S_8  and  C_5 
REMARK    4  A    between atoms: C_16  and  S_8 
ROOT
ATOM      1  N   UNL d   1     -56.633 -99.229 -44.344  0.00  0.00    -0.151 N 
ATOM      2  C   UNL d   1     -56.169 -99.845 -44.059  0.00  0.00     0.102 A 
ATOM      3  N   UNL d   1     -56.150 -98.755 -44.812  0.00  0.00    -0.155 NA
ATOM      4  C   UNL d   1     -55.405 -99.757 -44.345  0.00  0.00     0.067 A 
ATOM      5  C   UNL d   1     -55.396 -99.076 -44.814  0.00  0.00     0.110 A 
ATOM      6  C   UNL d   1     -56.424-100.468 -43.556  0.00  0.00     0.022 C 
ATOM      7  C   UNL d   1     -54.741 -98.775 -45.215  0.00  0.00     0.023 C 
ENDROOT
BRANCH   1   8
ATOM      8  S   UNL d   1     -57.429 -99.101 -44.197  0.00  0.00     0.292 S 
ATOM      9  O   UNL d   1     -57.511 -98.771 -44.950  0.00  0.00    -0.198 OA
ATOM     10  O   UNL d   1     -57.350 -99.427 -43.453  0.00  0.00    -0.198 OA
BRANCH   8  11
ATOM     11  C   UNL d   1     -58.234 -98.969 -44.056  0.00  0.00     0.135 A 
ATOM     12  S   UNL d   1     -58.821 -98.905 -44.621  0.00  0.00    -0.073 SA
ATOM     13  C   UNL d   1     -59.537 -98.774 -44.234  0.00  0.00     0.036 A 
ATOM     14  C   UNL d   1     -59.391 -98.756 -43.422  0.00  0.00     0.008 A 
ATOM     15  C   UNL d   1     -58.580 -98.877 -43.309  0.00  0.00     0.020 A 
ENDBRANCH   8  11
ENDBRANCH   1   8
BRANCH   4  16
ATOM     16  S   UNL d   1     -54.713-100.201 -44.245  0.00  0.00    -0.084 SA
BRANCH  16  17
ATOM     17  C   UNL d   1     -54.741-101.023 -44.317  0.00  0.00     0.029 A 
ATOM     18  C   UNL d   1     -54.711-101.379 -45.062  0.00  0.00     0.006 A 
ATOM     19  C   UNL d   1     -54.740-102.198 -45.116  0.00  0.00     0.001 A 
ATOM     20  C   UNL d   1     -54.798-102.667 -44.444  0.00  0.00     0.000 A 
ATOM     21  C   UNL d   1     -54.828-102.310 -43.703  0.00  0.00     0.001 A 
ATOM     22  C   UNL d   1     -54.799-101.492 -43.639  0.00  0.00     0.006 A 
ENDBRANCH  16  17
ENDBRANCH   4  16
TORSDOF 4
ENDMDL
