MODEL 1
REMARK VINA RESULT:      -1.5      0.000      0.000
REMARK  6 active torsions:
REMARK  status: ('A' for Active; 'I' for Inactive)
REMARK    1  A    between atoms: C_2  and  N_1 
REMARK    2  A    between atoms: C_4  and  C_2 
REMARK    3  A    between atoms: C_6  and  C_2 
REMARK    4  A    between atoms: C_8  and  N_3 
REMARK       I    between atoms: C_5  and  N_7 
REMARK    5  A    between atoms: O_20  and  C_5 
REMARK    6  A    between atoms: N_7  and  C_6 
ROOT
ATOM      1  N   UNL d   1      31.002  16.816 -24.151  0.00  0.00    -0.298 N 
ATOM      2  N   UNL d   1      29.421  16.423 -23.880  0.00  0.00    -0.301 N 
ATOM      3  C   UNL d   1      30.428  17.051 -24.684  0.00  0.00     0.100 A 
ATOM      4  C   UNL d   1      30.793  16.384 -23.480  0.00  0.00     0.100 A 
ATOM      5  C   UNL d   1      30.013  16.189 -23.346  0.00  0.00     0.100 A 
ATOM      6  C   UNL d   1      29.630  16.855 -24.552  0.00  0.00     0.100 A 
ENDROOT
BRANCH   1   7
ATOM      7  C   UNL d   1      31.801  17.012 -24.283  0.00  0.00     0.107 C 
BRANCH   7   8
ATOM      8  C   UNL d   1      32.356  16.395 -24.405  0.00  0.00     0.118 A 
ATOM      9  O   UNL d   1      32.730  16.033 -23.764  0.00  0.00    -0.304 OA
ATOM     10  C   UNL d   1      33.241  15.453 -24.068  0.00  0.00     0.123 A 
ATOM     11  C   UNL d   1      33.180  15.459 -24.881  0.00  0.00     0.029 A 
ATOM     12  C   UNL d   1      32.633  16.042 -25.097  0.00  0.00     0.028 A 
ENDBRANCH   7   8
BRANCH   7  13
ATOM     13  C   UNL d   1      32.054  17.795 -24.296  0.00  0.00     0.124 C 
BRANCH  13  14
ATOM     14  N   UNL d   1      32.123  18.219 -23.575  0.00  0.00    -0.183 NA
ATOM     15  C   UNL d   1      32.582  18.890 -23.535  0.00  0.00     0.388 C 
ATOM     16  O   UNL d   1      32.983  19.156 -24.208  0.00  0.00    -0.236 OA
BRANCH  15  17
ATOM     17  O   UNL d   1      32.644  19.300 -22.823  0.00  0.00    -0.281 OA
ATOM     18  C   UNL d   1      33.201  19.905 -22.743  0.00  0.00     0.186 C 
ENDBRANCH  15  17
ENDBRANCH  13  14
ENDBRANCH   7  13
ENDBRANCH   1   7
BRANCH   2  19
ATOM     19  C   UNL d   1      28.649  16.228 -23.744  0.00  0.00     0.064 A 
ATOM     20  C   UNL d   1      28.281  15.658 -24.210  0.00  0.00     0.020 A 
ATOM     21  C   UNL d   1      27.494  15.454 -24.078  0.00  0.00     0.031 A 
ATOM     22  C   UNL d   1      27.072  15.823 -23.473  0.00  0.00     0.140 A 
ATOM     23  C   UNL d   1      27.438  16.395 -23.003  0.00  0.00     0.031 A 
ATOM     24  F   UNL d   1      26.271  15.620 -23.332  0.00  0.00    -0.204 F 
ATOM     25  C   UNL d   1      28.227  16.597 -23.139  0.00  0.00     0.020 A 
ENDBRANCH   2  19
TORSDOF 6
ENDMDL
MODEL 2
REMARK VINA RESULT:       0.4      3.705      5.794
REMARK  6 active torsions:
REMARK  status: ('A' for Active; 'I' for Inactive)
REMARK    1  A    between atoms: C_2  and  N_1 
REMARK    2  A    between atoms: C_4  and  C_2 
REMARK    3  A    between atoms: C_6  and  C_2 
REMARK    4  A    between atoms: C_8  and  N_3 
REMARK       I    between atoms: C_5  and  N_7 
REMARK    5  A    between atoms: O_20  and  C_5 
REMARK    6  A    between atoms: N_7  and  C_6 
ROOT
ATOM      1  N   UNL d   1      32.790  21.096 -22.103  0.00  0.00    -0.298 N 
ATOM      2  N   UNL d   1      32.637  19.665 -22.913  0.00  0.00    -0.301 N 
ATOM      3  C   UNL d   1      33.238  20.959 -22.772  0.00  0.00     0.100 A 
ATOM      4  C   UNL d   1      32.262  20.523 -21.831  0.00  0.00     0.100 A 
ATOM      5  C   UNL d   1      32.187  19.816 -22.231  0.00  0.00     0.100 A 
ATOM      6  C   UNL d   1      33.165  20.239 -23.184  0.00  0.00     0.100 A 
ENDROOT
BRANCH   1   7
ATOM      7  C   UNL d   1      32.863  21.816 -21.691  0.00  0.00     0.107 C 
BRANCH   7   8
ATOM      8  C   UNL d   1      32.647  22.529 -22.076  0.00  0.00     0.118 A 
ATOM      9  O   UNL d   1      31.872  22.811 -22.036  0.00  0.00    -0.304 OA
ATOM     10  C   UNL d   1      31.840  23.519 -22.469  0.00  0.00     0.123 A 
ATOM     11  C   UNL d   1      32.583  23.668 -22.770  0.00  0.00     0.029 A 
ATOM     12  C   UNL d   1      33.089  23.058 -22.529  0.00  0.00     0.028 A 
ENDBRANCH   7   8
BRANCH   7  13
ATOM     13  C   UNL d   1      33.142  21.841 -20.917  0.00  0.00     0.124 C 
BRANCH  13  14
ATOM     14  N   UNL d   1      32.840  22.417 -20.387  0.00  0.00    -0.183 NA
ATOM     15  C   UNL d   1      32.890  22.303 -19.583  0.00  0.00     0.388 C 
ATOM     16  O   UNL d   1      33.241  21.614 -19.285  0.00  0.00    -0.236 OA
BRANCH  15  17
ATOM     17  O   UNL d   1      32.591  22.873 -19.069  0.00  0.00    -0.281 OA
ATOM     18  C   UNL d   1      33.003  23.065 -18.380  0.00  0.00     0.186 C 
ENDBRANCH  15  17
ENDBRANCH  13  14
ENDBRANCH   7  13
ENDBRANCH   1   7
BRANCH   2  19
ATOM     19  C   UNL d   1      32.559  18.964 -23.305  0.00  0.00     0.064 A 
ATOM     20  C   UNL d   1      32.717  18.256 -22.917  0.00  0.00     0.020 A 
ATOM     21  C   UNL d   1      32.639  17.536 -23.309  0.00  0.00     0.031 A 
ATOM     22  C   UNL d   1      32.403  17.525 -24.100  0.00  0.00     0.140 A 
ATOM     23  C   UNL d   1      32.244  18.233 -24.493  0.00  0.00     0.031 A 
ATOM     24  F   UNL d   1      32.322  16.797 -24.506  0.00  0.00    -0.204 F 
ATOM     25  C   UNL d   1      32.322  18.953 -24.095  0.00  0.00     0.020 A 
ENDBRANCH   2  19
TORSDOF 6
ENDMDL
