MODEL 1
REMARK VINA RESULT:      -5.9      0.000      0.000
REMARK  4 active torsions:
REMARK  status: ('A' for Active; 'I' for Inactive)
REMARK    1  A    between atoms: N_2  and  S_1 
REMARK    2  A    between atoms: C_3  and  S_1 
REMARK    3  A    between atoms: C_11  and  N_2 
REMARK    4  A    between atoms: C_6  and  C_7 
ROOT
ATOM      1  S   UNL d   1     -41.396-122.323 -52.705  0.00  0.00     0.285 S 
ATOM      2  O   UNL d   1     -41.366-121.501 -52.683  0.00  0.00    -0.198 OA
ATOM      3  O   UNL d   1     -41.430-123.159 -52.742  0.00  0.00    -0.198 OA
ENDROOT
BRANCH   1   4
ATOM      4  N   UNL d   1     -41.123-122.363 -51.936  0.00  0.00    -0.158 NA
BRANCH   4   5
ATOM      5  C   UNL d   1     -41.621-122.607 -51.330  0.00  0.00     0.094 A 
ATOM      6  C   UNL d   1     -41.528-123.379 -51.045  0.00  0.00     0.020 A 
ATOM      7  C   UNL d   1     -42.031-123.640 -50.427  0.00  0.00     0.005 A 
ATOM      8  C   UNL d   1     -42.601-123.130 -50.119  0.00  0.00     0.039 A 
ATOM      9  C   UNL d   1     -42.692-122.364 -50.404  0.00  0.00     0.005 A 
ATOM     10  C   UNL d   1     -42.199-122.105 -51.011  0.00  0.00     0.020 A 
BRANCH   8  11
ATOM     11  C   UNL d   1     -43.103-123.400 -49.498  0.00  0.00     0.196 C 
ATOM     12  O   UNL d   1     -43.794-123.804 -49.695  0.00  0.00    -0.287 OA
ATOM     13  C   UNL d   1     -42.885-123.251 -48.717  0.00  0.00     0.045 C 
ENDBRANCH   8  11
ENDBRANCH   4   5
ENDBRANCH   1   4
BRANCH   1  14
ATOM     14  C   UNL d   1     -41.685-122.286 -53.521  0.00  0.00     0.105 A 
ATOM     15  C   UNL d   1     -42.193-121.685 -53.729  0.00  0.00     0.015 A 
ATOM     16  C   UNL d   1     -42.482-121.631 -54.502  0.00  0.00     0.022 A 
ATOM     17  C   UNL d   1     -42.253-122.187 -55.055  0.00  0.00     0.103 A 
ATOM     18  C   UNL d   1     -41.727-122.810 -54.842  0.00  0.00     0.022 A 
ATOM     19  N   UNL d   1     -42.550-122.131 -55.850  0.00  0.00    -0.148 N 
ATOM     20  C   UNL d   1     -41.455-122.836 -54.056  0.00  0.00     0.015 A 
ENDBRANCH   1  14
TORSDOF 4
ENDMDL
