MODEL 1
REMARK VINA RESULT:      20.6      0.000      0.000
REMARK  4 active torsions:
REMARK  status: ('A' for Active; 'I' for Inactive)
REMARK    1  A    between atoms: N_2  and  S_1 
REMARK    2  A    between atoms: N_3  and  S_1 
REMARK    3  A    between atoms: C_8  and  N_3 
REMARK    4  A    between atoms: C_7  and  C_6 
ROOT
ATOM      1  N   UNL d   1     -56.217-102.582 -37.447  0.00  0.00    -0.144 NA
ENDROOT
BRANCH   1   2
ATOM      2  S   UNL d   1     -55.931-102.683 -38.213  0.00  0.00     0.351 S 
ATOM      3  O   UNL d   1     -55.166-102.877 -37.977  0.00  0.00    -0.180 OA
ATOM      4  O   UNL d   1     -56.695-102.490 -38.448  0.00  0.00    -0.180 OA
BRANCH   2   5
ATOM      5  N   UNL d   1     -55.710-102.768 -39.002  0.00  0.00    -0.215 N 
ATOM      6  C   UNL d   1     -54.926-102.612 -39.227  0.00  0.00     0.093 C 
ATOM      7  C   UNL d   1     -54.711-102.697 -40.009  0.00  0.00     0.020 C 
ATOM      8  C   UNL d   1     -55.273-102.825 -40.588  0.00  0.00     0.003 C 
ATOM      9  C   UNL d   1     -56.069-102.870 -40.378  0.00  0.00     0.020 C 
ATOM     10  C   UNL d   1     -56.301-102.786 -39.588  0.00  0.00     0.093 C 
ENDBRANCH   2   5
ENDBRANCH   1   2
BRANCH   1  11
ATOM     11  C   UNL d   1     -55.705-102.312 -36.836  0.00  0.00     0.095 A 
ATOM     12  C   UNL d   1     -55.580-101.496 -36.730  0.00  0.00     0.023 A 
ATOM     13  C   UNL d   1     -55.086-101.230 -36.120  0.00  0.00     0.041 A 
ATOM     14  C   UNL d   1     -54.712-101.782 -35.621  0.00  0.00     0.003 A 
ATOM     15  C   UNL d   1     -54.831-102.604 -35.715  0.00  0.00     0.002 A 
ATOM     16  C   UNL d   1     -55.337-102.867 -36.331  0.00  0.00     0.020 A 
BRANCH  13  17
ATOM     17  C   UNL d   1     -54.845-100.439 -36.100  0.00  0.00     0.196 C 
ATOM     18  O   UNL d   1     -54.718-100.033 -36.804  0.00  0.00    -0.287 OA
ATOM     19  C   UNL d   1     -54.732-100.062 -35.374  0.00  0.00     0.045 C 
ENDBRANCH  13  17
ENDBRANCH   1  11
TORSDOF 4
ENDMDL
