MODEL 1
REMARK VINA RESULT:      13.0      0.000      0.000
REMARK  4 active torsions:
REMARK  status: ('A' for Active; 'I' for Inactive)
REMARK    1  A    between atoms: P_2  and  C_1 
REMARK    2  A    between atoms: N_3  and  C_1 
REMARK    3  A    between atoms: C_5  and  C_1 
REMARK       I    between atoms: C_4  and  N_3 
REMARK    4  A    between atoms: C_6  and  C_4 
ROOT
ATOM      1  C   UNL d   1     -55.411-102.354 -38.351  0.00  0.00     0.196 C 
ENDROOT
BRANCH   1   2
ATOM      2  P   UNL d   1     -55.056-102.073 -39.061  0.00  0.00     0.317 P 
ATOM      3  O   UNL d   1     -54.786-101.394 -38.674  0.00  0.00    -0.635 OA
ATOM      4  O   UNL d   1     -54.711-101.815 -39.785  0.00  0.00    -0.635 OA
ATOM      5  O   UNL d   1     -55.337-102.774 -39.458  0.00  0.00    -0.635 OA
ENDBRANCH   1   2
BRANCH   1   6
ATOM      6  N   UNL d   1     -55.037-102.282 -37.605  0.00  0.00    -0.201 NA
ATOM      7  C   UNL d   1     -55.484-102.214 -36.928  0.00  0.00     0.255 C 
ATOM      8  O   UNL d   1     -56.302-102.218 -36.987  0.00  0.00    -0.270 OA
BRANCH   7   9
ATOM      9  C   UNL d   1     -55.117-102.144 -36.207  0.00  0.00     0.073 C 
ATOM     10  C   UNL d   1     -55.121-102.782 -35.683  0.00  0.00     0.009 C 
ATOM     11  C   UNL d   1     -54.739-101.434 -36.001  0.00  0.00     0.009 C 
ATOM     12  C   UNL d   1     -54.717-102.099 -35.397  0.00  0.00     0.009 C 
ENDBRANCH   7   9
ENDBRANCH   1   6
BRANCH   1  13
ATOM     13  C   UNL d   1     -56.149-102.713 -38.389  0.00  0.00     0.142 C 
ATOM     14 CL   UNL d   1     -56.468-102.880 -37.700  0.00  0.00    -0.068 Cl
ATOM     15 CL   UNL d   1     -56.509-102.876 -39.166  0.00  0.00    -0.068 Cl
ENDBRANCH   1  13
TORSDOF 4
ENDMDL
