MODEL 1
REMARK VINA RESULT:       4.8      0.000      0.000
REMARK  5 active torsions:
REMARK  status: ('A' for Active; 'I' for Inactive)
REMARK    1  A    between atoms: C_8  and  C_1 
REMARK    2  A    between atoms: C_7  and  C_4 
REMARK    3  A    between atoms: O_10  and  C_8 
REMARK    4  A    between atoms: C_16  and  O_10 
REMARK    5  A    between atoms: C_19  and  C_16 
ROOT
ATOM      1  C   UNL d   1     -41.465-121.892 -51.849  0.00  0.00     0.098 A 
ATOM      2  C   UNL d   1     -41.327-121.213 -52.325  0.00  0.00     0.075 A 
ATOM      3  C   UNL d   1     -41.343-120.390 -51.157  0.00  0.00     0.354 A 
ATOM      4  C   UNL d   1     -41.539-121.809 -51.038  0.00  0.00     0.093 A 
ATOM      5  N   UNL d   1     -41.268-120.471 -51.977  0.00  0.00    -0.256 N 
ATOM      6  N   UNL d   1     -41.479-121.060 -50.687  0.00  0.00    -0.192 NA
ATOM      7  O   UNL d   1     -41.284-119.646 -50.806  0.00  0.00    -0.244 OA
ATOM      8  C   UNL d   1     -41.251-121.288 -53.136  0.00  0.00     0.019 C 
ATOM      9  C   UNL d   1     -41.132-119.805 -52.445  0.00  0.00     0.104 C 
ENDROOT
BRANCH   1  10
ATOM     10  C   UNL d   1     -41.526-122.644 -52.184  0.00  0.00     0.303 C 
ATOM     11  O   UNL d   1     -41.132-123.278 -51.843  0.00  0.00    -0.259 OA
BRANCH  10  12
ATOM     12  O   UNL d   1     -41.982-122.750 -52.856  0.00  0.00    -0.271 OA
BRANCH  12  13
ATOM     13  C   UNL d   1     -41.794-123.359 -53.379  0.00  0.00     0.126 C 
BRANCH  13  14
ATOM     14  C   UNL d   1     -41.980-123.289 -54.180  0.00  0.00     0.025 C 
ATOM     15  C   UNL d   1     -41.532-123.672 -54.737  0.00  0.00     0.002 C 
ATOM     16  C   UNL d   1     -42.616-122.835 -54.427  0.00  0.00     0.002 C 
ENDBRANCH  13  14
ENDBRANCH  12  13
ENDBRANCH  10  12
ENDBRANCH   1  10
BRANCH   4  17
ATOM     17  C   UNL d   1     -41.674-122.472 -50.573  0.00  0.00     0.029 A 
ATOM     18  C   UNL d   1     -42.361-122.524 -50.109  0.00  0.00     0.059 A 
ATOM     19 CL   UNL d   1     -42.909-121.904 -50.120  0.00  0.00    -0.082 Cl
ATOM     20  C   UNL d   1     -42.498-123.201 -49.634  0.00  0.00     0.011 A 
ATOM     21  C   UNL d   1     -41.947-123.816 -49.629  0.00  0.00     0.001 A 
ATOM     22  C   UNL d   1     -41.267-123.768 -50.085  0.00  0.00     0.000 A 
ATOM     23  C   UNL d   1     -41.124-123.063 -50.580  0.00  0.00     0.002 A 
ENDBRANCH   4  17
TORSDOF 5
ENDMDL
MODEL 2
REMARK VINA RESULT:       6.2      2.083      3.413
REMARK  5 active torsions:
REMARK  status: ('A' for Active; 'I' for Inactive)
REMARK    1  A    between atoms: C_8  and  C_1 
REMARK    2  A    between atoms: C_7  and  C_4 
REMARK    3  A    between atoms: O_10  and  C_8 
REMARK    4  A    between atoms: C_16  and  O_10 
REMARK    5  A    between atoms: C_19  and  C_16 
ROOT
ATOM      1  C   UNL d   1     -42.439-123.131 -49.500  0.00  0.00     0.098 A 
ATOM      2  C   UNL d   1     -41.808-123.392 -49.011  0.00  0.00     0.075 A 
ATOM      3  C   UNL d   1     -42.567-123.051 -47.850  0.00  0.00     0.354 A 
ATOM      4  C   UNL d   1     -43.122-122.836 -49.158  0.00  0.00     0.093 A 
ATOM      5  N   UNL d   1     -41.876-123.350 -48.193  0.00  0.00    -0.256 N 
ATOM      6  N   UNL d   1     -43.190-122.794 -48.332  0.00  0.00    -0.192 NA
ATOM      7  O   UNL d   1     -42.637-123.008 -47.029  0.00  0.00    -0.244 OA
ATOM      8  C   UNL d   1     -41.123-123.688 -49.346  0.00  0.00     0.019 C 
ATOM      9  C   UNL d   1     -41.256-123.605 -47.713  0.00  0.00     0.104 C 
ENDROOT
BRANCH   1  10
ATOM     10  C   UNL d   1     -42.385-123.167 -50.324  0.00  0.00     0.303 C 
ATOM     11  O   UNL d   1     -42.695-123.812 -50.726  0.00  0.00    -0.259 OA
BRANCH  10  12
ATOM     12  O   UNL d   1     -42.021-122.558 -50.732  0.00  0.00    -0.271 OA
BRANCH  12  13
ATOM     13  C   UNL d   1     -41.412-122.733 -51.258  0.00  0.00     0.126 C 
BRANCH  13  14
ATOM     14  C   UNL d   1     -41.348-122.319 -51.970  0.00  0.00     0.025 C 
ATOM     15  C   UNL d   1     -41.508-122.692 -52.672  0.00  0.00     0.002 C 
ATOM     16  C   UNL d   1     -41.125-121.532 -51.982  0.00  0.00     0.002 C 
ENDBRANCH  13  14
ENDBRANCH  12  13
ENDBRANCH  10  12
ENDBRANCH   1  10
BRANCH   4  17
ATOM     17  C   UNL d   1     -43.739-122.582 -49.636  0.00  0.00     0.029 A 
ATOM     18  C   UNL d   1     -44.413-123.057 -49.735  0.00  0.00     0.059 A 
ATOM     19 CL   UNL d   1     -44.458-123.787 -49.349  0.00  0.00    -0.082 Cl
ATOM     20  C   UNL d   1     -45.043-122.797 -50.224  0.00  0.00     0.011 A 
ATOM     21  C   UNL d   1     -44.990-122.066 -50.605  0.00  0.00     0.001 A 
ATOM     22  C   UNL d   1     -44.326-121.594 -50.510  0.00  0.00     0.000 A 
ATOM     23  C   UNL d   1     -43.670-121.865 -50.002  0.00  0.00     0.002 A 
ENDBRANCH   4  17
TORSDOF 5
ENDMDL
MODEL 3
REMARK VINA RESULT:       6.7      2.219      3.862
REMARK  5 active torsions:
REMARK  status: ('A' for Active; 'I' for Inactive)
REMARK    1  A    between atoms: C_8  and  C_1 
REMARK    2  A    between atoms: C_7  and  C_4 
REMARK    3  A    between atoms: O_10  and  C_8 
REMARK    4  A    between atoms: C_16  and  O_10 
REMARK    5  A    between atoms: C_19  and  C_16 
ROOT
ATOM      1  C   UNL d   1     -42.763-123.375 -49.290  0.00  0.00     0.098 A 
ATOM      2  C   UNL d   1     -43.028-123.526 -48.508  0.00  0.00     0.075 A 
ATOM      3  C   UNL d   1     -41.672-123.644 -48.072  0.00  0.00     0.354 A 
ATOM      4  C   UNL d   1     -41.961-123.360 -49.451  0.00  0.00     0.093 A 
ATOM      5  N   UNL d   1     -42.483-123.659 -47.907  0.00  0.00    -0.256 N 
ATOM      6  N   UNL d   1     -41.411-123.494 -48.844  0.00  0.00    -0.192 NA
ATOM      7  O   UNL d   1     -41.123-123.777 -47.470  0.00  0.00    -0.244 OA
ATOM      8  C   UNL d   1     -43.828-123.543 -48.339  0.00  0.00     0.019 C 
ATOM      9  C   UNL d   1     -42.743-123.809 -47.138  0.00  0.00     0.104 C 
ENDROOT
BRANCH   1  10
ATOM     10  C   UNL d   1     -43.299-123.239 -49.904  0.00  0.00     0.303 C 
ATOM     11  O   UNL d   1     -43.423-123.817 -50.473  0.00  0.00    -0.259 OA
BRANCH  10  12
ATOM     12  O   UNL d   1     -43.703-122.528 -49.938  0.00  0.00    -0.271 OA
BRANCH  12  13
ATOM     13  C   UNL d   1     -44.299-122.429 -50.498  0.00  0.00     0.126 C 
BRANCH  13  14
ATOM     14  C   UNL d   1     -44.621-121.681 -50.632  0.00  0.00     0.025 C 
ATOM     15  C   UNL d   1     -44.493-121.304 -51.339  0.00  0.00     0.002 C 
ATOM     16  C   UNL d   1     -45.072-121.307 -50.061  0.00  0.00     0.002 C 
ENDBRANCH  13  14
ENDBRANCH  12  13
ENDBRANCH  10  12
ENDBRANCH   1  10
BRANCH   4  17
ATOM     17  C   UNL d   1     -41.702-123.212 -50.216  0.00  0.00     0.029 A 
ATOM     18  C   UNL d   1     -41.387-122.469 -50.413  0.00  0.00     0.059 A 
ATOM     19 CL   UNL d   1     -41.336-121.880 -49.834  0.00  0.00    -0.082 Cl
ATOM     20  C   UNL d   1     -41.123-122.317 -51.194  0.00  0.00     0.011 A 
ATOM     21  C   UNL d   1     -41.177-122.911 -51.767  0.00  0.00     0.001 A 
ATOM     22  C   UNL d   1     -41.488-123.645 -51.576  0.00  0.00     0.000 A 
ATOM     23  C   UNL d   1     -41.763-123.803 -50.762  0.00  0.00     0.002 A 
ENDBRANCH   4  17
TORSDOF 5
ENDMDL
