MODEL 1
REMARK VINA RESULT:      -2.9      0.000      0.000
REMARK  5 active torsions:
REMARK  status: ('A' for Active; 'I' for Inactive)
REMARK    1  A    between atoms: C_3  and  S_1 
REMARK    2  A    between atoms: N_10  and  S_1 
REMARK    3  A    between atoms: C_19  and  N_10 
REMARK    4  A    between atoms: C_21  and  C_19 
REMARK    5  A    between atoms: C_22  and  C_21 
ROOT
ATOM      1  N   UNL d   1      31.982  16.322 -24.158  0.00  0.00    -0.273 N 
ATOM      2  C   UNL d   1      32.663  18.519 -23.253  0.00  0.00     0.104 A 
ATOM      3  C   UNL d   1      32.209  17.056 -23.856  0.00  0.00     0.067 A 
ATOM      4  C   UNL d   1      31.884  17.744 -24.167  0.00  0.00     0.017 A 
ATOM      5  C   UNL d   1      32.761  17.098 -23.244  0.00  0.00     0.017 A 
ATOM      6  C   UNL d   1      31.430  16.280 -24.770  0.00  0.00     0.265 A 
ATOM      7  C   UNL d   1      32.111  18.478 -23.865  0.00  0.00     0.014 A 
ATOM      8  C   UNL d   1      32.988  17.827 -22.943  0.00  0.00     0.014 A 
ATOM      9  C   UNL d   1      31.332  17.702 -24.779  0.00  0.00     0.006 A 
ATOM     10  C   UNL d   1      31.106  16.973 -25.080  0.00  0.00     0.061 A 
ATOM     11  O   UNL d   1      31.198  15.541 -25.078  0.00  0.00    -0.267 OA
ATOM     12  C   UNL d   1      32.307  15.630 -23.848  0.00  0.00     0.083 A 
ATOM     13  C   UNL d   1      33.085  16.414 -22.935  0.00  0.00     0.003 A 
ATOM     14  C   UNL d   1      32.859  15.680 -23.236  0.00  0.00     0.019 A 
ENDROOT
BRANCH   2  15
ATOM     15  S   UNL d   1      32.889  19.258 -22.952  0.00  0.00     0.271 S 
ATOM     16  O   UNL d   1      32.743  19.602 -23.696  0.00  0.00    -0.200 OA
ATOM     17  O   UNL d   1      33.037  18.922 -22.208  0.00  0.00    -0.200 OA
BRANCH  15  18
ATOM     18  N   UNL d   1      33.117  20.005 -22.651  0.00  0.00    -0.228 N 
ATOM     19  C   UNL d   1      33.225  20.643 -23.157  0.00  0.00     0.111 C 
BRANCH  18  20
ATOM     20  C   UNL d   1      33.234  20.104 -21.842  0.00  0.00     0.092 C 
BRANCH  20  21
ATOM     21  C   UNL d   1      33.240  20.863 -21.515  0.00  0.00     0.020 C 
BRANCH  21  22
ATOM     22  C   UNL d   1      33.162  20.962 -20.700  0.00  0.00     0.002 C 
ATOM     23  C   UNL d   1      32.908  21.671 -20.394  0.00  0.00     0.000 C 
ENDBRANCH  21  22
ENDBRANCH  20  21
ENDBRANCH  18  20
ENDBRANCH  15  18
ENDBRANCH   2  15
TORSDOF 5
ENDMDL
MODEL 2
REMARK VINA RESULT:      -2.5      0.810      1.751
REMARK  5 active torsions:
REMARK  status: ('A' for Active; 'I' for Inactive)
REMARK    1  A    between atoms: C_3  and  S_1 
REMARK    2  A    between atoms: N_10  and  S_1 
REMARK    3  A    between atoms: C_19  and  N_10 
REMARK    4  A    between atoms: C_21  and  C_19 
REMARK    5  A    between atoms: C_22  and  C_21 
ROOT
ATOM      1  N   UNL d   1      31.956  16.836 -24.481  0.00  0.00    -0.273 N 
ATOM      2  C   UNL d   1      32.630  18.831 -23.186  0.00  0.00     0.104 A 
ATOM      3  C   UNL d   1      32.181  17.502 -24.048  0.00  0.00     0.067 A 
ATOM      4  C   UNL d   1      32.823  17.458 -23.537  0.00  0.00     0.017 A 
ATOM      5  C   UNL d   1      31.763  18.208 -24.130  0.00  0.00     0.017 A 
ATOM      6  C   UNL d   1      32.374  16.129 -24.399  0.00  0.00     0.265 A 
ATOM      7  C   UNL d   1      33.048  18.124 -23.104  0.00  0.00     0.014 A 
ATOM      8  C   UNL d   1      31.986  18.871 -23.700  0.00  0.00     0.014 A 
ATOM      9  C   UNL d   1      33.241  16.752 -23.455  0.00  0.00     0.006 A 
ATOM     10  C   UNL d   1      33.018  16.089 -23.884  0.00  0.00     0.061 A 
ATOM     11  O   UNL d   1      32.150  15.454 -24.835  0.00  0.00    -0.267 OA
ATOM     12  C   UNL d   1      31.312  16.877 -24.996  0.00  0.00     0.083 A 
ATOM     13  C   UNL d   1      31.125  18.252 -24.639  0.00  0.00     0.003 A 
ATOM     14  C   UNL d   1      30.899  17.587 -25.072  0.00  0.00     0.019 A 
ENDROOT
BRANCH   2  15
ATOM     15  S   UNL d   1      32.859  19.498 -22.749  0.00  0.00     0.271 S 
ATOM     16  O   UNL d   1      32.645  19.107 -22.047  0.00  0.00    -0.200 OA
ATOM     17  O   UNL d   1      33.074  19.893 -23.447  0.00  0.00    -0.200 OA
BRANCH  15  18
ATOM     18  N   UNL d   1      33.089  20.169 -22.307  0.00  0.00    -0.228 N 
ATOM     19  C   UNL d   1      33.167  20.124 -21.491  0.00  0.00     0.111 C 
BRANCH  18  20
ATOM     20  C   UNL d   1      33.238  20.883 -22.689  0.00  0.00     0.092 C 
BRANCH  20  21
ATOM     21  C   UNL d   1      33.213  21.592 -22.266  0.00  0.00     0.020 C 
BRANCH  21  22
ATOM     22  C   UNL d   1      33.051  22.300 -22.657  0.00  0.00     0.002 C 
ATOM     23  C   UNL d   1      33.127  23.011 -22.270  0.00  0.00     0.000 C 
ENDBRANCH  21  22
ENDBRANCH  20  21
ENDBRANCH  18  20
ENDBRANCH  15  18
ENDBRANCH   2  15
TORSDOF 5
ENDMDL
MODEL 3
REMARK VINA RESULT:      -2.2      1.980      3.139
REMARK  5 active torsions:
REMARK  status: ('A' for Active; 'I' for Inactive)
REMARK    1  A    between atoms: C_3  and  S_1 
REMARK    2  A    between atoms: N_10  and  S_1 
REMARK    3  A    between atoms: C_19  and  N_10 
REMARK    4  A    between atoms: C_21  and  C_19 
REMARK    5  A    between atoms: C_22  and  C_21 
ROOT
ATOM      1  N   UNL d   1      33.171  18.974 -23.691  0.00  0.00    -0.273 N 
ATOM      2  C   UNL d   1      33.195  21.102 -22.432  0.00  0.00     0.104 A 
ATOM      3  C   UNL d   1      33.179  19.685 -23.270  0.00  0.00     0.067 A 
ATOM      4  C   UNL d   1      33.152  19.673 -22.449  0.00  0.00     0.017 A 
ATOM      5  C   UNL d   1      33.213  20.403 -23.674  0.00  0.00     0.017 A 
ATOM      6  C   UNL d   1      33.136  18.256 -23.287  0.00  0.00     0.265 A 
ATOM      7  C   UNL d   1      33.160  20.383 -22.028  0.00  0.00     0.014 A 
ATOM      8  C   UNL d   1      33.221  21.110 -23.257  0.00  0.00     0.014 A 
ATOM      9  C   UNL d   1      33.118  18.954 -22.045  0.00  0.00     0.006 A 
ATOM     10  C   UNL d   1      33.110  18.247 -22.463  0.00  0.00     0.061 A 
ATOM     11  O   UNL d   1      33.128  17.536 -23.709  0.00  0.00    -0.267 OA
ATOM     12  C   UNL d   1      33.197  18.983 -24.516  0.00  0.00     0.083 A 
ATOM     13  C   UNL d   1      33.240  20.416 -24.491  0.00  0.00     0.003 A 
ATOM     14  C   UNL d   1      33.232  19.707 -24.912  0.00  0.00     0.019 A 
ENDROOT
BRANCH   2  15
ATOM     15  S   UNL d   1      33.203  21.814 -22.006  0.00  0.00     0.271 S 
ATOM     16  O   UNL d   1      33.240  21.383 -21.295  0.00  0.00    -0.200 OA
ATOM     17  O   UNL d   1      33.166  22.248 -22.712  0.00  0.00    -0.200 OA
BRANCH  15  18
ATOM     18  N   UNL d   1      33.211  22.529 -21.574  0.00  0.00    -0.228 N 
ATOM     19  C   UNL d   1      33.205  23.252 -21.964  0.00  0.00     0.111 C 
BRANCH  18  20
ATOM     20  C   UNL d   1      33.225  22.513 -20.751  0.00  0.00     0.092 C 
BRANCH  20  21
ATOM     21  C   UNL d   1      33.016  23.186 -20.321  0.00  0.00     0.020 C 
BRANCH  21  22
ATOM     22  C   UNL d   1      33.118  23.202 -19.502  0.00  0.00     0.002 C 
ATOM     23  C   UNL d   1      32.666  23.695 -19.040  0.00  0.00     0.000 C 
ENDBRANCH  21  22
ENDBRANCH  20  21
ENDBRANCH  18  20
ENDBRANCH  15  18
ENDBRANCH   2  15
TORSDOF 5
ENDMDL
MODEL 4
REMARK VINA RESULT:      -1.7      2.164      3.300
REMARK  5 active torsions:
REMARK  status: ('A' for Active; 'I' for Inactive)
REMARK    1  A    between atoms: C_3  and  S_1 
REMARK    2  A    between atoms: N_10  and  S_1 
REMARK    3  A    between atoms: C_19  and  N_10 
REMARK    4  A    between atoms: C_21  and  C_19 
REMARK    5  A    between atoms: C_22  and  C_21 
ROOT
ATOM      1  N   UNL d   1      28.710  16.420 -23.987  0.00  0.00    -0.273 N 
ATOM      2  C   UNL d   1      31.018  17.306 -24.001  0.00  0.00     0.104 A 
ATOM      3  C   UNL d   1      29.481  16.715 -23.991  0.00  0.00     0.067 A 
ATOM      4  C   UNL d   1      30.045  16.393 -23.488  0.00  0.00     0.017 A 
ATOM      5  C   UNL d   1      29.683  17.333 -24.500  0.00  0.00     0.017 A 
ATOM      6  C   UNL d   1      28.508  15.802 -23.478  0.00  0.00     0.265 A 
ATOM      7  C   UNL d   1      30.816  16.689 -23.492  0.00  0.00     0.014 A 
ATOM      8  C   UNL d   1      30.449  17.628 -24.505  0.00  0.00     0.014 A 
ATOM      9  C   UNL d   1      29.842  15.776 -22.979  0.00  0.00     0.006 A 
ATOM     10  C   UNL d   1      29.076  15.481 -22.974  0.00  0.00     0.061 A 
ATOM     11  O   UNL d   1      27.730  15.501 -23.471  0.00  0.00    -0.267 OA
ATOM     12  C   UNL d   1      28.142  16.742 -24.492  0.00  0.00     0.083 A 
ATOM     13  C   UNL d   1      29.123  17.654 -25.001  0.00  0.00     0.003 A 
ATOM     14  C   UNL d   1      28.353  17.359 -24.997  0.00  0.00     0.019 A 
ENDROOT
BRANCH   2  15
ATOM     15  S   UNL d   1      31.793  17.601 -24.003  0.00  0.00     0.271 S 
ATOM     16  O   UNL d   1      31.576  18.164 -23.430  0.00  0.00    -0.200 OA
ATOM     17  O   UNL d   1      32.016  17.042 -24.574  0.00  0.00    -0.200 OA
BRANCH  15  18
ATOM     18  N   UNL d   1      32.574  17.900 -24.002  0.00  0.00    -0.228 N 
ATOM     19  C   UNL d   1      33.202  17.429 -24.244  0.00  0.00     0.111 C 
BRANCH  18  20
ATOM     20  C   UNL d   1      32.719  18.674 -23.757  0.00  0.00     0.092 C 
BRANCH  20  21
ATOM     21  C   UNL d   1      33.240  19.151 -24.184  0.00  0.00     0.020 C 
BRANCH  21  22
ATOM     22  C   UNL d   1      33.241  19.968 -24.067  0.00  0.00     0.002 C 
ATOM     23  C   UNL d   1      33.039  20.471 -24.673  0.00  0.00     0.000 C 
ENDBRANCH  21  22
ENDBRANCH  20  21
ENDBRANCH  18  20
ENDBRANCH  15  18
ENDBRANCH   2  15
TORSDOF 5
ENDMDL
