MODEL 1
REMARK VINA RESULT:      -8.1      0.000      0.000
REMARK  6 active torsions:
REMARK  status: ('A' for Active; 'I' for Inactive)
REMARK    1  A    between atoms: C_6  and  N_1 
REMARK    2  A    between atoms: C_12  and  C_6 
REMARK    3  A    between atoms: O_18  and  C_7 
REMARK    4  A    between atoms: O_19  and  C_10 
REMARK    5  A    between atoms: C_21  and  O_19 
REMARK    6  A    between atoms: C_23  and  C_21 
ROOT
ATOM      1  C   UNL d   1      52.279  34.484  53.466  0.00  0.00     0.117 A 
ATOM      2  C   UNL d   1      51.558  34.205  53.167  0.00  0.00     0.122 A 
ATOM      3  C   UNL d   1      52.926  33.982  53.493  0.00  0.00     0.028 A 
ATOM      4  C   UNL d   1      52.861  33.212  53.227  0.00  0.00     0.020 A 
ATOM      5  C   UNL d   1      51.496  33.430  52.900  0.00  0.00     0.027 A 
ATOM      6  C   UNL d   1      52.153  32.931  52.931  0.00  0.00     0.004 A 
ENDROOT
BRANCH   4   7
ATOM      7  C   UNL d   1      53.518  32.713  53.258  0.00  0.00     0.085 C 
BRANCH   7   8
ATOM      8  N   UNL d   1      53.563  32.130  53.841  0.00  0.00    -0.251 N 
ATOM      9  C   UNL d   1      53.753  32.212  54.649  0.00  0.00     0.378 A 
ATOM     10  O   UNL d   1      53.723  31.462  54.998  0.00  0.00    -0.258 OA
ATOM     11  O   UNL d   1      53.938  32.920  55.026  0.00  0.00    -0.237 OA
ATOM     12  C   UNL d   1      53.514  30.916  54.410  0.00  0.00     0.121 A 
ATOM     13  C   UNL d   1      53.415  31.328  53.695  0.00  0.00     0.092 A 
ATOM     14  C   UNL d   1      53.399  30.097  54.423  0.00  0.00     0.026 A 
ATOM     15  C   UNL d   1      53.206  30.931  53.008  0.00  0.00     0.020 A 
ATOM     16  C   UNL d   1      53.094  30.113  53.032  0.00  0.00     0.002 A 
ATOM     17  C   UNL d   1      53.190  29.698  53.736  0.00  0.00     0.002 A 
ATOM     18  C   UNL d   1      52.883  29.715  52.336  0.00  0.00     0.000 C 
ENDBRANCH   7   8
ENDBRANCH   4   7
BRANCH   1  19
ATOM     19  O   UNL d   1      52.339  35.255  53.731  0.00  0.00    -0.326 OA
ATOM     20  C   UNL d   1      53.144  35.433  53.684  0.00  0.00     0.181 C 
ENDBRANCH   1  19
BRANCH   2  21
ATOM     21  O   UNL d   1      50.907  34.705  53.139  0.00  0.00    -0.303 OA
BRANCH  21  22
ATOM     22  C   UNL d   1      50.234  34.473  52.737  0.00  0.00     0.123 C 
BRANCH  22  23
ATOM     23  C   UNL d   1      49.538  34.912  52.806  0.00  0.00     0.027 C 
ATOM     24  C   UNL d   1      48.981  34.902  52.201  0.00  0.00     0.002 C 
ENDBRANCH  22  23
ENDBRANCH  21  22
ENDBRANCH   2  21
TORSDOF 6
ENDMDL
MODEL 2
REMARK VINA RESULT:      -7.9      1.547      4.347
REMARK  6 active torsions:
REMARK  status: ('A' for Active; 'I' for Inactive)
REMARK    1  A    between atoms: C_6  and  N_1 
REMARK    2  A    between atoms: C_12  and  C_6 
REMARK    3  A    between atoms: O_18  and  C_7 
REMARK    4  A    between atoms: O_19  and  C_10 
REMARK    5  A    between atoms: C_21  and  O_19 
REMARK    6  A    between atoms: C_23  and  C_21 
ROOT
ATOM      1  C   UNL d   1      53.221  31.168  53.156  0.00  0.00     0.117 A 
ATOM      2  C   UNL d   1      53.436  30.739  53.832  0.00  0.00     0.122 A 
ATOM      3  C   UNL d   1      53.488  31.938  53.065  0.00  0.00     0.028 A 
ATOM      4  C   UNL d   1      53.962  32.280  53.636  0.00  0.00     0.020 A 
ATOM      5  C   UNL d   1      53.913  31.086  54.404  0.00  0.00     0.027 A 
ATOM      6  C   UNL d   1      54.177  31.862  54.304  0.00  0.00     0.004 A 
ENDROOT
BRANCH   4   7
ATOM      7  C   UNL d   1      54.225  33.055  53.536  0.00  0.00     0.085 C 
BRANCH   7   8
ATOM      8  N   UNL d   1      54.042  33.627  54.103  0.00  0.00    -0.251 N 
ATOM      9  C   UNL d   1      54.420  33.784  54.830  0.00  0.00     0.378 A 
ATOM     10  O   UNL d   1      54.025  34.413  55.196  0.00  0.00    -0.258 OA
ATOM     11  O   UNL d   1      55.073  33.378  55.124  0.00  0.00    -0.237 OA
ATOM     12  C   UNL d   1      53.404  34.646  54.698  0.00  0.00     0.121 A 
ATOM     13  C   UNL d   1      53.413  34.161  54.023  0.00  0.00     0.092 A 
ATOM     14  C   UNL d   1      52.826  35.235  54.764  0.00  0.00     0.026 A 
ATOM     15  C   UNL d   1      52.858  34.262  53.427  0.00  0.00     0.020 A 
ATOM     16  C   UNL d   1      52.286  34.853  53.503  0.00  0.00     0.002 A 
ATOM     17  C   UNL d   1      52.270  35.337  54.169  0.00  0.00     0.002 A 
ATOM     18  C   UNL d   1      51.727  34.952  52.898  0.00  0.00     0.000 C 
ENDBRANCH   7   8
ENDBRANCH   4   7
BRANCH   1  19
ATOM     19  O   UNL d   1      52.747  30.822  52.587  0.00  0.00    -0.326 OA
ATOM     20  C   UNL d   1      52.106  31.336  52.504  0.00  0.00     0.181 C 
ENDBRANCH   1  19
BRANCH   2  21
ATOM     21  O   UNL d   1      53.171  29.967  53.927  0.00  0.00    -0.303 OA
BRANCH  21  22
ATOM     22  C   UNL d   1      53.467  29.509  54.535  0.00  0.00     0.123 C 
BRANCH  22  23
ATOM     23  C   UNL d   1      53.291  28.703  54.570  0.00  0.00     0.027 C 
ATOM     24  C   UNL d   1      53.439  28.277  55.258  0.00  0.00     0.002 C 
ENDBRANCH  22  23
ENDBRANCH  21  22
ENDBRANCH   2  21
TORSDOF 6
ENDMDL
MODEL 3
REMARK VINA RESULT:      -7.8      1.578      2.576
REMARK  6 active torsions:
REMARK  status: ('A' for Active; 'I' for Inactive)
REMARK    1  A    between atoms: C_6  and  N_1 
REMARK    2  A    between atoms: C_12  and  C_6 
REMARK    3  A    between atoms: O_18  and  C_7 
REMARK    4  A    between atoms: O_19  and  C_10 
REMARK    5  A    between atoms: C_21  and  O_19 
REMARK    6  A    between atoms: C_23  and  C_21 
ROOT
ATOM      1  C   UNL d   1      50.638  34.240  52.060  0.00  0.00     0.117 A 
ATOM      2  C   UNL d   1      50.283  34.493  52.765  0.00  0.00     0.122 A 
ATOM      3  C   UNL d   1      51.428  34.021  52.063  0.00  0.00     0.028 A 
ATOM      4  C   UNL d   1      51.862  34.051  52.755  0.00  0.00     0.020 A 
ATOM      5  C   UNL d   1      50.721  34.522  53.459  0.00  0.00     0.027 A 
ATOM      6  C   UNL d   1      51.516  34.300  53.452  0.00  0.00     0.004 A 
ENDROOT
BRANCH   4   7
ATOM      7  C   UNL d   1      52.656  33.829  52.748  0.00  0.00     0.085 C 
BRANCH   7   8
ATOM      8  N   UNL d   1      52.896  33.153  53.157  0.00  0.00    -0.251 N 
ATOM      9  C   UNL d   1      52.708  32.354  53.003  0.00  0.00     0.378 A 
ATOM     10  O   UNL d   1      53.086  31.887  53.573  0.00  0.00    -0.258 OA
ATOM     11  O   UNL d   1      52.230  32.087  52.390  0.00  0.00    -0.237 OA
ATOM     12  C   UNL d   1      53.507  32.393  54.078  0.00  0.00     0.121 A 
ATOM     13  C   UNL d   1      53.390  33.175  53.822  0.00  0.00     0.092 A 
ATOM     14  C   UNL d   1      53.983  32.251  54.740  0.00  0.00     0.026 A 
ATOM     15  C   UNL d   1      53.741  33.802  54.218  0.00  0.00     0.020 A 
ATOM     16  C   UNL d   1      54.214  33.650  54.877  0.00  0.00     0.002 A 
ATOM     17  C   UNL d   1      54.335  32.878  55.137  0.00  0.00     0.002 A 
ATOM     18  C   UNL d   1      54.567  34.287  55.274  0.00  0.00     0.000 C 
ENDBRANCH   7   8
ENDBRANCH   4   7
BRANCH   1  19
ATOM     19  O   UNL d   1      50.201  34.212  51.370  0.00  0.00    -0.326 OA
ATOM     20  C   UNL d   1      50.715  34.478  50.782  0.00  0.00     0.181 C 
ENDBRANCH   1  19
BRANCH   2  21
ATOM     21  O   UNL d   1      49.491  34.713  52.766  0.00  0.00    -0.303 OA
BRANCH  21  22
ATOM     22  C   UNL d   1      49.231  35.290  53.284  0.00  0.00     0.123 C 
BRANCH  22  23
ATOM     23  C   UNL d   1      48.461  35.581  53.227  0.00  0.00     0.027 C 
ATOM     24  C   UNL d   1      48.222  36.213  53.696  0.00  0.00     0.002 C 
ENDBRANCH  22  23
ENDBRANCH  21  22
ENDBRANCH   2  21
TORSDOF 6
ENDMDL
MODEL 4
REMARK VINA RESULT:      -7.7      1.342      2.336
REMARK  6 active torsions:
REMARK  status: ('A' for Active; 'I' for Inactive)
REMARK    1  A    between atoms: C_6  and  N_1 
REMARK    2  A    between atoms: C_12  and  C_6 
REMARK    3  A    between atoms: O_18  and  C_7 
REMARK    4  A    between atoms: O_19  and  C_10 
REMARK    5  A    between atoms: C_21  and  O_19 
REMARK    6  A    between atoms: C_23  and  C_21 
ROOT
ATOM      1  C   UNL d   1      50.742  34.344  52.397  0.00  0.00     0.117 A 
ATOM      2  C   UNL d   1      50.328  34.697  53.022  0.00  0.00     0.122 A 
ATOM      3  C   UNL d   1      51.558  34.278  52.440  0.00  0.00     0.028 A 
ATOM      4  C   UNL d   1      51.961  34.557  53.093  0.00  0.00     0.020 A 
ATOM      5  C   UNL d   1      50.736  34.978  53.678  0.00  0.00     0.027 A 
ATOM      6  C   UNL d   1      51.558  34.907  53.713  0.00  0.00     0.004 A 
ENDROOT
BRANCH   4   7
ATOM      7  C   UNL d   1      52.782  34.486  53.128  0.00  0.00     0.085 C 
BRANCH   7   8
ATOM      8  N   UNL d   1      53.149  34.321  53.849  0.00  0.00    -0.251 N 
ATOM      9  C   UNL d   1      53.319  34.838  54.481  0.00  0.00     0.378 A 
ATOM     10  O   UNL d   1      53.691  34.402  55.078  0.00  0.00    -0.258 OA
ATOM     11  O   UNL d   1      53.142  35.642  54.499  0.00  0.00    -0.237 OA
ATOM     12  C   UNL d   1      53.753  33.617  54.818  0.00  0.00     0.121 A 
ATOM     13  C   UNL d   1      53.418  33.566  54.059  0.00  0.00     0.092 A 
ATOM     14  C   UNL d   1      54.069  32.936  55.167  0.00  0.00     0.026 A 
ATOM     15  C   UNL d   1      53.399  32.850  53.657  0.00  0.00     0.020 A 
ATOM     16  C   UNL d   1      53.717  32.177  54.014  0.00  0.00     0.002 A 
ATOM     17  C   UNL d   1      54.050  32.220  54.765  0.00  0.00     0.002 A 
ATOM     18  C   UNL d   1      53.695  31.457  53.604  0.00  0.00     0.000 C 
ENDBRANCH   7   8
ENDBRANCH   4   7
BRANCH   1  19
ATOM     19  O   UNL d   1      50.336  34.066  51.745  0.00  0.00    -0.326 OA
ATOM     20  C   UNL d   1      50.860  34.156  51.114  0.00  0.00     0.181 C 
ENDBRANCH   1  19
BRANCH   2  21
ATOM     21  O   UNL d   1      49.510  34.766  52.983  0.00  0.00    -0.303 OA
BRANCH  21  22
ATOM     22  C   UNL d   1      49.138  35.395  53.349  0.00  0.00     0.123 C 
BRANCH  22  23
ATOM     23  C   UNL d   1      48.345  35.558  53.187  0.00  0.00     0.027 C 
ATOM     24  C   UNL d   1      47.955  36.157  53.594  0.00  0.00     0.002 C 
ENDBRANCH  22  23
ENDBRANCH  21  22
ENDBRANCH   2  21
TORSDOF 6
ENDMDL
MODEL 5
REMARK VINA RESULT:      -7.7      1.065      4.241
REMARK  6 active torsions:
REMARK  status: ('A' for Active; 'I' for Inactive)
REMARK    1  A    between atoms: C_6  and  N_1 
REMARK    2  A    between atoms: C_12  and  C_6 
REMARK    3  A    between atoms: O_18  and  C_7 
REMARK    4  A    between atoms: O_19  and  C_10 
REMARK    5  A    between atoms: C_21  and  O_19 
REMARK    6  A    between atoms: C_23  and  C_21 
ROOT
ATOM      1  C   UNL d   1      53.870  32.353  53.489  0.00  0.00     0.117 A 
ATOM      2  C   UNL d   1      53.400  31.674  53.422  0.00  0.00     0.122 A 
ATOM      3  C   UNL d   1      53.574  33.075  53.236  0.00  0.00     0.028 A 
ATOM      4  C   UNL d   1      52.821  33.124  52.922  0.00  0.00     0.020 A 
ATOM      5  C   UNL d   1      52.644  31.726  53.106  0.00  0.00     0.027 A 
ATOM      6  C   UNL d   1      52.353  32.457  52.855  0.00  0.00     0.004 A 
ENDROOT
BRANCH   4   7
ATOM      7  C   UNL d   1      52.531  33.854  52.671  0.00  0.00     0.085 C 
BRANCH   7   8
ATOM      8  N   UNL d   1      51.910  34.211  53.080  0.00  0.00    -0.251 N 
ATOM      9  C   UNL d   1      51.904  34.526  53.854  0.00  0.00     0.378 A 
ATOM     10  O   UNL d   1      51.146  34.821  54.006  0.00  0.00    -0.258 OA
ATOM     11  O   UNL d   1      52.547  34.536  54.368  0.00  0.00    -0.237 OA
ATOM     12  C   UNL d   1      50.682  34.691  53.331  0.00  0.00     0.121 A 
ATOM     13  C   UNL d   1      51.153  34.314  52.759  0.00  0.00     0.092 A 
ATOM     14  C   UNL d   1      49.892  34.863  53.155  0.00  0.00     0.026 A 
ATOM     15  C   UNL d   1      50.842  34.114  52.027  0.00  0.00     0.020 A 
ATOM     16  C   UNL d   1      50.052  34.290  51.861  0.00  0.00     0.002 A 
ATOM     17  C   UNL d   1      49.580  34.663  52.423  0.00  0.00     0.002 A 
ATOM     18  C   UNL d   1      49.741  34.086  51.120  0.00  0.00     0.000 C 
ENDBRANCH   7   8
ENDBRANCH   4   7
BRANCH   1  19
ATOM     19  O   UNL d   1      54.622  32.300  53.803  0.00  0.00    -0.326 OA
ATOM     20  C   UNL d   1      55.045  32.914  53.450  0.00  0.00     0.181 C 
ENDBRANCH   1  19
BRANCH   2  21
ATOM     21  O   UNL d   1      53.693  30.948  53.674  0.00  0.00    -0.303 OA
BRANCH  21  22
ATOM     22  C   UNL d   1      53.181  30.323  53.794  0.00  0.00     0.123 C 
BRANCH  22  23
ATOM     23  C   UNL d   1      53.475  29.556  53.877  0.00  0.00     0.027 C 
ATOM     24  C   UNL d   1      53.213  29.076  54.491  0.00  0.00     0.002 C 
ENDBRANCH  22  23
ENDBRANCH  21  22
ENDBRANCH   2  21
TORSDOF 6
ENDMDL
MODEL 6
REMARK VINA RESULT:      -7.4      1.894      2.537
REMARK  6 active torsions:
REMARK  status: ('A' for Active; 'I' for Inactive)
REMARK    1  A    between atoms: C_6  and  N_1 
REMARK    2  A    between atoms: C_12  and  C_6 
REMARK    3  A    between atoms: O_18  and  C_7 
REMARK    4  A    between atoms: O_19  and  C_10 
REMARK    5  A    between atoms: C_21  and  O_19 
REMARK    6  A    between atoms: C_23  and  C_21 
ROOT
ATOM      1  C   UNL d   1      54.204  33.509  54.903  0.00  0.00     0.117 A 
ATOM      2  C   UNL d   1      53.543  33.953  54.675  0.00  0.00     0.122 A 
ATOM      3  C   UNL d   1      54.369  32.803  54.518  0.00  0.00     0.028 A 
ATOM      4  C   UNL d   1      53.885  32.541  53.915  0.00  0.00     0.020 A 
ATOM      5  C   UNL d   1      53.058  33.686  54.067  0.00  0.00     0.027 A 
ATOM      6  C   UNL d   1      53.232  32.975  53.685  0.00  0.00     0.004 A 
ENDROOT
BRANCH   4   7
ATOM      7  C   UNL d   1      54.058  31.830  53.533  0.00  0.00     0.085 C 
BRANCH   7   8
ATOM      8  N   UNL d   1      53.444  31.361  53.242  0.00  0.00    -0.251 N 
ATOM      9  C   UNL d   1      52.902  31.529  52.630  0.00  0.00     0.378 A 
ATOM     10  O   UNL d   1      52.395  30.879  52.550  0.00  0.00    -0.258 OA
ATOM     11  O   UNL d   1      52.881  32.223  52.189  0.00  0.00    -0.237 OA
ATOM     12  C   UNL d   1      52.622  30.309  53.109  0.00  0.00     0.121 A 
ATOM     13  C   UNL d   1      53.270  30.607  53.537  0.00  0.00     0.092 A 
ATOM     14  C   UNL d   1      52.328  29.558  53.291  0.00  0.00     0.026 A 
ATOM     15  C   UNL d   1      53.617  30.162  54.133  0.00  0.00     0.020 A 
ATOM     16  C   UNL d   1      53.316  29.413  54.306  0.00  0.00     0.002 A 
ATOM     17  C   UNL d   1      52.675  29.112  53.887  0.00  0.00     0.002 A 
ATOM     18  C   UNL d   1      53.670  28.967  54.909  0.00  0.00     0.000 C 
ENDBRANCH   7   8
ENDBRANCH   4   7
BRANCH   1  19
ATOM     19  O   UNL d   1      54.685  33.775  55.508  0.00  0.00    -0.326 OA
ATOM     20  C   UNL d   1      55.455  33.643  55.240  0.00  0.00     0.181 C 
ENDBRANCH   1  19
BRANCH   2  21
ATOM     21  O   UNL d   1      53.374  34.660  55.058  0.00  0.00    -0.303 OA
BRANCH  21  22
ATOM     22  C   UNL d   1      52.978  35.253  54.659  0.00  0.00     0.123 C 
BRANCH  22  23
ATOM     23  C   UNL d   1      52.747  35.938  55.057  0.00  0.00     0.027 C 
ATOM     24  C   UNL d   1      52.967  36.677  54.771  0.00  0.00     0.002 C 
ENDBRANCH  22  23
ENDBRANCH  21  22
ENDBRANCH   2  21
TORSDOF 6
ENDMDL
MODEL 7
REMARK VINA RESULT:      -6.4      2.192      3.620
REMARK  6 active torsions:
REMARK  status: ('A' for Active; 'I' for Inactive)
REMARK    1  A    between atoms: C_6  and  N_1 
REMARK    2  A    between atoms: C_12  and  C_6 
REMARK    3  A    between atoms: O_18  and  C_7 
REMARK    4  A    between atoms: O_19  and  C_10 
REMARK    5  A    between atoms: C_21  and  O_19 
REMARK    6  A    between atoms: C_23  and  C_21 
ROOT
ATOM      1  C   UNL d   1      49.090  34.770  51.924  0.00  0.00     0.117 A 
ATOM      2  C   UNL d   1      48.881  35.128  52.642  0.00  0.00     0.122 A 
ATOM      3  C   UNL d   1      49.844  34.462  51.832  0.00  0.00     0.028 A 
ATOM      4  C   UNL d   1      50.386  34.507  52.442  0.00  0.00     0.020 A 
ATOM      5  C   UNL d   1      49.428  35.172  53.254  0.00  0.00     0.027 A 
ATOM      6  C   UNL d   1      50.185  34.859  53.152  0.00  0.00     0.004 A 
ENDROOT
BRANCH   4   7
ATOM      7  C   UNL d   1      51.142  34.195  52.340  0.00  0.00     0.085 C 
BRANCH   7   8
ATOM      8  N   UNL d   1      51.498  33.774  52.955  0.00  0.00    -0.251 N 
ATOM      9  C   UNL d   1      51.304  33.018  53.252  0.00  0.00     0.378 A 
ATOM     10  O   UNL d   1      51.826  32.843  53.870  0.00  0.00    -0.258 OA
ATOM     11  O   UNL d   1      50.696  32.537  52.974  0.00  0.00    -0.237 OA
ATOM     12  C   UNL d   1      52.343  33.487  53.956  0.00  0.00     0.121 A 
ATOM     13  C   UNL d   1      52.140  34.061  53.391  0.00  0.00     0.092 A 
ATOM     14  C   UNL d   1      52.973  33.632  54.473  0.00  0.00     0.026 A 
ATOM     15  C   UNL d   1      52.558  34.766  53.343  0.00  0.00     0.020 A 
ATOM     16  C   UNL d   1      53.185  34.901  53.863  0.00  0.00     0.002 A 
ATOM     17  C   UNL d   1      53.391  34.337  54.425  0.00  0.00     0.002 A 
ATOM     18  C   UNL d   1      53.605  35.614  53.810  0.00  0.00     0.000 C 
ENDBRANCH   7   8
ENDBRANCH   4   7
BRANCH   1  19
ATOM     19  O   UNL d   1      48.545  34.726  51.316  0.00  0.00    -0.326 OA
ATOM     20  C   UNL d   1      48.970  34.434  50.672  0.00  0.00     0.181 C 
ENDBRANCH   1  19
BRANCH   2  21
ATOM     21  O   UNL d   1      48.126  35.438  52.738  0.00  0.00    -0.303 OA
BRANCH  21  22
ATOM     22  C   UNL d   1      47.961  35.909  53.386  0.00  0.00     0.123 C 
BRANCH  22  23
ATOM     23  C   UNL d   1      47.244  36.317  53.429  0.00  0.00     0.027 C 
ATOM     24  C   UNL d   1      46.933  36.529  54.160  0.00  0.00     0.002 C 
ENDBRANCH  22  23
ENDBRANCH  21  22
ENDBRANCH   2  21
TORSDOF 6
ENDMDL
MODEL 8
REMARK VINA RESULT:      -5.9      1.540      5.021
REMARK  6 active torsions:
REMARK  status: ('A' for Active; 'I' for Inactive)
REMARK    1  A    between atoms: C_6  and  N_1 
REMARK    2  A    between atoms: C_12  and  C_6 
REMARK    3  A    between atoms: O_18  and  C_7 
REMARK    4  A    between atoms: O_19  and  C_10 
REMARK    5  A    between atoms: C_21  and  O_19 
REMARK    6  A    between atoms: C_23  and  C_21 
ROOT
ATOM      1  C   UNL d   1      52.396  33.747  53.237  0.00  0.00     0.117 A 
ATOM      2  C   UNL d   1      52.100  32.980  53.341  0.00  0.00     0.122 A 
ATOM      3  C   UNL d   1      51.875  34.365  53.102  0.00  0.00     0.028 A 
ATOM      4  C   UNL d   1      51.070  34.227  53.069  0.00  0.00     0.020 A 
ATOM      5  C   UNL d   1      51.290  32.843  53.308  0.00  0.00     0.027 A 
ATOM      6  C   UNL d   1      50.773  33.472  53.171  0.00  0.00     0.004 A 
ENDROOT
BRANCH   4   7
ATOM      7  C   UNL d   1      50.553  34.855  52.933  0.00  0.00     0.085 C 
BRANCH   7   8
ATOM      8  N   UNL d   1      49.982  34.794  52.340  0.00  0.00    -0.251 N 
ATOM      9  C   UNL d   1      50.056  34.474  51.572  0.00  0.00     0.378 A 
ATOM     10  O   UNL d   1      49.324  34.544  51.192  0.00  0.00    -0.258 OA
ATOM     11  O   UNL d   1      50.743  34.148  51.256  0.00  0.00    -0.237 OA
ATOM     12  C   UNL d   1      48.797  34.905  51.721  0.00  0.00     0.121 A 
ATOM     13  C   UNL d   1      49.202  35.060  52.430  0.00  0.00     0.092 A 
ATOM     14  C   UNL d   1      47.999  35.117  51.658  0.00  0.00     0.026 A 
ATOM     15  C   UNL d   1      48.820  35.418  53.062  0.00  0.00     0.020 A 
ATOM     16  C   UNL d   1      48.024  35.625  52.988  0.00  0.00     0.002 A 
ATOM     17  C   UNL d   1      47.616  35.475  52.289  0.00  0.00     0.002 A 
ATOM     18  C   UNL d   1      47.642  35.987  53.629  0.00  0.00     0.000 C 
ENDBRANCH   7   8
ENDBRANCH   4   7
BRANCH   1  19
ATOM     19  O   UNL d   1      53.201  33.882  53.270  0.00  0.00    -0.326 OA
ATOM     20  C   UNL d   1      53.279  34.614  53.643  0.00  0.00     0.181 C 
ENDBRANCH   1  19
BRANCH   2  21
ATOM     21  O   UNL d   1      52.619  32.357  53.477  0.00  0.00    -0.303 OA
BRANCH  21  22
ATOM     22  C   UNL d   1      52.492  31.637  53.113  0.00  0.00     0.123 C 
BRANCH  22  23
ATOM     23  C   UNL d   1      53.008  31.006  53.251  0.00  0.00     0.027 C 
ATOM     24  C   UNL d   1      52.867  30.274  52.904  0.00  0.00     0.002 C 
ENDBRANCH  22  23
ENDBRANCH  21  22
ENDBRANCH   2  21
TORSDOF 6
ENDMDL
