MODEL 1
REMARK VINA RESULT:      -0.8      0.000      0.000
REMARK  7 active torsions:
REMARK  status: ('A' for Active; 'I' for Inactive)
REMARK    1  A    between atoms: C_11  and  C_3 
REMARK    2  A    between atoms: C_10  and  C_4 
REMARK    3  A    between atoms: O_16  and  C_10 
REMARK    4  A    between atoms: N_14  and  C_11 
REMARK    5  A    between atoms: C_21  and  N_14 
REMARK    6  A    between atoms: C_23  and  O_16 
REMARK    7  A    between atoms: C_20  and  C_21 
ROOT
ATOM      1  C   UNL d   1      59.359  -2.083  29.071  0.00  0.00     0.035 A 
ATOM      2  C   UNL d   1      60.091  -1.765  28.834  0.00  0.00     0.100 A 
ATOM      3  C   UNL d   1      58.776  -1.576  29.355  0.00  0.00     0.060 A 
ATOM      4  C   UNL d   1      59.370  -2.899  28.965  0.00  0.00     0.088 A 
ATOM      5  O   UNL d   1      60.567  -2.417  28.572  0.00  0.00    -0.307 OA
ATOM      6  C   UNL d   1      60.124  -3.080  28.657  0.00  0.00     0.105 A 
ATOM      7  C   UNL d   1      58.928  -0.753  29.400  0.00  0.00     0.197 A 
ATOM      8  C   UNL d   1      60.253  -0.945  28.874  0.00  0.00     0.026 A 
ATOM      9  C   UNL d   1      59.671  -0.438  29.158  0.00  0.00     0.041 A 
ATOM     10  O   UNL d   1      58.332  -0.234  29.690  0.00  0.00    -0.286 OA
ATOM     11  C   UNL d   1      60.389  -3.855  28.460  0.00  0.00     0.027 C 
ATOM     12  C   UNL d   1      60.974  -0.642  28.640  0.00  0.00     0.002 A 
ATOM     13  C   UNL d   1      59.811   0.370  29.206  0.00  0.00     0.003 A 
ATOM     14  C   UNL d   1      60.550   0.681  28.965  0.00  0.00     0.000 A 
ATOM     15  C   UNL d   1      61.133   0.174  28.681  0.00  0.00     0.000 A 
ENDROOT
BRANCH   3  16
ATOM     16  C   UNL d   1      58.035  -1.925  29.592  0.00  0.00     0.102 C 
BRANCH  16  17
ATOM     17  N   UNL d   1      57.753  -1.780  30.397  0.00  0.00    -0.240 NA
BRANCH  17  18
ATOM     18  C   UNL d   1      57.104  -1.267  30.510  0.00  0.00     0.124 C 
BRANCH  18  19
ATOM     19  C   UNL d   1      56.878  -1.068  31.276  0.00  0.00     0.119 A 
ATOM     20  O   UNL d   1      56.553  -1.652  31.796  0.00  0.00    -0.304 OA
ATOM     21  C   UNL d   1      56.387  -1.284  32.505  0.00  0.00     0.123 A 
ATOM     22  C   UNL d   1      56.595  -0.510  32.438  0.00  0.00     0.029 A 
ATOM     23  C   UNL d   1      56.895  -0.362  31.697  0.00  0.00     0.028 A 
ENDBRANCH  18  19
ENDBRANCH  17  18
ENDBRANCH  16  17
ENDBRANCH   3  16
BRANCH   4  24
ATOM     24  C   UNL d   1      58.762  -3.456  29.126  0.00  0.00     0.302 C 
ATOM     25  O   UNL d   1      58.329  -3.415  29.859  0.00  0.00    -0.259 OA
BRANCH  24  26
ATOM     26  O   UNL d   1      58.570  -4.050  28.584  0.00  0.00    -0.271 OA
BRANCH  26  27
ATOM     27  C   UNL d   1      57.830  -4.406  28.614  0.00  0.00     0.126 C 
ATOM     28  C   UNL d   1      57.761  -5.207  28.515  0.00  0.00     0.029 C 
ENDBRANCH  26  27
ENDBRANCH  24  26
ENDBRANCH   4  24
TORSDOF 7
ENDMDL
MODEL 2
REMARK VINA RESULT:      -0.8      1.339      3.278
REMARK  7 active torsions:
REMARK  status: ('A' for Active; 'I' for Inactive)
REMARK    1  A    between atoms: C_11  and  C_3 
REMARK    2  A    between atoms: C_10  and  C_4 
REMARK    3  A    between atoms: O_16  and  C_10 
REMARK    4  A    between atoms: N_14  and  C_11 
REMARK    5  A    between atoms: C_21  and  N_14 
REMARK    6  A    between atoms: C_23  and  O_16 
REMARK    7  A    between atoms: C_20  and  C_21 
ROOT
ATOM      1  C   UNL d   1      58.959  -0.987  30.041  0.00  0.00     0.035 A 
ATOM      2  C   UNL d   1      59.427  -1.458  29.538  0.00  0.00     0.100 A 
ATOM      3  C   UNL d   1      58.218  -1.262  30.271  0.00  0.00     0.060 A 
ATOM      4  C   UNL d   1      59.365  -0.294  30.218  0.00  0.00     0.088 A 
ATOM      5  O   UNL d   1      60.148  -1.031  29.404  0.00  0.00    -0.307 OA
ATOM      6  C   UNL d   1      60.094  -0.345  29.815  0.00  0.00     0.105 A 
ATOM      7  C   UNL d   1      57.948  -2.006  29.996  0.00  0.00     0.197 A 
ATOM      8  C   UNL d   1      59.167  -2.203  29.258  0.00  0.00     0.026 A 
ATOM      9  C   UNL d   1      58.425  -2.477  29.487  0.00  0.00     0.041 A 
ATOM     10  O   UNL d   1      57.189  -2.286  30.231  0.00  0.00    -0.286 OA
ATOM     11  C   UNL d   1      60.695   0.245  29.833  0.00  0.00     0.027 C 
ATOM     12  C   UNL d   1      59.631  -2.658  28.765  0.00  0.00     0.002 A 
ATOM     13  C   UNL d   1      58.152  -3.205  29.222  0.00  0.00     0.003 A 
ATOM     14  C   UNL d   1      58.629  -3.673  28.716  0.00  0.00     0.000 A 
ATOM     15  C   UNL d   1      59.371  -3.398  28.487  0.00  0.00     0.000 A 
ENDROOT
BRANCH   3  16
ATOM     16  C   UNL d   1      57.759  -0.762  30.786  0.00  0.00     0.102 C 
BRANCH  16  17
ATOM     17  N   UNL d   1      57.162  -1.134  31.292  0.00  0.00    -0.240 NA
BRANCH  17  18
ATOM     18  C   UNL d   1      56.718  -0.653  31.809  0.00  0.00     0.124 C 
BRANCH  18  19
ATOM     19  C   UNL d   1      56.425  -0.977  32.507  0.00  0.00     0.119 A 
ATOM     20  O   UNL d   1      56.633  -0.647  33.258  0.00  0.00    -0.304 OA
ATOM     21  C   UNL d   1      56.258  -1.088  33.834  0.00  0.00     0.123 A 
ATOM     22  C   UNL d   1      55.836  -1.665  33.467  0.00  0.00     0.029 A 
ATOM     23  C   UNL d   1      55.926  -1.612  32.661  0.00  0.00     0.028 A 
ENDBRANCH  18  19
ENDBRANCH  17  18
ENDBRANCH  16  17
ENDBRANCH   3  16
BRANCH   4  24
ATOM     24  C   UNL d   1      59.119   0.347  30.702  0.00  0.00     0.302 C 
ATOM     25  O   UNL d   1      58.333   0.666  30.621  0.00  0.00    -0.259 OA
BRANCH  24  26
ATOM     26  O   UNL d   1      59.627   0.681  31.263  0.00  0.00    -0.271 OA
BRANCH  26  27
ATOM     27  C   UNL d   1      59.550   0.475  32.056  0.00  0.00     0.126 C 
ATOM     28  C   UNL d   1      60.132   0.673  32.584  0.00  0.00     0.029 C 
ENDBRANCH  26  27
ENDBRANCH  24  26
ENDBRANCH   4  24
TORSDOF 7
ENDMDL
MODEL 3
REMARK VINA RESULT:       0.5      6.929      8.758
REMARK  7 active torsions:
REMARK  status: ('A' for Active; 'I' for Inactive)
REMARK    1  A    between atoms: C_11  and  C_3 
REMARK    2  A    between atoms: C_10  and  C_4 
REMARK    3  A    between atoms: O_16  and  C_10 
REMARK    4  A    between atoms: N_14  and  C_11 
REMARK    5  A    between atoms: C_21  and  N_14 
REMARK    6  A    between atoms: C_23  and  O_16 
REMARK    7  A    between atoms: C_20  and  C_21 
ROOT
ATOM      1  C   UNL d   1      58.730  -9.650  31.958  0.00  0.00     0.035 A 
ATOM      2  C   UNL d   1      58.456  -9.559  32.739  0.00  0.00     0.100 A 
ATOM      3  C   UNL d   1      59.540  -9.698  31.822  0.00  0.00     0.060 A 
ATOM      4  C   UNL d   1      58.087  -9.676  31.447  0.00  0.00     0.088 A 
ATOM      5  O   UNL d   1      57.609  -9.528  32.699  0.00  0.00    -0.307 OA
ATOM      6  C   UNL d   1      57.408  -9.599  31.926  0.00  0.00     0.105 A 
ATOM      7  C   UNL d   1      60.073  -9.654  32.467  0.00  0.00     0.197 A 
ATOM      8  C   UNL d   1      58.979  -9.514  33.391  0.00  0.00     0.026 A 
ATOM      9  C   UNL d   1      59.789  -9.561  33.255  0.00  0.00     0.041 A 
ATOM     10  O   UNL d   1      60.902  -9.702  32.328  0.00  0.00    -0.286 OA
ATOM     11  C   UNL d   1      56.616  -9.595  31.641  0.00  0.00     0.027 C 
ATOM     12  C   UNL d   1      58.702  -9.424  34.154  0.00  0.00     0.002 A 
ATOM     13  C   UNL d   1      60.319  -9.519  33.882  0.00  0.00     0.003 A 
ATOM     14  C   UNL d   1      60.034  -9.427  34.665  0.00  0.00     0.000 A 
ATOM     15  C   UNL d   1      59.224  -9.380  34.801  0.00  0.00     0.000 A 
ENDROOT
BRANCH   3  16
ATOM     16  C   UNL d   1      59.796  -9.791  31.015  0.00  0.00     0.102 C 
BRANCH  16  17
ATOM     17  N   UNL d   1      60.568  -9.469  30.790  0.00  0.00    -0.240 NA
BRANCH  17  18
ATOM     18  C   UNL d   1      60.810  -9.525  29.993  0.00  0.00     0.124 C 
BRANCH  18  19
ATOM     19  C   UNL d   1      60.923  -8.835  29.558  0.00  0.00     0.119 A 
ATOM     20  O   UNL d   1      61.038  -8.866  28.720  0.00  0.00    -0.304 OA
ATOM     21  C   UNL d   1      61.133  -8.100  28.456  0.00  0.00     0.123 A 
ATOM     22  C   UNL d   1      61.081  -7.611  29.091  0.00  0.00     0.029 A 
ATOM     23  C   UNL d   1      60.954  -8.041  29.769  0.00  0.00     0.028 A 
ENDBRANCH  18  19
ENDBRANCH  17  18
ENDBRANCH  16  17
ENDBRANCH   3  16
BRANCH   4  24
ATOM     24  C   UNL d   1      58.086  -9.762  30.611  0.00  0.00     0.302 C 
ATOM     25  O   UNL d   1      58.823  -9.801  30.186  0.00  0.00    -0.259 OA
BRANCH  24  26
ATOM     26  O   UNL d   1      57.379  -9.809  30.185  0.00  0.00    -0.271 OA
BRANCH  26  27
ATOM     27  C   UNL d   1      57.345  -9.515  29.418  0.00  0.00     0.126 C 
ATOM     28  C   UNL d   1      56.777  -9.783  28.906  0.00  0.00     0.029 C 
ENDBRANCH  26  27
ENDBRANCH  24  26
ENDBRANCH   4  24
TORSDOF 7
ENDMDL
