MODEL 1
REMARK VINA RESULT:      -7.5      0.000      0.000
REMARK  6 active torsions:
REMARK  status: ('A' for Active; 'I' for Inactive)
REMARK    1  A    between atoms: N_13  and  C_4 
REMARK    2  A    between atoms: O_17  and  C_9 
REMARK    3  A    between atoms: O_18  and  C_11 
REMARK    4  A    between atoms: C_19  and  N_13 
REMARK    5  A    between atoms: C_15  and  C_20 
REMARK    6  A    between atoms: C_20  and  C_19 
ROOT
ATOM      1  C   UNL d   1     -47.919  13.905  22.759  0.00  0.00     0.101 C 
ENDROOT
BRANCH   1   2
ATOM      2  N   UNL d   1     -48.408  14.545  22.800  0.00  0.00    -0.225 NA
BRANCH   2   3
ATOM      3  C   UNL d   1     -49.168  14.503  22.526  0.00  0.00     0.169 A 
ATOM      4  C   UNL d   1     -49.711  14.960  22.829  0.00  0.00     0.094 A 
ATOM      5  C   UNL d   1     -50.445  14.915  22.560  0.00  0.00     0.190 A 
ATOM      6  C   UNL d   1     -50.092  15.922  23.698  0.00  0.00     0.128 A 
ATOM      7  N   UNL d   1     -50.627  14.421  21.999  0.00  0.00    -0.203 NA
ATOM      8  N   UNL d   1     -50.992  15.372  22.862  0.00  0.00    -0.128 NA
ATOM      9  C   UNL d   1     -50.077  13.956  21.690  0.00  0.00     0.202 A 
ATOM     10  N   UNL d   1     -49.342  13.997  21.956  0.00  0.00    -0.205 NA
ATOM     11  N   UNL d   1     -50.820  15.872  23.425  0.00  0.00    -0.145 NA
ENDBRANCH   2   3
ENDBRANCH   1   2
BRANCH   1  12
ATOM     12  C   UNL d   1     -47.119  13.974  22.947  0.00  0.00     0.021 C 
BRANCH  12  13
ATOM     13  C   UNL d   1     -46.656  13.304  23.051  0.00  0.00     0.004 A 
ATOM     14  C   UNL d   1     -45.902  13.284  22.736  0.00  0.00     0.026 A 
ATOM     15  C   UNL d   1     -45.428  12.608  22.838  0.00  0.00     0.116 A 
ATOM     16  C   UNL d   1     -45.718  11.959  23.257  0.00  0.00     0.116 A 
ATOM     17  C   UNL d   1     -46.484  11.982  23.576  0.00  0.00     0.026 A 
ATOM     18  C   UNL d   1     -46.954  12.656  23.474  0.00  0.00     0.002 A 
BRANCH  15  19
ATOM     19  O   UNL d   1     -44.661  12.588  22.517  0.00  0.00    -0.326 OA
ATOM     20  C   UNL d   1     -44.499  12.979  21.799  0.00  0.00     0.181 C 
ENDBRANCH  15  19
BRANCH  16  21
ATOM     21  O   UNL d   1     -45.247  11.277  23.363  0.00  0.00    -0.326 OA
ATOM     22  C   UNL d   1     -45.587  10.593  23.693  0.00  0.00     0.181 C 
ENDBRANCH  16  21
ENDBRANCH  12  13
ENDBRANCH   1  12
TORSDOF 6
ENDMDL
MODEL 2
REMARK VINA RESULT:      -7.5      1.103      1.380
REMARK  6 active torsions:
REMARK  status: ('A' for Active; 'I' for Inactive)
REMARK    1  A    between atoms: N_13  and  C_4 
REMARK    2  A    between atoms: O_17  and  C_9 
REMARK    3  A    between atoms: O_18  and  C_11 
REMARK    4  A    between atoms: C_19  and  N_13 
REMARK    5  A    between atoms: C_15  and  C_20 
REMARK    6  A    between atoms: C_20  and  C_19 
ROOT
ATOM      1  C   UNL d   1     -49.016  12.585  23.074  0.00  0.00     0.101 C 
ENDROOT
BRANCH   1   2
ATOM      2  N   UNL d   1     -49.721  12.956  23.199  0.00  0.00    -0.225 NA
BRANCH   2   3
ATOM      3  C   UNL d   1     -50.106  13.328  22.592  0.00  0.00     0.169 A 
ATOM      4  C   UNL d   1     -50.364  14.049  22.687  0.00  0.00     0.094 A 
ATOM      5  C   UNL d   1     -50.735  14.405  22.096  0.00  0.00     0.190 A 
ATOM      6  C   UNL d   1     -50.524  15.153  23.448  0.00  0.00     0.128 A 
ATOM      7  N   UNL d   1     -50.843  14.042  21.426  0.00  0.00    -0.203 NA
ATOM      8  N   UNL d   1     -50.996  15.128  22.188  0.00  0.00    -0.128 NA
ATOM      9  C   UNL d   1     -50.582  13.310  21.328  0.00  0.00     0.202 A 
ATOM     10  N   UNL d   1     -50.210  12.951  21.916  0.00  0.00    -0.205 NA
ATOM     11  N   UNL d   1     -50.893  15.501  22.856  0.00  0.00    -0.145 NA
ENDBRANCH   2   3
ENDBRANCH   1   2
BRANCH   1  12
ATOM     12  C   UNL d   1     -48.622  12.208  23.693  0.00  0.00     0.021 C 
BRANCH  12  13
ATOM     13  C   UNL d   1     -47.825  12.025  23.631  0.00  0.00     0.004 A 
ATOM     14  C   UNL d   1     -47.284  12.624  23.503  0.00  0.00     0.026 A 
ATOM     15  C   UNL d   1     -46.474  12.445  23.439  0.00  0.00     0.116 A 
ATOM     16  C   UNL d   1     -46.217  11.664  23.504  0.00  0.00     0.116 A 
ATOM     17  C   UNL d   1     -46.769  11.057  23.634  0.00  0.00     0.026 A 
ATOM     18  C   UNL d   1     -47.574  11.238  23.698  0.00  0.00     0.002 A 
BRANCH  15  19
ATOM     19  O   UNL d   1     -45.924  13.055  23.308  0.00  0.00    -0.326 OA
ATOM     20  C   UNL d   1     -46.187  13.812  23.079  0.00  0.00     0.181 C 
ENDBRANCH  15  19
BRANCH  16  21
ATOM     21  O   UNL d   1     -45.405  11.477  23.441  0.00  0.00    -0.326 OA
ATOM     22  C   UNL d   1     -45.154  10.695  23.578  0.00  0.00     0.181 C 
ENDBRANCH  16  21
ENDBRANCH  12  13
ENDBRANCH   1  12
TORSDOF 6
ENDMDL
MODEL 3
REMARK VINA RESULT:      -7.3      2.721      5.137
REMARK  6 active torsions:
REMARK  status: ('A' for Active; 'I' for Inactive)
REMARK    1  A    between atoms: N_13  and  C_4 
REMARK    2  A    between atoms: O_17  and  C_9 
REMARK    3  A    between atoms: O_18  and  C_11 
REMARK    4  A    between atoms: C_19  and  N_13 
REMARK    5  A    between atoms: C_15  and  C_20 
REMARK    6  A    between atoms: C_20  and  C_19 
ROOT
ATOM      1  C   UNL d   1     -47.651  13.701  22.515  0.00  0.00     0.101 C 
ENDROOT
BRANCH   1   2
ATOM      2  N   UNL d   1     -46.929  13.429  22.280  0.00  0.00    -0.225 NA
BRANCH   2   3
ATOM      3  C   UNL d   1     -46.544  12.858  22.705  0.00  0.00     0.169 A 
ATOM      4  C   UNL d   1     -45.806  12.696  22.549  0.00  0.00     0.094 A 
ATOM      5  C   UNL d   1     -45.438  12.142  22.962  0.00  0.00     0.190 A 
ATOM      6  C   UNL d   1     -44.679  12.907  21.835  0.00  0.00     0.128 A 
ATOM      7  N   UNL d   1     -45.807  11.760  23.520  0.00  0.00    -0.203 NA
ATOM      8  N   UNL d   1     -44.698  11.977  22.808  0.00  0.00    -0.128 NA
ATOM      9  C   UNL d   1     -46.556  11.923  23.680  0.00  0.00     0.202 A 
ATOM     10  N   UNL d   1     -46.928  12.476  23.269  0.00  0.00    -0.205 NA
ATOM     11  N   UNL d   1     -44.320  12.354  22.250  0.00  0.00    -0.145 NA
ENDBRANCH   2   3
ENDBRANCH   1   2
BRANCH   1  12
ATOM     12  C   UNL d   1     -48.026  14.311  22.105  0.00  0.00     0.021 C 
BRANCH  12  13
ATOM     13  C   UNL d   1     -48.765  14.580  22.340  0.00  0.00     0.004 A 
ATOM     14  C   UNL d   1     -49.436  14.231  22.031  0.00  0.00     0.026 A 
ATOM     15  C   UNL d   1     -50.187  14.499  22.266  0.00  0.00     0.116 A 
ATOM     16  C   UNL d   1     -50.255  15.116  22.810  0.00  0.00     0.116 A 
ATOM     17  C   UNL d   1     -49.572  15.468  23.122  0.00  0.00     0.026 A 
ATOM     18  C   UNL d   1     -48.825  15.200  22.887  0.00  0.00     0.002 A 
BRANCH  15  19
ATOM     19  O   UNL d   1     -50.871  14.144  21.951  0.00  0.00    -0.326 OA
ATOM     20  C   UNL d   1     -50.803  13.494  21.434  0.00  0.00     0.181 C 
ENDBRANCH  15  19
BRANCH  16  21
ATOM     21  O   UNL d   1     -51.008  15.390  23.050  0.00  0.00    -0.326 OA
ATOM     22  C   UNL d   1     -51.064  15.922  23.687  0.00  0.00     0.181 C 
ENDBRANCH  16  21
ENDBRANCH  12  13
ENDBRANCH   1  12
TORSDOF 6
ENDMDL
MODEL 4
REMARK VINA RESULT:      -7.0      2.785      5.143
REMARK  6 active torsions:
REMARK  status: ('A' for Active; 'I' for Inactive)
REMARK    1  A    between atoms: N_13  and  C_4 
REMARK    2  A    between atoms: O_17  and  C_9 
REMARK    3  A    between atoms: O_18  and  C_11 
REMARK    4  A    between atoms: C_19  and  N_13 
REMARK    5  A    between atoms: C_15  and  C_20 
REMARK    6  A    between atoms: C_20  and  C_19 
ROOT
ATOM      1  C   UNL d   1     -47.132  13.463  22.793  0.00  0.00     0.101 C 
ENDROOT
BRANCH   1   2
ATOM      2  N   UNL d   1     -46.327  13.459  22.850  0.00  0.00    -0.225 NA
BRANCH   2   3
ATOM      3  C   UNL d   1     -45.929  12.775  23.018  0.00  0.00     0.169 A 
ATOM      4  C   UNL d   1     -45.254  12.630  22.671  0.00  0.00     0.094 A 
ATOM      5  C   UNL d   1     -44.872  11.967  22.837  0.00  0.00     0.190 A 
ATOM      6  C   UNL d   1     -44.270  12.979  21.815  0.00  0.00     0.128 A 
ATOM      7  N   UNL d   1     -45.164  11.463  23.341  0.00  0.00    -0.203 NA
ATOM      8  N   UNL d   1     -44.196  11.818  22.492  0.00  0.00    -0.128 NA
ATOM      9  C   UNL d   1     -45.848  11.609  23.693  0.00  0.00     0.202 A 
ATOM     10  N   UNL d   1     -46.233  12.271  23.531  0.00  0.00    -0.205 NA
ATOM     11  N   UNL d   1     -43.895  12.317  21.985  0.00  0.00    -0.145 NA
ENDBRANCH   2   3
ENDBRANCH   1   2
BRANCH   1  12
ATOM     12  C   UNL d   1     -47.540  14.164  22.640  0.00  0.00     0.021 C 
BRANCH  12  13
ATOM     13  C   UNL d   1     -48.345  14.152  22.480  0.00  0.00     0.004 A 
ATOM     14  C   UNL d   1     -48.859  14.546  22.978  0.00  0.00     0.026 A 
ATOM     15  C   UNL d   1     -49.676  14.537  22.821  0.00  0.00     0.116 A 
ATOM     16  C   UNL d   1     -49.967  14.131  22.164  0.00  0.00     0.116 A 
ATOM     17  C   UNL d   1     -49.442  13.731  21.660  0.00  0.00     0.026 A 
ATOM     18  C   UNL d   1     -48.629  13.742  21.818  0.00  0.00     0.002 A 
BRANCH  15  19
ATOM     19  O   UNL d   1     -50.199  14.938  23.328  0.00  0.00    -0.326 OA
ATOM     20  C   UNL d   1     -49.995  15.687  23.630  0.00  0.00     0.181 C 
ENDBRANCH  15  19
BRANCH  16  21
ATOM     21  O   UNL d   1     -50.786  14.118  22.001  0.00  0.00    -0.326 OA
ATOM     22  C   UNL d   1     -51.064  13.697  21.340  0.00  0.00     0.181 C 
ENDBRANCH  16  21
ENDBRANCH  12  13
ENDBRANCH   1  12
TORSDOF 6
ENDMDL
MODEL 5
REMARK VINA RESULT:      -6.7      1.283      1.994
REMARK  6 active torsions:
REMARK  status: ('A' for Active; 'I' for Inactive)
REMARK    1  A    between atoms: N_13  and  C_4 
REMARK    2  A    between atoms: O_17  and  C_9 
REMARK    3  A    between atoms: O_18  and  C_11 
REMARK    4  A    between atoms: C_19  and  N_13 
REMARK    5  A    between atoms: C_15  and  C_20 
REMARK    6  A    between atoms: C_20  and  C_19 
ROOT
ATOM      1  C   UNL d   1     -47.957  13.368  22.712  0.00  0.00     0.101 C 
ENDROOT
BRANCH   1   2
ATOM      2  N   UNL d   1     -48.685  13.645  22.923  0.00  0.00    -0.225 NA
BRANCH   2   3
ATOM      3  C   UNL d   1     -49.334  13.488  22.467  0.00  0.00     0.169 A 
ATOM      4  C   UNL d   1     -49.884  13.016  22.733  0.00  0.00     0.094 A 
ATOM      5  C   UNL d   1     -50.511  12.868  22.288  0.00  0.00     0.190 A 
ATOM      6  C   UNL d   1     -50.383  12.212  23.697  0.00  0.00     0.128 A 
ATOM      7  N   UNL d   1     -50.581  13.188  21.591  0.00  0.00    -0.203 NA
ATOM      8  N   UNL d   1     -51.064  12.395  22.551  0.00  0.00    -0.128 NA
ATOM      9  C   UNL d   1     -50.024  13.667  21.320  0.00  0.00     0.202 A 
ATOM     10  N   UNL d   1     -49.395  13.818  21.761  0.00  0.00    -0.205 NA
ATOM     11  N   UNL d   1     -51.004  12.069  23.249  0.00  0.00    -0.145 NA
ENDBRANCH   2   3
ENDBRANCH   1   2
BRANCH   1  12
ATOM     12  C   UNL d   1     -47.286  13.572  23.147  0.00  0.00     0.021 C 
BRANCH  12  13
ATOM     13  C   UNL d   1     -46.545  13.301  22.922  0.00  0.00     0.004 A 
ATOM     14  C   UNL d   1     -46.268  12.593  23.223  0.00  0.00     0.026 A 
ATOM     15  C   UNL d   1     -45.517  12.313  22.999  0.00  0.00     0.116 A 
ATOM     16  C   UNL d   1     -45.053  12.749  22.474  0.00  0.00     0.116 A 
ATOM     17  C   UNL d   1     -45.337  13.467  22.170  0.00  0.00     0.026 A 
ATOM     18  C   UNL d   1     -46.084  13.744  22.394  0.00  0.00     0.002 A 
BRANCH  15  19
ATOM     19  O   UNL d   1     -45.236  11.593  23.305  0.00  0.00    -0.326 OA
ATOM     20  C   UNL d   1     -45.757  11.073  23.696  0.00  0.00     0.181 C 
ENDBRANCH  15  19
BRANCH  16  21
ATOM     21  O   UNL d   1     -44.298  12.472  22.245  0.00  0.00    -0.326 OA
ATOM     22  C   UNL d   1     -43.953  12.762  21.545  0.00  0.00     0.181 C 
ENDBRANCH  16  21
ENDBRANCH  12  13
ENDBRANCH   1  12
TORSDOF 6
ENDMDL
