MODEL 1
REMARK VINA RESULT:      10.6      0.000      0.000
REMARK  1 active torsions:
REMARK  status: ('A' for Active; 'I' for Inactive)
REMARK    1  A    between atoms: C_7  and  C_1 
ROOT
ATOM      1  C   UNL d   1      46.493 -19.375  41.191  0.00  0.00     0.122 A 
ATOM      2  C   UNL d   1      46.332 -18.781  42.492  0.00  0.00     0.057 A 
ATOM      3  C   UNL d   1      46.486 -19.512  42.844  0.00  0.00     0.085 A 
ATOM      4  C   UNL d   1      46.335 -18.712  41.670  0.00  0.00     0.204 A 
ATOM      5  N   UNL d   1      46.643 -20.171  42.358  0.00  0.00    -0.244 NA
ATOM      6  C   UNL d   1      46.484 -19.588  43.663  0.00  0.00     0.028 A 
ATOM      7  C   UNL d   1      46.647 -20.106  41.544  0.00  0.00     0.108 A 
ATOM      8  C   UNL d   1      46.176 -18.125  42.957  0.00  0.00     0.006 A 
ATOM      9  C   UNL d   1      46.328 -18.933  44.123  0.00  0.00     0.059 A 
ATOM     10  C   UNL d   1      46.175 -18.207  43.772  0.00  0.00     0.012 A 
ATOM     11  O   UNL d   1      46.182 -17.985  41.319  0.00  0.00    -0.286 OA
ATOM     12 CL   UNL d   1      46.324 -18.999  44.954  0.00  0.00    -0.082 Cl
ATOM     13  C   UNL d   1      46.640 -20.330  44.021  0.00  0.00     0.002 C 
ENDROOT
BRANCH   1  14
ATOM     14  C   UNL d   1      46.494 -19.293  40.362  0.00  0.00     0.216 C 
ATOM     15  O   UNL d   1      46.629 -19.947  39.872  0.00  0.00    -0.644 OA
ATOM     16  O   UNL d   1      46.358 -18.546  40.023  0.00  0.00    -0.644 OA
ENDBRANCH   1  14
TORSDOF 1
ENDMDL
MODEL 2
REMARK VINA RESULT:      11.3      6.898      7.389
REMARK  1 active torsions:
REMARK  status: ('A' for Active; 'I' for Inactive)
REMARK    1  A    between atoms: C_7  and  C_1 
ROOT
ATOM      1  C   UNL d   1      45.556 -15.028  36.911  0.00  0.00     0.122 A 
ATOM      2  C   UNL d   1      44.118 -15.026  36.846  0.00  0.00     0.057 A 
ATOM      3  C   UNL d   1      44.126 -15.829  36.654  0.00  0.00     0.085 A 
ATOM      4  C   UNL d   1      44.829 -14.627  36.974  0.00  0.00     0.204 A 
ATOM      5  N   UNL d   1      44.858 -16.224  36.593  0.00  0.00    -0.244 NA
ATOM      6  C   UNL d   1      43.421 -16.234  36.525  0.00  0.00     0.028 A 
ATOM      7  C   UNL d   1      45.563 -15.831  36.719  0.00  0.00     0.108 A 
ATOM      8  C   UNL d   1      43.406 -14.625  36.909  0.00  0.00     0.006 A 
ATOM      9  C   UNL d   1      42.715 -15.831  36.589  0.00  0.00     0.059 A 
ATOM     10  C   UNL d   1      42.708 -15.032  36.780  0.00  0.00     0.012 A 
ATOM     11  O   UNL d   1      44.821 -13.828  37.165  0.00  0.00    -0.286 OA
ATOM     12 CL   UNL d   1      41.995 -16.232  36.461  0.00  0.00    -0.082 Cl
ATOM     13  C   UNL d   1      43.429 -17.049  36.331  0.00  0.00     0.002 C 
ENDROOT
BRANCH   1  14
ATOM     14  C   UNL d   1      46.267 -14.615  37.042  0.00  0.00     0.216 C 
ATOM     15  O   UNL d   1      46.622 -14.609  37.790  0.00  0.00    -0.644 OA
ATOM     16  O   UNL d   1      46.625 -14.204  36.414  0.00  0.00    -0.644 OA
ENDBRANCH   1  14
TORSDOF 1
ENDMDL
