MODEL 1
REMARK VINA RESULT:      89.4      0.000      0.000
REMARK  6 active torsions:
REMARK  status: ('A' for Active; 'I' for Inactive)
REMARK    1  A    between atoms: N_15  and  C_1 
REMARK    2  A    between atoms: C_21  and  N_6 
REMARK    3  A    between atoms: C_16  and  C_8 
REMARK    4  A    between atoms: C_9  and  S_17 
REMARK       I    between atoms: C_20  and  N_15 
REMARK    5  A    between atoms: S_17  and  C_23 
REMARK    6  A    between atoms: C_23  and  C_20 
ROOT
ATOM      1  C   UNL d   1     -54.841 -99.854 -43.203  0.00  0.00     0.099 C 
ENDROOT
BRANCH   1   2
ATOM      2  S   UNL d   1     -55.522 -99.302 -43.335  0.00  0.00    -0.064 SA
BRANCH   2   3
ATOM      3  C   UNL d   1     -56.068 -99.163 -43.983  0.00  0.00     0.096 A 
ATOM      4  N   UNL d   1     -56.870 -99.064 -43.823  0.00  0.00    -0.285 N 
ATOM      5  C   UNL d   1     -57.405 -98.927 -44.458  0.00  0.00     0.150 A 
ATOM      6  C   UNL d   1     -57.973 -98.994 -42.890  0.00  0.00     0.084 A 
ATOM      7  N   UNL d   1     -58.219 -98.825 -44.304  0.00  0.00    -0.227 NA
ATOM      8  C   UNL d   1     -57.123 -98.894 -45.231  0.00  0.00     0.056 A 
ATOM      9  C   UNL d   1     -58.508 -98.858 -43.524  0.00  0.00     0.099 A 
ATOM     10  C   UNL d   1     -59.310 -98.758 -43.365  0.00  0.00     0.021 A 
ATOM     11  C   UNL d   1     -59.593 -98.791 -42.590  0.00  0.00     0.002 A 
ATOM     12  C   UNL d   1     -59.065 -98.926 -41.966  0.00  0.00     0.002 A 
ATOM     13  C   UNL d   1     -58.255 -99.027 -42.115  0.00  0.00     0.019 A 
ATOM     14  C   UNL d   1     -56.306 -98.996 -45.387  0.00  0.00     0.006 A 
ATOM     15  C   UNL d   1     -55.785 -99.130 -44.758  0.00  0.00     0.025 A 
ATOM     16  C   UNL d   1     -56.030 -98.963 -46.156  0.00  0.00     0.000 C 
BRANCH   8  17
ATOM     17  C   UNL d   1     -57.643 -98.760 -45.862  0.00  0.00     0.125 C 
ATOM     18  N   UNL d   1     -58.452 -98.858 -45.711  0.00  0.00    -0.146 N 
ENDBRANCH   8  17
ENDBRANCH   2   3
ENDBRANCH   1   2
BRANCH   1  19
ATOM     19  C   UNL d   1     -54.888-100.456 -42.565  0.00  0.00     0.286 C 
ATOM     20  N   UNL d   1     -54.713-100.224 -41.731  0.00  0.00    -0.201 NA
ATOM     21  O   UNL d   1     -55.110-101.290 -42.750  0.00  0.00    -0.265 OA
BRANCH  20  22
ATOM     22  C   UNL d   1     -54.759-100.827 -41.083  0.00  0.00     0.160 A 
ATOM     23  C   UNL d   1     -54.767-100.795 -40.276  0.00  0.00     0.298 A 
ATOM     24  N   UNL d   1     -54.816-101.482 -39.850  0.00  0.00    -0.209 N 
ATOM     25  O   UNL d   1     -54.726-100.089 -39.902  0.00  0.00    -0.263 OA
ATOM     26  N   UNL d   1     -54.857-102.191 -40.221  0.00  0.00    -0.238 N 
ATOM     27  C   UNL d   1     -54.849-102.220 -41.031  0.00  0.00     0.104 A 
ATOM     28  C   UNL d   1     -54.906-102.871 -39.799  0.00  0.00     0.120 C 
ATOM     29  C   UNL d   1     -54.883-102.866 -41.627  0.00  0.00     0.022 C 
BRANCH  24  30
ATOM     30  C   UNL d   1     -54.824-101.450 -39.041  0.00  0.00     0.085 A 
ATOM     31  C   UNL d   1     -54.719-102.125 -38.616  0.00  0.00     0.019 A 
ATOM     32  C   UNL d   1     -54.727-102.092 -37.809  0.00  0.00     0.002 A 
ATOM     33  C   UNL d   1     -54.840-101.381 -37.439  0.00  0.00     0.000 A 
ATOM     34  C   UNL d   1     -54.942-100.718 -37.879  0.00  0.00     0.002 A 
ATOM     35  C   UNL d   1     -54.934-100.754 -38.680  0.00  0.00     0.019 A 
ENDBRANCH  24  30
ENDBRANCH  20  22
ENDBRANCH   1  19
TORSDOF 6
ENDMDL
