MODEL 1
REMARK VINA RESULT:      -8.0      0.000      0.000
REMARK  3 active torsions:
REMARK  status: ('A' for Active; 'I' for Inactive)
REMARK    1  A    between atoms: C_10  and  C_3 
REMARK    2  A    between atoms: O_13  and  C_10 
REMARK    3  A    between atoms: C_12  and  O_13 
ROOT
ATOM      1  C   UNL d   1      53.280  33.514  54.219  0.00  0.00     0.002 A 
ATOM      2  C   UNL d   1      52.509  33.724  54.016  0.00  0.00     0.025 A 
ATOM      3  C   UNL d   1      53.660  32.888  53.815  0.00  0.00     0.000 A 
ATOM      4  C   UNL d   1      53.262  32.483  53.215  0.00  0.00     0.002 A 
ATOM      5  C   UNL d   1      52.113  33.322  53.420  0.00  0.00     0.100 A 
ATOM      6  C   UNL d   1      52.492  32.696  53.016  0.00  0.00     0.025 A 
ATOM      7  C   UNL d   1      53.678  33.912  54.812  0.00  0.00     0.000 A 
ATOM      8  C   UNL d   1      54.429  32.675  54.013  0.00  0.00     0.000 A 
ATOM      9  C   UNL d   1      54.447  33.706  55.018  0.00  0.00     0.000 A 
ATOM     10  C   UNL d   1      54.827  33.080  54.613  0.00  0.00     0.000 A 
ENDROOT
BRANCH   5  11
ATOM     11  O   UNL d   1      51.338  33.531  53.215  0.00  0.00    -0.304 OA
BRANCH  11  12
ATOM     12  C   UNL d   1      51.212  34.176  52.705  0.00  0.00     0.142 C 
BRANCH  12  13
ATOM     13  C   UNL d   1      50.445  34.390  52.490  0.00  0.00     0.115 A 
ATOM     14  N   UNL d   1      50.098  34.289  51.747  0.00  0.00    -0.217 NA
ATOM     15  C   UNL d   1      49.326  34.582  51.782  0.00  0.00     0.215 A 
ATOM     16  S   UNL d   1      49.199  34.865  52.553  0.00  0.00    -0.045 SA
ATOM     17  N   UNL d   1      48.785  34.590  51.162  0.00  0.00    -0.120 N 
ATOM     18  C   UNL d   1      49.886  34.748  52.991  0.00  0.00     0.060 A 
ENDBRANCH  12  13
ENDBRANCH  11  12
ENDBRANCH   5  11
TORSDOF 3
ENDMDL
MODEL 2
REMARK VINA RESULT:      -8.0      3.166      4.236
REMARK  3 active torsions:
REMARK  status: ('A' for Active; 'I' for Inactive)
REMARK    1  A    between atoms: C_10  and  C_3 
REMARK    2  A    between atoms: O_13  and  C_10 
REMARK    3  A    between atoms: C_12  and  O_13 
ROOT
ATOM      1  C   UNL d   1      53.202  33.910  53.894  0.00  0.00     0.002 A 
ATOM      2  C   UNL d   1      53.293  33.115  53.697  0.00  0.00     0.025 A 
ATOM      3  C   UNL d   1      53.594  34.218  54.565  0.00  0.00     0.000 A 
ATOM      4  C   UNL d   1      54.071  33.726  55.027  0.00  0.00     0.002 A 
ATOM      5  C   UNL d   1      53.766  32.624  54.155  0.00  0.00     0.100 A 
ATOM      6  C   UNL d   1      54.158  32.933  54.826  0.00  0.00     0.025 A 
ATOM      7  C   UNL d   1      52.731  34.401  53.440  0.00  0.00     0.000 A 
ATOM      8  C   UNL d   1      53.507  35.011  54.767  0.00  0.00     0.000 A 
ATOM      9  C   UNL d   1      52.638  35.195  53.634  0.00  0.00     0.000 A 
ATOM     10  C   UNL d   1      53.030  35.503  54.305  0.00  0.00     0.000 A 
ENDROOT
BRANCH   5  11
ATOM     11  O   UNL d   1      53.859  31.825  53.958  0.00  0.00    -0.304 OA
BRANCH  11  12
ATOM     12  C   UNL d   1      53.207  31.399  53.669  0.00  0.00     0.142 C 
BRANCH  12  13
ATOM     13  C   UNL d   1      53.199  30.576  53.710  0.00  0.00     0.115 A 
ATOM     14  N   UNL d   1      53.390  30.115  54.368  0.00  0.00    -0.217 NA
ATOM     15  C   UNL d   1      53.306  29.320  54.159  0.00  0.00     0.215 A 
ATOM     16  S   UNL d   1      53.060  29.293  53.365  0.00  0.00    -0.045 SA
ATOM     17  N   UNL d   1      53.442  28.675  54.652  0.00  0.00    -0.120 N 
ATOM     18  C   UNL d   1      52.993  30.065  53.086  0.00  0.00     0.060 A 
ENDBRANCH  12  13
ENDBRANCH  11  12
ENDBRANCH   5  11
TORSDOF 3
ENDMDL
MODEL 3
REMARK VINA RESULT:      -7.8      2.940      3.943
REMARK  3 active torsions:
REMARK  status: ('A' for Active; 'I' for Inactive)
REMARK    1  A    between atoms: C_10  and  C_3 
REMARK    2  A    between atoms: O_13  and  C_10 
REMARK    3  A    between atoms: C_12  and  O_13 
ROOT
ATOM      1  C   UNL d   1      52.945  34.008  54.093  0.00  0.00     0.002 A 
ATOM      2  C   UNL d   1      52.887  33.191  53.997  0.00  0.00     0.025 A 
ATOM      3  C   UNL d   1      52.615  34.517  53.518  0.00  0.00     0.000 A 
ATOM      4  C   UNL d   1      52.232  34.201  52.857  0.00  0.00     0.002 A 
ATOM      5  C   UNL d   1      52.507  32.875  53.341  0.00  0.00     0.100 A 
ATOM      6  C   UNL d   1      52.177  33.385  52.766  0.00  0.00     0.025 A 
ATOM      7  C   UNL d   1      53.323  34.325  54.745  0.00  0.00     0.000 A 
ATOM      8  C   UNL d   1      52.669  35.332  53.608  0.00  0.00     0.000 A 
ATOM      9  C   UNL d   1      53.383  35.139  54.844  0.00  0.00     0.000 A 
ATOM     10  C   UNL d   1      53.052  35.649  54.269  0.00  0.00     0.000 A 
ENDROOT
BRANCH   5  11
ATOM     11  O   UNL d   1      52.448  32.055  53.243  0.00  0.00    -0.304 OA
BRANCH  11  12
ATOM     12  C   UNL d   1      53.141  31.598  53.216  0.00  0.00     0.142 C 
BRANCH  12  13
ATOM     13  C   UNL d   1      53.106  30.784  53.347  0.00  0.00     0.115 A 
ATOM     14  N   UNL d   1      53.412  30.377  53.998  0.00  0.00    -0.217 NA
ATOM     15  C   UNL d   1      53.251  29.573  53.897  0.00  0.00     0.215 A 
ATOM     16  S   UNL d   1      52.842  29.486  53.179  0.00  0.00    -0.045 SA
ATOM     17  N   UNL d   1      53.459  28.971  54.418  0.00  0.00    -0.120 N 
ATOM     18  C   UNL d   1      52.752  30.230  52.837  0.00  0.00     0.060 A 
ENDBRANCH  12  13
ENDBRANCH  11  12
ENDBRANCH   5  11
TORSDOF 3
ENDMDL
MODEL 4
REMARK VINA RESULT:      -7.5      1.747      2.487
REMARK  3 active torsions:
REMARK  status: ('A' for Active; 'I' for Inactive)
REMARK    1  A    between atoms: C_10  and  C_3 
REMARK    2  A    between atoms: O_13  and  C_10 
REMARK    3  A    between atoms: C_12  and  O_13 
ROOT
ATOM      1  C   UNL d   1      52.813  30.669  53.234  0.00  0.00     0.002 A 
ATOM      2  C   UNL d   1      52.432  31.310  52.881  0.00  0.00     0.025 A 
ATOM      3  C   UNL d   1      53.515  30.792  53.670  0.00  0.00     0.000 A 
ATOM      4  C   UNL d   1      53.825  31.555  53.747  0.00  0.00     0.002 A 
ATOM      5  C   UNL d   1      52.739  32.068  52.957  0.00  0.00     0.100 A 
ATOM      6  C   UNL d   1      53.442  32.191  53.393  0.00  0.00     0.025 A 
ATOM      7  C   UNL d   1      52.510  29.913  53.161  0.00  0.00     0.000 A 
ATOM      8  C   UNL d   1      53.898  30.157  54.024  0.00  0.00     0.000 A 
ATOM      9  C   UNL d   1      52.886  29.271  53.510  0.00  0.00     0.000 A 
ATOM     10  C   UNL d   1      53.588  29.394  53.947  0.00  0.00     0.000 A 
ENDROOT
BRANCH   5  11
ATOM     11  O   UNL d   1      52.359  32.713  52.604  0.00  0.00    -0.304 OA
BRANCH  11  12
ATOM     12  C   UNL d   1      52.019  33.299  53.085  0.00  0.00     0.142 C 
BRANCH  12  13
ATOM     13  C   UNL d   1      51.405  33.768  52.796  0.00  0.00     0.115 A 
ATOM     14  N   UNL d   1      50.698  33.946  53.185  0.00  0.00    -0.217 NA
ATOM     15  C   UNL d   1      50.249  34.432  52.691  0.00  0.00     0.215 A 
ATOM     16  S   UNL d   1      50.683  34.555  51.994  0.00  0.00    -0.045 SA
ATOM     17  N   UNL d   1      49.504  34.738  52.864  0.00  0.00    -0.120 N 
ATOM     18  C   UNL d   1      51.396  34.147  52.055  0.00  0.00     0.060 A 
ENDBRANCH  12  13
ENDBRANCH  11  12
ENDBRANCH   5  11
TORSDOF 3
ENDMDL
MODEL 5
REMARK VINA RESULT:      -7.3      2.610      3.406
REMARK  3 active torsions:
REMARK  status: ('A' for Active; 'I' for Inactive)
REMARK    1  A    between atoms: C_10  and  C_3 
REMARK    2  A    between atoms: O_13  and  C_10 
REMARK    3  A    between atoms: C_12  and  O_13 
ROOT
ATOM      1  C   UNL d   1      53.302  30.378  54.074  0.00  0.00     0.002 A 
ATOM      2  C   UNL d   1      53.375  31.199  54.071  0.00  0.00     0.025 A 
ATOM      3  C   UNL d   1      53.001  29.986  53.400  0.00  0.00     0.000 A 
ATOM      4  C   UNL d   1      52.778  30.421  52.734  0.00  0.00     0.002 A 
ATOM      5  C   UNL d   1      53.153  31.633  53.410  0.00  0.00     0.100 A 
ATOM      6  C   UNL d   1      52.852  31.241  52.736  0.00  0.00     0.025 A 
ATOM      7  C   UNL d   1      53.522  29.942  54.730  0.00  0.00     0.000 A 
ATOM      8  C   UNL d   1      52.927  29.167  53.397  0.00  0.00     0.000 A 
ATOM      9  C   UNL d   1      53.451  29.123  54.738  0.00  0.00     0.000 A 
ATOM     10  C   UNL d   1      53.151  28.731  54.063  0.00  0.00     0.000 A 
ENDROOT
BRANCH   5  11
ATOM     11  O   UNL d   1      53.225  32.458  53.405  0.00  0.00    -0.304 OA
BRANCH  11  12
ATOM     12  C   UNL d   1      52.546  32.927  53.506  0.00  0.00     0.142 C 
BRANCH  12  13
ATOM     13  C   UNL d   1      52.615  33.745  53.584  0.00  0.00     0.115 A 
ATOM     14  N   UNL d   1      52.909  34.152  54.240  0.00  0.00    -0.217 NA
ATOM     15  C   UNL d   1      52.875  34.961  54.076  0.00  0.00     0.215 A 
ATOM     16  S   UNL d   1      52.557  35.051  53.313  0.00  0.00    -0.045 SA
ATOM     17  N   UNL d   1      53.114  35.566  54.581  0.00  0.00    -0.120 N 
ATOM     18  C   UNL d   1      52.396  34.303  53.008  0.00  0.00     0.060 A 
ENDBRANCH  12  13
ENDBRANCH  11  12
ENDBRANCH   5  11
TORSDOF 3
ENDMDL
MODEL 6
REMARK VINA RESULT:      -7.0      2.448      4.511
REMARK  3 active torsions:
REMARK  status: ('A' for Active; 'I' for Inactive)
REMARK    1  A    between atoms: C_10  and  C_3 
REMARK    2  A    between atoms: O_13  and  C_10 
REMARK    3  A    between atoms: C_12  and  O_13 
ROOT
ATOM      1  C   UNL d   1      50.447  34.537  52.867  0.00  0.00     0.002 A 
ATOM      2  C   UNL d   1      51.084  34.468  53.388  0.00  0.00     0.025 A 
ATOM      3  C   UNL d   1      50.542  34.320  52.066  0.00  0.00     0.000 A 
ATOM      4  C   UNL d   1      51.271  34.037  51.798  0.00  0.00     0.002 A 
ATOM      5  C   UNL d   1      51.808  34.187  53.123  0.00  0.00     0.100 A 
ATOM      6  C   UNL d   1      51.903  33.970  52.321  0.00  0.00     0.025 A 
ATOM      7  C   UNL d   1      49.724  34.816  53.128  0.00  0.00     0.000 A 
ATOM      8  C   UNL d   1      49.911  34.386  51.543  0.00  0.00     0.000 A 
ATOM      9  C   UNL d   1      49.088  34.886  52.612  0.00  0.00     0.000 A 
ATOM     10  C   UNL d   1      49.182  34.669  51.811  0.00  0.00     0.000 A 
ENDROOT
BRANCH   5  11
ATOM     11  O   UNL d   1      52.448  34.118  53.644  0.00  0.00    -0.304 OA
BRANCH  11  12
ATOM     12  C   UNL d   1      52.918  33.432  53.622  0.00  0.00     0.142 C 
BRANCH  12  13
ATOM     13  C   UNL d   1      53.520  33.324  54.175  0.00  0.00     0.115 A 
ATOM     14  N   UNL d   1      54.122  33.860  54.356  0.00  0.00    -0.217 NA
ATOM     15  C   UNL d   1      54.599  33.523  54.941  0.00  0.00     0.215 A 
ATOM     16  S   UNL d   1      54.286  32.774  55.120  0.00  0.00    -0.045 SA
ATOM     17  N   UNL d   1      55.263  33.870  55.281  0.00  0.00    -0.120 N 
ATOM     18  C   UNL d   1      53.621  32.649  54.651  0.00  0.00     0.060 A 
ENDBRANCH  12  13
ENDBRANCH  11  12
ENDBRANCH   5  11
TORSDOF 3
ENDMDL
MODEL 7
REMARK VINA RESULT:      -6.9      1.419      2.119
REMARK  3 active torsions:
REMARK  status: ('A' for Active; 'I' for Inactive)
REMARK    1  A    between atoms: C_10  and  C_3 
REMARK    2  A    between atoms: O_13  and  C_10 
REMARK    3  A    between atoms: C_12  and  O_13 
ROOT
ATOM      1  C   UNL d   1      51.884  34.353  53.170  0.00  0.00     0.002 A 
ATOM      2  C   UNL d   1      51.204  34.756  52.934  0.00  0.00     0.025 A 
ATOM      3  C   UNL d   1      51.844  33.534  53.334  0.00  0.00     0.000 A 
ATOM      4  C   UNL d   1      51.126  33.132  53.258  0.00  0.00     0.002 A 
ATOM      5  C   UNL d   1      50.490  34.358  52.859  0.00  0.00     0.100 A 
ATOM      6  C   UNL d   1      50.451  33.540  53.022  0.00  0.00     0.025 A 
ATOM      7  C   UNL d   1      52.597  34.746  53.246  0.00  0.00     0.000 A 
ATOM      8  C   UNL d   1      52.519  33.127  53.569  0.00  0.00     0.000 A 
ATOM      9  C   UNL d   1      53.277  34.348  53.481  0.00  0.00     0.000 A 
ATOM     10  C   UNL d   1      53.237  33.529  53.645  0.00  0.00     0.000 A 
ENDROOT
BRANCH   5  11
ATOM     11  O   UNL d   1      49.807  34.762  52.622  0.00  0.00    -0.304 OA
BRANCH  11  12
ATOM     12  C   UNL d   1      49.301  35.079  53.200  0.00  0.00     0.142 C 
BRANCH  12  13
ATOM     13  C   UNL d   1      48.631  35.505  52.976  0.00  0.00     0.115 A 
ATOM     14  N   UNL d   1      48.225  35.440  52.259  0.00  0.00    -0.217 NA
ATOM     15  C   UNL d   1      47.592  35.970  52.274  0.00  0.00     0.215 A 
ATOM     16  S   UNL d   1      47.609  36.364  53.005  0.00  0.00    -0.045 SA
ATOM     17  N   UNL d   1      47.044  36.084  51.669  0.00  0.00    -0.120 N 
ATOM     18  C   UNL d   1      48.248  36.080  53.440  0.00  0.00     0.060 A 
ENDBRANCH  12  13
ENDBRANCH  11  12
ENDBRANCH   5  11
TORSDOF 3
ENDMDL
MODEL 8
REMARK VINA RESULT:      -6.4      1.983      5.003
REMARK  3 active torsions:
REMARK  status: ('A' for Active; 'I' for Inactive)
REMARK    1  A    between atoms: C_10  and  C_3 
REMARK    2  A    between atoms: O_13  and  C_10 
REMARK    3  A    between atoms: C_12  and  O_13 
ROOT
ATOM      1  C   UNL d   1      48.441  35.566  52.710  0.00  0.00     0.002 A 
ATOM      2  C   UNL d   1      49.112  35.208  53.028  0.00  0.00     0.025 A 
ATOM      3  C   UNL d   1      48.203  35.383  51.930  0.00  0.00     0.000 A 
ATOM      4  C   UNL d   1      48.642  34.846  51.479  0.00  0.00     0.002 A 
ATOM      5  C   UNL d   1      49.548  34.674  52.582  0.00  0.00     0.100 A 
ATOM      6  C   UNL d   1      49.311  34.491  51.801  0.00  0.00     0.025 A 
ATOM      7  C   UNL d   1      48.004  36.098  53.151  0.00  0.00     0.000 A 
ATOM      8  C   UNL d   1      47.535  35.737  51.608  0.00  0.00     0.000 A 
ATOM      9  C   UNL d   1      47.334  36.457  52.838  0.00  0.00     0.000 A 
ATOM     10  C   UNL d   1      47.097  36.275  52.058  0.00  0.00     0.000 A 
ENDROOT
BRANCH   5  11
ATOM     11  O   UNL d   1      50.223  34.313  52.899  0.00  0.00    -0.304 OA
BRANCH  11  12
ATOM     12  C   UNL d   1      50.945  34.369  52.490  0.00  0.00     0.142 C 
BRANCH  12  13
ATOM     13  C   UNL d   1      51.634  34.063  52.823  0.00  0.00     0.115 A 
ATOM     14  N   UNL d   1      51.879  33.274  52.807  0.00  0.00    -0.217 NA
ATOM     15  C   UNL d   1      52.600  33.220  53.207  0.00  0.00     0.215 A 
ATOM     16  S   UNL d   1      52.799  33.983  53.471  0.00  0.00    -0.045 SA
ATOM     17  N   UNL d   1      53.037  32.532  53.321  0.00  0.00    -0.120 N 
ATOM     18  C   UNL d   1      52.206  34.504  53.236  0.00  0.00     0.060 A 
ENDBRANCH  12  13
ENDBRANCH  11  12
ENDBRANCH   5  11
TORSDOF 3
ENDMDL
MODEL 9
REMARK VINA RESULT:      -5.6      9.801     10.725
REMARK  3 active torsions:
REMARK  status: ('A' for Active; 'I' for Inactive)
REMARK    1  A    between atoms: C_10  and  C_3 
REMARK    2  A    between atoms: O_13  and  C_10 
REMARK    3  A    between atoms: C_12  and  O_13 
ROOT
ATOM      1  C   UNL d   1      44.519  29.917  57.577  0.00  0.00     0.002 A 
ATOM      2  C   UNL d   1      44.347  30.131  58.354  0.00  0.00     0.025 A 
ATOM      3  C   UNL d   1      44.885  29.182  57.420  0.00  0.00     0.000 A 
ATOM      4  C   UNL d   1      45.073  28.674  58.044  0.00  0.00     0.002 A 
ATOM      5  C   UNL d   1      44.534  29.627  58.975  0.00  0.00     0.100 A 
ATOM      6  C   UNL d   1      44.900  28.892  58.819  0.00  0.00     0.025 A 
ATOM      7  C   UNL d   1      44.334  30.417  56.956  0.00  0.00     0.000 A 
ATOM      8  C   UNL d   1      45.058  28.963  56.647  0.00  0.00     0.000 A 
ATOM      9  C   UNL d   1      44.504  30.207  56.180  0.00  0.00     0.000 A 
ATOM     10  C   UNL d   1      44.870  29.472  56.023  0.00  0.00     0.000 A 
ENDROOT
BRANCH   5  11
ATOM     11  O   UNL d   1      44.362  29.840  59.757  0.00  0.00    -0.304 OA
BRANCH  11  12
ATOM     12  C   UNL d   1      44.923  30.270  60.194  0.00  0.00     0.142 C 
BRANCH  12  13
ATOM     13  C   UNL d   1      44.744  30.531  60.955  0.00  0.00     0.115 A 
ATOM     14  N   UNL d   1      44.633  31.315  61.192  0.00  0.00    -0.217 NA
ATOM     15  C   UNL d   1      44.464  31.317  62.001  0.00  0.00     0.215 A 
ATOM     16  S   UNL d   1      44.471  30.529  62.263  0.00  0.00    -0.045 SA
ATOM     17  N   UNL d   1      44.316  31.985  62.460  0.00  0.00    -0.120 N 
ATOM     18  C   UNL d   1      44.643  30.042  61.621  0.00  0.00     0.060 A 
ENDBRANCH  12  13
ENDBRANCH  11  12
ENDBRANCH   5  11
TORSDOF 3
ENDMDL
