MODEL 1
REMARK VINA RESULT:      65.6      0.000      0.000
REMARK  4 active torsions:
REMARK  status: ('A' for Active; 'I' for Inactive)
REMARK    1  A    between atoms: N_2  and  S_1 
REMARK    2  A    between atoms: C_3  and  S_1 
REMARK    3  A    between atoms: C_17  and  N_4 
REMARK    4  A    between atoms: C_16  and  C_17 
ROOT
ATOM      1  N   UNL d   1      60.224  49.446  51.733  0.00  0.00    -0.226 N 
ATOM      2  N   UNL d   1      58.638  49.615  51.342  0.00  0.00    -0.300 N 
ATOM      3  C   UNL d   1      59.993  49.422  50.936  0.00  0.00     0.111 A 
ATOM      4  C   UNL d   1      59.663  49.554  52.328  0.00  0.00     0.111 A 
ATOM      5  C   UNL d   1      58.868  49.639  52.127  0.00  0.00     0.100 A 
ATOM      6  C   UNL d   1      59.186  49.508  50.744  0.00  0.00     0.100 A 
ENDROOT
BRANCH   1   7
ATOM      7  S   UNL d   1      61.019  49.361  51.921  0.00  0.00     0.272 S 
ATOM      8  O   UNL d   1      61.808  49.276  52.109  0.00  0.00    -0.200 OA
ATOM      9  O   UNL d   1      60.881  49.698  52.653  0.00  0.00    -0.200 OA
BRANCH   7  10
ATOM     10  C   UNL d   1      61.158  49.020  51.183  0.00  0.00     0.106 A 
ATOM     11  C   UNL d   1      61.190  49.505  50.505  0.00  0.00     0.043 A 
ATOM     12  C   UNL d   1      61.330  49.160  49.760  0.00  0.00     0.141 A 
ATOM     13  F   UNL d   1      61.363  49.634  49.086  0.00  0.00    -0.204 F 
ATOM     14  C   UNL d   1      61.437  48.335  49.699  0.00  0.00     0.030 A 
ATOM     15  C   UNL d   1      61.403  47.870  50.369  0.00  0.00     0.003 A 
ATOM     16  C   UNL d   1      61.263  48.214  51.115  0.00  0.00     0.013 A 
ENDBRANCH   7  10
ENDBRANCH   1   7
BRANCH   2  17
ATOM     17  C   UNL d   1      57.840  49.701  51.153  0.00  0.00     0.080 C 
BRANCH  17  18
ATOM     18  C   UNL d   1      57.512  49.260  50.540  0.00  0.00     0.020 A 
ATOM     19  C   UNL d   1      57.040  48.616  50.718  0.00  0.00     0.028 A 
ATOM     20  C   UNL d   1      56.706  48.166  50.111  0.00  0.00     0.119 A 
ATOM     21  O   UNL d   1      56.215  47.498  50.116  0.00  0.00    -0.300 OA
ATOM     22  C   UNL d   1      56.855  48.374  49.327  0.00  0.00     0.119 A 
ATOM     23  C   UNL d   1      56.060  47.294  49.327  0.00  0.00     0.304 A 
ATOM     24  O   UNL d   1      56.457  47.838  48.836  0.00  0.00    -0.300 OA
ATOM     25  C   UNL d   1      57.332  49.026  49.147  0.00  0.00     0.026 A 
ATOM     26  C   UNL d   1      57.661  49.468  49.756  0.00  0.00     0.004 A 
ENDBRANCH  17  18
ENDBRANCH   2  17
TORSDOF 4
ENDMDL
