MODEL 1
REMARK VINA RESULT:      -5.1      0.000      0.000
REMARK  3 active torsions:
REMARK  status: ('A' for Active; 'I' for Inactive)
REMARK    1  A    between atoms: C_2  and  S_1 
REMARK    2  A    between atoms: N_3  and  S_1 
REMARK    3  A    between atoms: N_4  and  C_6 
ROOT
ATOM      1  C   UNL d   1     -41.670-122.615 -53.416  0.00  0.00     0.116 A 
ATOM      2  C   UNL d   1     -41.961-122.074 -53.980  0.00  0.00     0.037 A 
ATOM      3  C   UNL d   1     -41.956-122.280 -54.771  0.00  0.00     0.127 A 
ATOM      4  C   UNL d   1     -41.377-123.357 -53.657  0.00  0.00     0.070 A 
ATOM      5  C   UNL d   1     -41.655-123.041 -55.016  0.00  0.00     0.024 A 
ATOM      6  C   UNL d   1     -41.376-123.556 -54.457  0.00  0.00     0.014 A 
ATOM      7 CL   UNL d   1     -41.123-123.816 -53.106  0.00  0.00    -0.082 Cl
ENDROOT
BRANCH   1   8
ATOM      8  S   UNL d   1     -41.677-122.399 -52.597  0.00  0.00     0.273 S 
ATOM      9  O   UNL d   1     -42.214-123.012 -52.435  0.00  0.00    -0.200 OA
ATOM     10  O   UNL d   1     -41.126-121.768 -52.754  0.00  0.00    -0.200 OA
BRANCH   8  11
ATOM     11  N   UNL d   1     -41.675-122.182 -51.810  0.00  0.00    -0.210 N 
ATOM     12  C   UNL d   1     -42.249-122.408 -51.199  0.00  0.00     0.193 A 
ATOM     13  N   UNL d   1     -41.994-122.039 -50.490  0.00  0.00    -0.222 NA
ATOM     14  C   UNL d   1     -41.290-121.602 -50.658  0.00  0.00     0.120 A 
ATOM     15  C   UNL d   1     -41.123-121.707 -51.459  0.00  0.00     0.114 A 
ENDBRANCH   8  11
ENDBRANCH   1   8
BRANCH   3  16
ATOM     16  N   UNL d   1     -42.242-121.746 -55.319  0.00  0.00    -0.114 N 
ATOM     17  O   UNL d   1     -42.962-121.777 -55.676  0.00  0.00    -0.532 OA
ATOM     18  O   UNL d   1     -41.811-121.093 -55.575  0.00  0.00    -0.532 OA
ENDBRANCH   3  16
TORSDOF 3
ENDMDL
MODEL 2
REMARK VINA RESULT:      -3.9      1.891      2.596
REMARK  3 active torsions:
REMARK  status: ('A' for Active; 'I' for Inactive)
REMARK    1  A    between atoms: C_2  and  S_1 
REMARK    2  A    between atoms: N_3  and  S_1 
REMARK    3  A    between atoms: N_4  and  C_6 
ROOT
ATOM      1  C   UNL d   1     -41.698-122.460 -51.321  0.00  0.00     0.116 A 
ATOM      2  C   UNL d   1     -41.767-122.954 -51.989  0.00  0.00     0.037 A 
ATOM      3  C   UNL d   1     -41.514-122.680 -52.717  0.00  0.00     0.127 A 
ATOM      4  C   UNL d   1     -41.375-121.695 -51.395  0.00  0.00     0.070 A 
ATOM      5  C   UNL d   1     -41.184-121.896 -52.790  0.00  0.00     0.024 A 
ATOM      6  C   UNL d   1     -41.123-121.427 -52.133  0.00  0.00     0.014 A 
ATOM      7 CL   UNL d   1     -41.332-121.282 -50.757  0.00  0.00    -0.082 Cl
ENDROOT
BRANCH   1   8
ATOM      8  S   UNL d   1     -41.960-122.746 -50.568  0.00  0.00     0.273 S 
ATOM      9  O   UNL d   1     -42.671-122.325 -50.650  0.00  0.00    -0.200 OA
ATOM     10  O   UNL d   1     -41.233-123.182 -50.475  0.00  0.00    -0.200 OA
BRANCH   8  11
ATOM     11  N   UNL d   1     -42.202-123.028 -49.841  0.00  0.00    -0.210 N 
ATOM     12  C   UNL d   1     -43.017-123.126 -49.558  0.00  0.00     0.193 A 
ATOM     13  N   UNL d   1     -42.959-123.434 -48.780  0.00  0.00    -0.222 NA
ATOM     14  C   UNL d   1     -42.139-123.522 -48.591  0.00  0.00     0.120 A 
ATOM     15  C   UNL d   1     -41.709-123.270 -49.248  0.00  0.00     0.114 A 
ENDBRANCH   8  11
ENDBRANCH   1   8
BRANCH   3  16
ATOM     16  N   UNL d   1     -41.585-123.169 -53.367  0.00  0.00    -0.114 N 
ATOM     17  O   UNL d   1     -41.134-123.817 -53.521  0.00  0.00    -0.532 OA
ATOM     18  O   UNL d   1     -42.145-123.049 -53.959  0.00  0.00    -0.532 OA
ENDBRANCH   3  16
TORSDOF 3
ENDMDL
MODEL 3
REMARK VINA RESULT:      -3.5      1.449      3.763
REMARK  3 active torsions:
REMARK  status: ('A' for Active; 'I' for Inactive)
REMARK    1  A    between atoms: C_2  and  S_1 
REMARK    2  A    between atoms: N_3  and  S_1 
REMARK    3  A    between atoms: N_4  and  C_6 
ROOT
ATOM      1  C   UNL d   1     -41.697-122.309 -51.899  0.00  0.00     0.116 A 
ATOM      2  C   UNL d   1     -41.992-122.927 -51.424  0.00  0.00     0.037 A 
ATOM      3  C   UNL d   1     -41.971-122.851 -50.610  0.00  0.00     0.127 A 
ATOM      4  C   UNL d   1     -41.384-121.621 -51.547  0.00  0.00     0.070 A 
ATOM      5  C   UNL d   1     -41.650-122.145 -50.252  0.00  0.00     0.024 A 
ATOM      6  C   UNL d   1     -41.367-121.553 -50.725  0.00  0.00     0.014 A 
ATOM      7 CL   UNL d   1     -41.127-121.084 -52.022  0.00  0.00    -0.082 Cl
ENDROOT
BRANCH   1   8
ATOM      8  S   UNL d   1     -41.720-122.390 -52.742  0.00  0.00     0.273 S 
ATOM      9  O   UNL d   1     -42.300-121.797 -52.788  0.00  0.00    -0.200 OA
ATOM     10  O   UNL d   1     -41.125-122.999 -52.704  0.00  0.00    -0.200 OA
BRANCH   8  11
ATOM     11  N   UNL d   1     -41.733-122.477 -53.554  0.00  0.00    -0.210 N 
ATOM     12  C   UNL d   1     -42.347-122.204 -54.103  0.00  0.00     0.193 A 
ATOM     13  N   UNL d   1     -42.094-122.432 -54.869  0.00  0.00    -0.222 NA
ATOM     14  C   UNL d   1     -41.351-122.831 -54.794  0.00  0.00     0.120 A 
ATOM     15  C   UNL d   1     -41.161-122.842 -53.992  0.00  0.00     0.114 A 
ENDBRANCH   8  11
ENDBRANCH   1   8
BRANCH   3  16
ATOM     16  N   UNL d   1     -42.262-123.460 -50.150  0.00  0.00    -0.114 N 
ATOM     17  O   UNL d   1     -41.880-123.810 -49.535  0.00  0.00    -0.532 OA
ATOM     18  O   UNL d   1     -43.004-123.796 -50.270  0.00  0.00    -0.532 OA
ENDBRANCH   3  16
TORSDOF 3
ENDMDL
