MODEL 1
REMARK VINA RESULT:      73.8      0.000      0.000
REMARK  5 active torsions:
REMARK  status: ('A' for Active; 'I' for Inactive)
REMARK    1  A    between atoms: C_3  and  C_1 
REMARK    2  A    between atoms: C_5  and  C_3 
REMARK    3  A    between atoms: N_8  and  C_5 
REMARK    4  A    between atoms: C_19  and  N_11 
REMARK    5  A    between atoms: C_18  and  C_19 
ROOT
ATOM      1  C   UNL d   1     -55.418-100.992 -42.096  0.00  0.00     0.110 C 
ATOM      2  C   UNL d   1     -55.955-101.613 -42.021  0.00  0.00     0.105 C 
ATOM      3  N   UNL d   1     -56.492-102.225 -41.956  0.00  0.00    -0.191 NA
ENDROOT
BRANCH   1   4
ATOM      4  C   UNL d   1     -55.454-100.490 -42.750  0.00  0.00     0.122 A 
ATOM      5  N   UNL d   1     -56.138-100.264 -43.153  0.00  0.00    -0.238 NA
ATOM      6  C   UNL d   1     -55.920 -99.758 -43.771  0.00  0.00     0.088 A 
ATOM      7  C   UNL d   1     -56.362 -99.369 -44.346  0.00  0.00     0.020 A 
ATOM      8  C   UNL d   1     -55.100 -99.672 -43.750  0.00  0.00     0.049 A 
ATOM      9  C   UNL d   1     -55.975 -98.891 -44.900  0.00  0.00     0.002 A 
ATOM     10  C   UNL d   1     -55.154 -98.804 -44.879  0.00  0.00     0.001 A 
ATOM     11  C   UNL d   1     -54.714 -99.194 -44.303  0.00  0.00     0.008 A 
ATOM     12  S   UNL d   1     -54.809-100.124 -43.118  0.00  0.00    -0.066 SA
ENDBRANCH   1   4
BRANCH   1  13
ATOM     13  C   UNL d   1     -54.846-100.874 -41.516  0.00  0.00     0.093 C 
BRANCH  13  14
ATOM     14  N   UNL d   1     -54.812-101.373 -40.860  0.00  0.00    -0.299 N 
ATOM     15  C   UNL d   1     -54.749-101.052 -40.106  0.00  0.00     0.100 A 
ATOM     16  C   UNL d   1     -54.715-101.554 -39.447  0.00  0.00     0.100 A 
ATOM     17  N   UNL d   1     -54.746-102.377 -39.552  0.00  0.00    -0.300 N 
ATOM     18  C   UNL d   1     -54.810-102.692 -40.312  0.00  0.00     0.100 A 
ATOM     19  C   UNL d   1     -54.843-102.195 -40.965  0.00  0.00     0.100 A 
BRANCH  17  20
ATOM     20  C   UNL d   1     -54.713-102.879 -38.898  0.00  0.00     0.080 C 
BRANCH  20  21
ATOM     21  C   UNL d   1     -55.057-102.653 -38.188  0.00  0.00     0.020 A 
ATOM     22  C   UNL d   1     -54.712-102.874 -37.481  0.00  0.00     0.028 A 
ATOM     23  C   UNL d   1     -55.054-102.649 -36.767  0.00  0.00     0.119 A 
ATOM     24  O   UNL d   1     -54.829-102.793 -35.982  0.00  0.00    -0.300 OA
ATOM     25  C   UNL d   1     -55.745-102.200 -36.766  0.00  0.00     0.119 A 
ATOM     26  C   UNL d   1     -55.390-102.426 -35.493  0.00  0.00     0.304 A 
ATOM     27  O   UNL d   1     -55.952-102.062 -35.976  0.00  0.00    -0.300 OA
ATOM     28  C   UNL d   1     -56.093-101.977 -37.480  0.00  0.00     0.026 A 
ATOM     29  C   UNL d   1     -55.748-102.204 -38.197  0.00  0.00     0.004 A 
ENDBRANCH  20  21
ENDBRANCH  17  20
ENDBRANCH  13  14
ENDBRANCH   1  13
TORSDOF 5
ENDMDL
