MODEL 1
REMARK VINA RESULT:      -9.2      0.000      0.000
REMARK  2 active torsions:
REMARK  status: ('A' for Active; 'I' for Inactive)
REMARK    1  A    between atoms: C_2  and  S_1 
REMARK    2  A    between atoms: N_3  and  S_1 
ROOT
ATOM      1  S   UNL d   1      53.596  32.257  54.088  0.00  0.00     0.272 S 
ATOM      2  O   UNL d   1      53.654  31.558  54.520  0.00  0.00    -0.200 OA
ATOM      3  O   UNL d   1      53.294  32.240  53.318  0.00  0.00    -0.200 OA
ENDROOT
BRANCH   1   4
ATOM      4  C   UNL d   1      53.354  31.545  53.752  0.00  0.00     0.115 A 
ATOM      5  C   UNL d   1      52.950  31.550  53.042  0.00  0.00     0.071 A 
ATOM      6  C   UNL d   1      52.707  30.845  52.701  0.00  0.00     0.024 A 
ATOM      7 CL   UNL d   1      52.778  32.257  52.651  0.00  0.00    -0.082 Cl
ATOM      8  C   UNL d   1      52.870  30.126  53.077  0.00  0.00     0.059 A 
ATOM      9  C   UNL d   1      53.279  30.129  53.794  0.00  0.00     0.011 A 
ATOM     10 CL   UNL d   1      52.627  29.416  52.737  0.00  0.00    -0.082 Cl
ATOM     11  C   UNL d   1      53.522  30.835  54.133  0.00  0.00     0.015 A 
ATOM     12  C   UNL d   1      53.441  29.410  54.167  0.00  0.00     0.001 C 
ENDBRANCH   1   4
BRANCH   1  13
ATOM     13  N   UNL d   1      53.837  32.971  54.421  0.00  0.00    -0.229 N 
ATOM     14  C   UNL d   1      54.683  33.027  54.516  0.00  0.00     0.092 A 
ATOM     15  C   UNL d   1      55.127  33.532  54.774  0.00  0.00     0.020 A 
ATOM     16  C   UNL d   1      54.906  34.274  55.081  0.00  0.00     0.002 A 
ATOM     17  C   UNL d   1      54.090  34.585  55.149  0.00  0.00     0.002 A 
ATOM     18  C   UNL d   1      53.333  34.192  54.915  0.00  0.00     0.020 A 
ATOM     19  C   UNL d   1      53.263  33.423  54.572  0.00  0.00     0.092 A 
ENDBRANCH   1  13
TORSDOF 2
ENDMDL
MODEL 2
REMARK VINA RESULT:      -9.2      2.554      3.739
REMARK  2 active torsions:
REMARK  status: ('A' for Active; 'I' for Inactive)
REMARK    1  A    between atoms: C_2  and  S_1 
REMARK    2  A    between atoms: N_3  and  S_1 
ROOT
ATOM      1  S   UNL d   1      52.253  33.987  53.464  0.00  0.00     0.272 S 
ATOM      2  O   UNL d   1      52.415  33.232  53.752  0.00  0.00    -0.200 OA
ATOM      3  O   UNL d   1      52.744  34.619  53.669  0.00  0.00    -0.200 OA
ENDROOT
BRANCH   1   4
ATOM      4  C   UNL d   1      52.903  33.865  53.954  0.00  0.00     0.115 A 
ATOM      5  C   UNL d   1      53.281  34.507  54.289  0.00  0.00     0.071 A 
ATOM      6  C   UNL d   1      53.930  34.394  54.779  0.00  0.00     0.024 A 
ATOM      7 CL   UNL d   1      53.025  35.279  54.147  0.00  0.00    -0.082 Cl
ATOM      8  C   UNL d   1      54.202  33.627  54.934  0.00  0.00     0.059 A 
ATOM      9  C   UNL d   1      53.814  32.984  54.592  0.00  0.00     0.011 A 
ATOM     10 CL   UNL d   1      54.853  33.511  55.425  0.00  0.00    -0.082 Cl
ATOM     11  C   UNL d   1      53.166  33.100  54.103  0.00  0.00     0.015 A 
ATOM     12  C   UNL d   1      54.088  32.221  54.748  0.00  0.00     0.001 C 
ENDBRANCH   1   4
BRANCH   1  13
ATOM     13  N   UNL d   1      51.603  34.112  52.973  0.00  0.00    -0.229 N 
ATOM     14  C   UNL d   1      50.872  34.202  53.403  0.00  0.00     0.092 A 
ATOM     15  C   UNL d   1      50.187  34.317  53.212  0.00  0.00     0.020 A 
ATOM     16  C   UNL d   1      49.899  34.402  52.435  0.00  0.00     0.002 A 
ATOM     17  C   UNL d   1      50.373  34.367  51.700  0.00  0.00     0.002 A 
ATOM     18  C   UNL d   1      51.244  34.237  51.615  0.00  0.00     0.020 A 
ATOM     19  C   UNL d   1      51.788  34.121  52.251  0.00  0.00     0.092 A 
ENDBRANCH   1  13
TORSDOF 2
ENDMDL
MODEL 3
REMARK VINA RESULT:      -9.0      1.796      2.447
REMARK  2 active torsions:
REMARK  status: ('A' for Active; 'I' for Inactive)
REMARK    1  A    between atoms: C_2  and  S_1 
REMARK    2  A    between atoms: N_3  and  S_1 
ROOT
ATOM      1  S   UNL d   1      52.451  32.445  53.130  0.00  0.00     0.272 S 
ATOM      2  O   UNL d   1      52.464  31.847  52.563  0.00  0.00    -0.200 OA
ATOM      3  O   UNL d   1      52.844  32.336  53.850  0.00  0.00    -0.200 OA
ENDROOT
BRANCH   1   4
ATOM      4  C   UNL d   1      52.854  31.742  53.282  0.00  0.00     0.115 A 
ATOM      5  C   UNL d   1      53.516  31.752  53.760  0.00  0.00     0.071 A 
ATOM      6  C   UNL d   1      53.922  31.057  53.916  0.00  0.00     0.024 A 
ATOM      7 CL   UNL d   1      53.793  32.453  54.098  0.00  0.00    -0.082 Cl
ATOM      8  C   UNL d   1      53.660  30.342  53.587  0.00  0.00     0.059 A 
ATOM      9  C   UNL d   1      52.991  30.342  53.105  0.00  0.00     0.011 A 
ATOM     10 CL   UNL d   1      54.066  29.642  53.741  0.00  0.00    -0.082 Cl
ATOM     11  C   UNL d   1      52.587  31.039  52.951  0.00  0.00     0.015 A 
ATOM     12  C   UNL d   1      52.732  29.629  52.778  0.00  0.00     0.001 C 
ENDBRANCH   1   4
BRANCH   1  13
ATOM     13  N   UNL d   1      52.050  33.149  52.982  0.00  0.00    -0.229 N 
ATOM     14  C   UNL d   1      51.241  33.135  53.254  0.00  0.00     0.092 A 
ATOM     15  C   UNL d   1      50.699  33.610  53.243  0.00  0.00     0.020 A 
ATOM     16  C   UNL d   1      50.724  34.381  52.928  0.00  0.00     0.002 A 
ATOM     17  C   UNL d   1      51.415  34.764  52.549  0.00  0.00     0.002 A 
ATOM     18  C   UNL d   1      52.223  34.429  52.417  0.00  0.00     0.020 A 
ATOM     19  C   UNL d   1      52.477  33.655  52.641  0.00  0.00     0.092 A 
ENDBRANCH   1  13
TORSDOF 2
ENDMDL
MODEL 4
REMARK VINA RESULT:      -8.9      1.466      3.716
REMARK  2 active torsions:
REMARK  status: ('A' for Active; 'I' for Inactive)
REMARK    1  A    between atoms: C_2  and  S_1 
REMARK    2  A    between atoms: N_3  and  S_1 
ROOT
ATOM      1  S   UNL d   1      53.179  32.257  53.792  0.00  0.00     0.272 S 
ATOM      2  O   UNL d   1      52.466  32.668  53.772  0.00  0.00    -0.200 OA
ATOM      3  O   UNL d   1      53.887  32.669  53.907  0.00  0.00    -0.200 OA
ENDROOT
BRANCH   1   4
ATOM      4  C   UNL d   1      53.174  33.075  53.886  0.00  0.00     0.115 A 
ATOM      5  C   UNL d   1      53.776  33.438  54.302  0.00  0.00     0.071 A 
ATOM      6  C   UNL d   1      53.777  34.252  54.400  0.00  0.00     0.024 A 
ATOM      7 CL   UNL d   1      54.393  33.001  54.633  0.00  0.00    -0.082 Cl
ATOM      8  C   UNL d   1      53.166  34.708  54.076  0.00  0.00     0.059 A 
ATOM      9  C   UNL d   1      52.562  34.334  53.657  0.00  0.00     0.011 A 
ATOM     10 CL   UNL d   1      53.165  35.527  54.173  0.00  0.00    -0.082 Cl
ATOM     11  C   UNL d   1      52.563  33.520  53.561  0.00  0.00     0.015 A 
ATOM     12  C   UNL d   1      51.954  34.792  53.335  0.00  0.00     0.001 C 
ENDBRANCH   1   4
BRANCH   1  13
ATOM     13  N   UNL d   1      53.189  31.438  53.698  0.00  0.00    -0.229 N 
ATOM     14  C   UNL d   1      53.021  31.192  52.899  0.00  0.00     0.092 A 
ATOM     15  C   UNL d   1      52.972  30.553  52.570  0.00  0.00     0.020 A 
ATOM     16  C   UNL d   1      53.078  29.806  52.924  0.00  0.00     0.002 A 
ATOM     17  C   UNL d   1      53.269  29.653  53.764  0.00  0.00     0.002 A 
ATOM     18  C   UNL d   1      53.391  30.241  54.414  0.00  0.00     0.020 A 
ATOM     19  C   UNL d   1      53.342  31.081  54.334  0.00  0.00     0.092 A 
ENDBRANCH   1  13
TORSDOF 2
ENDMDL
MODEL 5
REMARK VINA RESULT:      -8.4      2.379      3.018
REMARK  2 active torsions:
REMARK  status: ('A' for Active; 'I' for Inactive)
REMARK    1  A    between atoms: C_2  and  S_1 
REMARK    2  A    between atoms: N_3  and  S_1 
ROOT
ATOM      1  S   UNL d   1      52.890  33.710  53.679  0.00  0.00     0.272 S 
ATOM      2  O   UNL d   1      52.297  33.139  53.710  0.00  0.00    -0.200 OA
ATOM      3  O   UNL d   1      52.751  34.425  53.287  0.00  0.00    -0.200 OA
ENDROOT
BRANCH   1   4
ATOM      4  C   UNL d   1      52.162  33.853  53.320  0.00  0.00     0.115 A 
ATOM      5  C   UNL d   1      52.079  34.490  52.816  0.00  0.00     0.071 A 
ATOM      6  C   UNL d   1      51.358  34.639  52.455  0.00  0.00     0.024 A 
ATOM      7 CL   UNL d   1      52.711  34.997  52.656  0.00  0.00    -0.082 Cl
ATOM      8  C   UNL d   1      50.711  34.142  52.603  0.00  0.00     0.059 A 
ATOM      9  C   UNL d   1      50.804  33.501  53.113  0.00  0.00     0.011 A 
ATOM     10 CL   UNL d   1      49.985  34.289  52.241  0.00  0.00    -0.082 Cl
ATOM     11  C   UNL d   1      51.526  33.354  53.473  0.00  0.00     0.015 A 
ATOM     12  C   UNL d   1      50.158  33.007  53.258  0.00  0.00     0.001 C 
ENDBRANCH   1   4
BRANCH   1  13
ATOM     13  N   UNL d   1      53.619  33.571  54.036  0.00  0.00    -0.229 N 
ATOM     14  C   UNL d   1      53.686  33.928  54.808  0.00  0.00     0.092 A 
ATOM     15  C   UNL d   1      54.204  33.952  55.307  0.00  0.00     0.020 A 
ATOM     16  C   UNL d   1      54.957  33.597  55.256  0.00  0.00     0.002 A 
ATOM     17  C   UNL d   1      55.262  33.126  54.584  0.00  0.00     0.002 A 
ATOM     18  C   UNL d   1      54.854  32.924  53.825  0.00  0.00     0.020 A 
ATOM     19  C   UNL d   1      54.071  33.159  53.611  0.00  0.00     0.092 A 
ENDBRANCH   1  13
TORSDOF 2
ENDMDL
