MODEL 1
REMARK VINA RESULT:      13.7      0.000      0.000
REMARK  2 active torsions:
REMARK  status: ('A' for Active; 'I' for Inactive)
REMARK    1  A    between atoms: C_6  and  N_1 
REMARK    2  A    between atoms: C_14  and  C_13 
ROOT
ATOM      1  C   UNL d   1      58.159  49.702  50.482  0.00  0.00     0.070 A 
ATOM      2  C   UNL d   1      58.688  49.696  49.849  0.00  0.00     0.018 A 
ATOM      3  C   UNL d   1      58.443  49.707  51.257  0.00  0.00     0.018 A 
ATOM      4  C   UNL d   1      59.506  49.695  49.989  0.00  0.00     0.002 A 
ATOM      5  C   UNL d   1      59.257  49.706  51.403  0.00  0.00     0.002 A 
ATOM      6  C   UNL d   1      59.789  49.700  50.764  0.00  0.00     0.000 A 
ENDROOT
BRANCH   1   7
ATOM      7  N   UNL d   1      57.354  49.703  50.333  0.00  0.00    -0.242 N 
ATOM      8  C   UNL d   1      56.762  49.703  50.907  0.00  0.00     0.267 A 
ATOM      9  C   UNL d   1      56.036  49.705  50.514  0.00  0.00     0.066 A 
ATOM     10  O   UNL d   1      56.877  49.702  51.722  0.00  0.00    -0.267 OA
ATOM     11  C   UNL d   1      56.175  49.705  49.707  0.00  0.00     0.066 A 
ATOM     12  C   UNL d   1      56.990  49.704  49.593  0.00  0.00     0.267 A 
ATOM     13  O   UNL d   1      57.376  49.705  48.859  0.00  0.00    -0.267 OA
ENDBRANCH   1   7
BRANCH   6  14
ATOM     14  C   UNL d   1      60.599  49.699  50.911  0.00  0.00     0.000 C 
ATOM     15  C   UNL d   1      60.867  49.680  51.694  0.00  0.00     0.000 C 
ENDBRANCH   6  14
TORSDOF 2
ENDMDL
MODEL 2
REMARK VINA RESULT:      14.1      1.311      3.170
REMARK  2 active torsions:
REMARK  status: ('A' for Active; 'I' for Inactive)
REMARK    1  A    between atoms: C_6  and  N_1 
REMARK    2  A    between atoms: C_14  and  C_13 
ROOT
ATOM      1  C   UNL d   1      58.871  49.707  50.731  0.00  0.00     0.070 A 
ATOM      2  C   UNL d   1      58.583  49.707  49.958  0.00  0.00     0.018 A 
ATOM      3  C   UNL d   1      58.346  49.707  51.367  0.00  0.00     0.018 A 
ATOM      4  C   UNL d   1      57.765  49.707  49.818  0.00  0.00     0.002 A 
ATOM      5  C   UNL d   1      57.530  49.707  51.234  0.00  0.00     0.002 A 
ATOM      6  C   UNL d   1      57.240  49.707  50.454  0.00  0.00     0.000 A 
ENDROOT
BRANCH   1   7
ATOM      7  N   UNL d   1      59.681  49.707  50.858  0.00  0.00    -0.242 N 
ATOM      8  C   UNL d   1      60.048  49.707  51.596  0.00  0.00     0.267 A 
ATOM      9  C   UNL d   1      60.863  49.707  51.467  0.00  0.00     0.066 A 
ATOM     10  O   UNL d   1      59.669  49.708  52.327  0.00  0.00    -0.267 OA
ATOM     11  C   UNL d   1      61.001  49.707  50.659  0.00  0.00     0.066 A 
ATOM     12  C   UNL d   1      60.270  49.707  50.280  0.00  0.00     0.267 A 
ATOM     13  O   UNL d   1      60.150  49.706  49.461  0.00  0.00    -0.267 OA
ENDBRANCH   1   7
BRANCH   6  14
ATOM     14  C   UNL d   1      56.428  49.706  50.325  0.00  0.00     0.000 C 
ATOM     15  C   UNL d   1      56.142  49.670  49.549  0.00  0.00     0.000 C 
ENDBRANCH   6  14
TORSDOF 2
ENDMDL
MODEL 3
REMARK VINA RESULT:      14.5      0.160      1.215
REMARK  2 active torsions:
REMARK  status: ('A' for Active; 'I' for Inactive)
REMARK    1  A    between atoms: C_6  and  N_1 
REMARK    2  A    between atoms: C_14  and  C_13 
ROOT
ATOM      1  C   UNL d   1      58.297  49.700  50.480  0.00  0.00     0.070 A 
ATOM      2  C   UNL d   1      58.851  49.708  49.870  0.00  0.00     0.018 A 
ATOM      3  C   UNL d   1      58.548  49.692  51.265  0.00  0.00     0.018 A 
ATOM      4  C   UNL d   1      59.662  49.707  50.043  0.00  0.00     0.002 A 
ATOM      5  C   UNL d   1      59.355  49.692  51.445  0.00  0.00     0.002 A 
ATOM      6  C   UNL d   1      59.914  49.700  50.828  0.00  0.00     0.000 A 
ENDROOT
BRANCH   1   7
ATOM      7  N   UNL d   1      57.498  49.701  50.297  0.00  0.00    -0.242 N 
ATOM      8  C   UNL d   1      57.183  49.698  49.536  0.00  0.00     0.267 A 
ATOM      9  C   UNL d   1      56.360  49.700  49.609  0.00  0.00     0.066 A 
ATOM     10  O   UNL d   1      57.611  49.695  48.832  0.00  0.00    -0.267 OA
ATOM     11  C   UNL d   1      56.168  49.703  50.405  0.00  0.00     0.066 A 
ATOM     12  C   UNL d   1      56.871  49.704  50.833  0.00  0.00     0.267 A 
ATOM     13  O   UNL d   1      56.934  49.707  51.659  0.00  0.00    -0.267 OA
ENDBRANCH   1   7
BRANCH   6  14
ATOM     14  C   UNL d   1      60.716  49.699  51.009  0.00  0.00     0.000 C 
ATOM     15  C   UNL d   1      60.954  49.581  51.793  0.00  0.00     0.000 C 
ENDBRANCH   6  14
TORSDOF 2
ENDMDL
