MODEL 1
REMARK VINA RESULT:      26.7      0.000      0.000
REMARK  4 active torsions:
REMARK  status: ('A' for Active; 'I' for Inactive)
REMARK       I    between atoms: C_2  and  N_1 
REMARK    1  A    between atoms: C_7  and  N_1 
REMARK    2  A    between atoms: C_5  and  C_2 
REMARK    3  A    between atoms: C_3  and  C_6 
REMARK    4  A    between atoms: C_6  and  C_5 
ROOT
ATOM      1  N   UNL d   1     -51.987  25.175  33.313  0.00  0.00    -0.208 NA
ATOM      2  C   UNL d   1     -52.213  25.960  33.366  0.00  0.00     0.279 C 
ATOM      3  O   UNL d   1     -53.008  26.153  33.475  0.00  0.00    -0.265 OA
ENDROOT
BRANCH   2   4
ATOM      4  C   UNL d   1     -51.652  26.560  33.310  0.00  0.00     0.063 C 
BRANCH   4   5
ATOM      5  C   UNL d   1     -51.132  26.702  33.934  0.00  0.00     0.011 C 
BRANCH   5   6
ATOM      6  C   UNL d   1     -50.319  26.630  33.822  0.00  0.00     0.030 A 
ATOM      7  S   UNL d   1     -49.859  26.152  33.316  0.00  0.00    -0.086 SA
ATOM      8  C   UNL d   1     -49.056  26.324  33.450  0.00  0.00     0.035 A 
ATOM      9  C   UNL d   1     -49.009  26.910  34.039  0.00  0.00     0.007 A 
ATOM     10  C   UNL d   1     -49.794  27.103  34.272  0.00  0.00     0.007 A 
ENDBRANCH   5   6
ENDBRANCH   4   5
ENDBRANCH   2   4
BRANCH   1  11
ATOM     11  C   UNL d   1     -52.550  24.575  33.368  0.00  0.00     0.085 A 
ATOM     12  C   UNL d   1     -52.310  23.802  33.424  0.00  0.00     0.018 A 
ATOM     13  C   UNL d   1     -51.508  23.612  33.426  0.00  0.00     0.002 C 
ATOM     14  C   UNL d   1     -52.868  23.191  33.480  0.00  0.00     0.002 A 
ATOM     15  C   UNL d   1     -53.674  23.377  33.479  0.00  0.00     0.000 A 
ATOM     16  C   UNL d   1     -53.921  24.162  33.422  0.00  0.00     0.002 A 
ATOM     17  C   UNL d   1     -53.360  24.762  33.367  0.00  0.00     0.019 A 
ENDBRANCH   1  11
TORSDOF 4
ENDMDL
