MODEL 1
REMARK VINA RESULT:      -5.9      0.000      0.000
REMARK  1 active torsions:
REMARK  status: ('A' for Active; 'I' for Inactive)
REMARK    1  A    between atoms: C_9  and  C_2 
ROOT
ATOM      1  N   UNL d   1     -42.252-121.851 -54.382  0.00  0.00    -0.204 NA
ATOM      2  C   UNL d   1     -41.875-122.377 -53.867  0.00  0.00     0.107 A 
ATOM      3  C   UNL d   1     -42.254-122.003 -55.201  0.00  0.00     0.304 A 
ATOM      4  C   UNL d   1     -41.495-122.755 -52.540  0.00  0.00     0.020 A 
ATOM      5  O   UNL d   1     -41.501-123.207 -54.980  0.00  0.00    -0.299 OA
ATOM      6  C   UNL d   1     -41.873-122.228 -53.063  0.00  0.00     0.023 A 
ATOM      7  C   UNL d   1     -41.499-123.055 -54.161  0.00  0.00     0.118 A 
ATOM      8  O   UNL d   1     -42.628-121.481 -55.717  0.00  0.00    -0.263 OA
ATOM      9  C   UNL d   1     -41.123-123.427 -52.835  0.00  0.00     0.004 A 
ATOM     10  C   UNL d   1     -41.880-122.679 -55.497  0.00  0.00     0.185 A 
ATOM     11  C   UNL d   1     -41.125-123.577 -53.643  0.00  0.00     0.026 A 
ENDROOT
BRANCH   4  12
ATOM     12  C   UNL d   1     -41.497-122.598 -51.730  0.00  0.00     0.090 A 
ATOM     13  N   UNL d   1     -41.882-123.055 -51.161  0.00  0.00    -0.219 NA
ATOM     14  C   UNL d   1     -41.741-122.702 -50.425  0.00  0.00     0.215 A 
ATOM     15  S   UNL d   1     -41.274-122.034 -50.545  0.00  0.00    -0.045 SA
ATOM     16  N   UNL d   1     -42.023-122.975 -49.694  0.00  0.00    -0.120 N 
ATOM     17  C   UNL d   1     -41.123-121.970 -51.356  0.00  0.00     0.058 A 
ENDBRANCH   4  12
TORSDOF 1
ENDMDL
MODEL 2
REMARK VINA RESULT:      -5.5      1.450      2.192
REMARK  1 active torsions:
REMARK  status: ('A' for Active; 'I' for Inactive)
REMARK    1  A    between atoms: C_9  and  C_2 
ROOT
ATOM      1  N   UNL d   1     -41.515-123.574 -52.791  0.00  0.00    -0.204 NA
ATOM      2  C   UNL d   1     -41.461-123.057 -52.149  0.00  0.00     0.107 A 
ATOM      3  C   UNL d   1     -41.373-123.294 -53.563  0.00  0.00     0.304 A 
ATOM      4  C   UNL d   1     -41.549-122.813 -50.741  0.00  0.00     0.020 A 
ATOM      5  O   UNL d   1     -41.124-121.979 -53.040  0.00  0.00    -0.299 OA
ATOM      6  C   UNL d   1     -41.601-123.331 -51.392  0.00  0.00     0.023 A 
ATOM      7  C   UNL d   1     -41.266-122.259 -52.268  0.00  0.00     0.118 A 
ATOM      8  O   UNL d   1     -41.425-123.807 -54.205  0.00  0.00    -0.263 OA
ATOM      9  C   UNL d   1     -41.355-122.022 -50.863  0.00  0.00     0.004 A 
ATOM     10  C   UNL d   1     -41.178-122.499 -53.684  0.00  0.00     0.185 A 
ATOM     11  C   UNL d   1     -41.214-121.746 -51.623  0.00  0.00     0.026 A 
ENDROOT
BRANCH   4  12
ATOM     12  C   UNL d   1     -41.691-123.098 -49.980  0.00  0.00     0.090 A 
ATOM     13  N   UNL d   1     -42.438-123.223 -49.654  0.00  0.00    -0.219 NA
ATOM     14  C   UNL d   1     -42.327-123.509 -48.885  0.00  0.00     0.215 A 
ATOM     15  S   UNL d   1     -41.517-123.558 -48.743  0.00  0.00    -0.045 SA
ATOM     16  N   UNL d   1     -42.929-123.712 -48.351  0.00  0.00    -0.120 N 
ATOM     17  C   UNL d   1     -41.123-123.302 -49.424  0.00  0.00     0.058 A 
ENDBRANCH   4  12
TORSDOF 1
ENDMDL
MODEL 3
REMARK VINA RESULT:      -5.2      2.209      3.981
REMARK  1 active torsions:
REMARK  status: ('A' for Active; 'I' for Inactive)
REMARK    1  A    between atoms: C_9  and  C_2 
ROOT
ATOM      1  N   UNL d   1     -42.235-123.371 -50.733  0.00  0.00    -0.204 NA
ATOM      2  C   UNL d   1     -41.870-122.816 -51.227  0.00  0.00     0.107 A 
ATOM      3  C   UNL d   1     -42.216-123.267 -49.907  0.00  0.00     0.304 A 
ATOM      4  C   UNL d   1     -41.523-122.362 -52.539  0.00  0.00     0.020 A 
ATOM      5  O   UNL d   1     -41.466-122.053 -50.077  0.00  0.00    -0.299 OA
ATOM      6  C   UNL d   1     -41.889-122.918 -52.037  0.00  0.00     0.023 A 
ATOM      7  C   UNL d   1     -41.485-122.157 -50.903  0.00  0.00     0.118 A 
ATOM      8  O   UNL d   1     -42.579-123.817 -49.413  0.00  0.00    -0.263 OA
ATOM      9  C   UNL d   1     -41.141-121.708 -52.214  0.00  0.00     0.004 A 
ATOM     10  C   UNL d   1     -41.833-122.610 -49.582  0.00  0.00     0.185 A 
ATOM     11  C   UNL d   1     -41.122-121.606 -51.400  0.00  0.00     0.026 A 
ENDROOT
BRANCH   4  12
ATOM     12  C   UNL d   1     -41.546-122.471 -53.356  0.00  0.00     0.090 A 
ATOM     13  N   UNL d   1     -41.991-122.018 -53.881  0.00  0.00    -0.219 NA
ATOM     14  C   UNL d   1     -41.852-122.315 -54.642  0.00  0.00     0.215 A 
ATOM     15  S   UNL d   1     -41.325-122.945 -54.581  0.00  0.00    -0.045 SA
ATOM     16  N   UNL d   1     -42.187-122.025 -55.344  0.00  0.00    -0.120 N 
ATOM     17  C   UNL d   1     -41.136-123.042 -53.781  0.00  0.00     0.058 A 
ENDBRANCH   4  12
TORSDOF 1
ENDMDL
MODEL 4
REMARK VINA RESULT:      -5.0      2.086      3.719
REMARK  1 active torsions:
REMARK  status: ('A' for Active; 'I' for Inactive)
REMARK    1  A    between atoms: C_9  and  C_2 
ROOT
ATOM      1  N   UNL d   1     -41.768-122.118 -51.551  0.00  0.00    -0.204 NA
ATOM      2  C   UNL d   1     -41.603-122.590 -52.209  0.00  0.00     0.107 A 
ATOM      3  C   UNL d   1     -41.616-122.407 -50.784  0.00  0.00     0.304 A 
ATOM      4  C   UNL d   1     -41.586-122.778 -53.628  0.00  0.00     0.020 A 
ATOM      5  O   UNL d   1     -41.134-123.639 -51.344  0.00  0.00    -0.299 OA
ATOM      6  C   UNL d   1     -41.751-122.306 -52.961  0.00  0.00     0.023 A 
ATOM      7  C   UNL d   1     -41.286-123.350 -52.111  0.00  0.00     0.118 A 
ATOM      8  O   UNL d   1     -41.780-121.940 -50.127  0.00  0.00    -0.263 OA
ATOM      9  C   UNL d   1     -41.272-123.533 -53.527  0.00  0.00     0.004 A 
ATOM     10  C   UNL d   1     -41.301-123.165 -50.684  0.00  0.00     0.185 A 
ATOM     11  C   UNL d   1     -41.123-123.817 -52.771  0.00  0.00     0.026 A 
ENDROOT
BRANCH   4  12
ATOM     12  C   UNL d   1     -41.739-122.485 -54.384  0.00  0.00     0.090 A 
ATOM     13  N   UNL d   1     -42.485-122.446 -54.734  0.00  0.00    -0.219 NA
ATOM     14  C   UNL d   1     -42.386-122.118 -55.488  0.00  0.00     0.215 A 
ATOM     15  S   UNL d   1     -41.585-121.957 -55.596  0.00  0.00    -0.045 SA
ATOM     16  N   UNL d   1     -42.991-121.975 -56.037  0.00  0.00    -0.120 N 
ATOM     17  C   UNL d   1     -41.184-122.186 -54.910  0.00  0.00     0.058 A 
ENDBRANCH   4  12
TORSDOF 1
ENDMDL
