MODEL 1
REMARK VINA RESULT:      46.7      0.000      0.000
REMARK  4 active torsions:
REMARK  status: ('A' for Active; 'I' for Inactive)
REMARK    1  A    between atoms: C_3  and  C_1 
REMARK    2  A    between atoms: C_8  and  C_3 
REMARK    3  A    between atoms: C_9  and  C_3 
REMARK    4  A    between atoms: N_5  and  C_9 
ROOT
ATOM      1  C   UNL d   1     -51.479  25.081  33.778  0.00  0.00     0.023 A 
ATOM      2  C   UNL d   1     -52.174  24.584  33.850  0.00  0.00     0.082 A 
ATOM      3  N   UNL d   1     -51.944  23.814  33.731  0.00  0.00    -0.246 NA
ATOM      4  C   UNL d   1     -50.850  24.590  33.617  0.00  0.00     0.019 A 
ATOM      5  C   UNL d   1     -51.128  23.807  33.586  0.00  0.00     0.081 A 
ATOM      6  C   UNL d   1     -52.922  24.377  33.961  0.00  0.00     0.021 C 
ATOM      7  C   UNL d   1     -50.050  24.753  33.492  0.00  0.00     0.002 A 
ATOM      8  C   UNL d   1     -50.594  23.190  33.430  0.00  0.00     0.019 A 
ATOM      9  C   UNL d   1     -49.537  24.129  33.339  0.00  0.00     0.000 A 
ATOM     10  C   UNL d   1     -49.799  23.352  33.306  0.00  0.00     0.002 A 
ENDROOT
BRANCH   1  11
ATOM     11  C   UNL d   1     -51.474  25.903  33.860  0.00  0.00     0.048 C 
BRANCH  11  12
ATOM     12  C   UNL d   1     -52.110  26.361  33.654  0.00  0.00     0.102 A 
ATOM     13  O   UNL d   1     -52.899  26.090  33.569  0.00  0.00    -0.305 OA
ATOM     14  C   UNL d   1     -53.372  26.726  33.356  0.00  0.00     0.123 A 
ATOM     15  C   UNL d   1     -52.864  27.414  33.307  0.00  0.00     0.029 A 
ATOM     16  C   UNL d   1     -52.104  27.171  33.491  0.00  0.00     0.027 A 
ENDBRANCH  11  12
BRANCH  11  17
ATOM     17  C   UNL d   1     -50.785  26.264  34.168  0.00  0.00     0.150 C 
BRANCH  17  18
ATOM     18  N   UNL d   1     -50.848  26.738  34.845  0.00  0.00    -0.112 N 
ATOM     19  O   UNL d   1     -51.516  26.726  35.303  0.00  0.00    -0.532 OA
ATOM     20  O   UNL d   1     -50.199  27.244  35.058  0.00  0.00    -0.532 OA
ENDBRANCH  17  18
ENDBRANCH  11  17
ENDBRANCH   1  11
TORSDOF 4
ENDMDL
