MODEL 1
REMARK VINA RESULT:      41.4      0.000      0.000
REMARK  4 active torsions:
REMARK  status: ('A' for Active; 'I' for Inactive)
REMARK    1  A    between atoms: C_11  and  N_2 
REMARK    2  A    between atoms: C_10  and  C_6 
REMARK    3  A    between atoms: C_16  and  C_9 
REMARK    4  A    between atoms: C_21  and  C_16 
ROOT
ATOM      1  C   UNL d   1      46.297 -18.692  42.857  0.00  0.00     0.143 A 
ATOM      2  N   UNL d   1      46.067 -17.606  43.627  0.00  0.00    -0.242 N 
ATOM      3  C   UNL d   1      46.125 -17.881  42.843  0.00  0.00     0.172 A 
ATOM      4  C   UNL d   1      46.206 -18.256  44.126  0.00  0.00     0.355 A 
ATOM      5  N   UNL d   1      46.346 -18.921  43.650  0.00  0.00    -0.187 NA
ATOM      6  C   UNL d   1      46.385 -19.108  42.161  0.00  0.00     0.163 A 
ATOM      7  N   UNL d   1      46.041 -17.487  42.116  0.00  0.00    -0.208 NA
ATOM      8  N   UNL d   1      46.304 -18.730  41.434  0.00  0.00    -0.220 NA
ATOM      9  C   UNL d   1      46.132 -17.919  41.412  0.00  0.00     0.164 A 
ATOM     10  O   UNL d   1      46.202 -18.234  44.955  0.00  0.00    -0.244 OA
ENDROOT
BRANCH   2  11
ATOM     11  C   UNL d   1      45.904 -16.839  43.861  0.00  0.00     0.070 A 
ATOM     12  C   UNL d   1      46.400 -16.214  43.627  0.00  0.00     0.018 A 
ATOM     13  C   UNL d   1      46.245 -15.444  43.857  0.00  0.00     0.002 A 
ATOM     14  C   UNL d   1      45.584 -15.303  44.326  0.00  0.00     0.000 A 
ATOM     15  C   UNL d   1      45.088 -15.913  44.562  0.00  0.00     0.002 A 
ATOM     16  C   UNL d   1      45.418 -14.523  44.564  0.00  0.00     0.000 C 
ATOM     17  C   UNL d   1      45.251 -16.681  44.328  0.00  0.00     0.018 A 
ENDBRANCH   2  11
BRANCH   6  18
ATOM     18  C   UNL d   1      46.557 -19.918  42.175  0.00  0.00     0.316 C 
ATOM     19  O   UNL d   1      46.640 -20.319  42.894  0.00  0.00    -0.262 OA
ATOM     20  N   UNL d   1      46.647 -20.329  41.454  0.00  0.00    -0.101 N 
ENDBRANCH   6  18
BRANCH   9  21
ATOM     21  C   UNL d   1      46.050 -17.537  40.685  0.00  0.00     0.039 C 
BRANCH  21  22
ATOM     22  C   UNL d   1      45.420 -17.726  40.181  0.00  0.00     0.003 C 
ATOM     23  C   UNL d   1      45.580 -17.995  39.418  0.00  0.00     0.000 C 
ATOM     24  C   UNL d   1      44.650 -17.643  40.448  0.00  0.00     0.000 C 
ENDBRANCH  21  22
ENDBRANCH   9  21
TORSDOF 4
ENDMDL
