MODEL 1
REMARK VINA RESULT:      43.2      0.000      0.000
REMARK  3 active torsions:
REMARK  status: ('A' for Active; 'I' for Inactive)
REMARK    1  A    between atoms: C_12  and  C_4 
REMARK       I    between atoms: C_6  and  N_11 
REMARK    2  A    between atoms: C_7  and  C_6 
REMARK    3  A    between atoms: N_11  and  C_18 
ROOT
ATOM      1  C   UNL d   1      13.711  13.053  -2.845  0.00  0.00     0.019 A 
ATOM      2  C   UNL d   1      13.754  13.866  -2.985  0.00  0.00     0.003 A 
ATOM      3  C   UNL d   1      13.377  12.559  -3.402  0.00  0.00     0.003 A 
ATOM      4  C   UNL d   1      13.124  13.685  -4.247  0.00  0.00     0.085 A 
ATOM      5  C   UNL d   1      13.082  12.876  -4.105  0.00  0.00     0.019 A 
ATOM      6  C   UNL d   1      13.463  14.178  -3.680  0.00  0.00     0.019 A 
ENDROOT
BRANCH   1   7
ATOM      7  C   UNL d   1      14.006  12.733  -2.139  0.00  0.00     0.101 A 
ATOM      8  N   UNL d   1      14.796  12.715  -1.953  0.00  0.00    -0.221 NA
ATOM      9  C   UNL d   1      14.881  12.359  -1.215  0.00  0.00     0.179 A 
ATOM     10  N   UNL d   1      14.139  12.153  -0.940  0.00  0.00    -0.282 N 
ATOM     11  S   UNL d   1      15.437  12.131  -0.647  0.00  0.00    -0.048 SA
ATOM     12  C   UNL d   1      13.591  12.386  -1.516  0.00  0.00     0.101 A 
ATOM     13  C   UNL d   1      14.224  11.797  -0.202  0.00  0.00     0.089 A 
ATOM     14  C   UNL d   1      15.031  11.786  -0.025  0.00  0.00     0.057 A 
ENDBRANCH   1   7
BRANCH   4  15
ATOM     15  N   UNL d   1      12.829  14.006  -4.952  0.00  0.00    -0.208 NA
ATOM     16  C   UNL d   1      13.062  14.763  -5.191  0.00  0.00     0.279 C 
ATOM     17  O   UNL d   1      12.771  15.083  -5.888  0.00  0.00    -0.265 OA
BRANCH  16  18
ATOM     18  C   UNL d   1      13.586  15.192  -4.724  0.00  0.00     0.058 A 
ATOM     19  C   UNL d   1      14.088  15.748  -5.077  0.00  0.00     0.005 A 
ATOM     20  C   UNL d   1      14.116  15.627  -4.257  0.00  0.00     0.005 A 
ENDBRANCH  16  18
ENDBRANCH   4  15
TORSDOF 3
ENDMDL
MODEL 2
REMARK VINA RESULT:      44.0      2.642      3.697
REMARK  3 active torsions:
REMARK  status: ('A' for Active; 'I' for Inactive)
REMARK    1  A    between atoms: C_12  and  C_4 
REMARK       I    between atoms: C_6  and  N_11 
REMARK    2  A    between atoms: C_7  and  C_6 
REMARK    3  A    between atoms: N_11  and  C_18 
ROOT
ATOM      1  C   UNL d   1      14.223  13.685  -2.329  0.00  0.00     0.019 A 
ATOM      2  C   UNL d   1      14.361  14.494  -2.418  0.00  0.00     0.003 A 
ATOM      3  C   UNL d   1      14.446  13.305  -1.642  0.00  0.00     0.003 A 
ATOM      4  C   UNL d   1      14.948  14.539  -1.124  0.00  0.00     0.085 A 
ATOM      5  C   UNL d   1      14.809  13.733  -1.038  0.00  0.00     0.019 A 
ATOM      6  C   UNL d   1      14.721  14.917  -1.820  0.00  0.00     0.019 A 
ENDROOT
BRANCH   1   7
ATOM      7  C   UNL d   1      13.858  13.253  -2.936  0.00  0.00     0.101 A 
ATOM      8  N   UNL d   1      13.863  13.483  -3.714  0.00  0.00    -0.221 NA
ATOM      9  C   UNL d   1      13.449  12.924  -4.154  0.00  0.00     0.179 A 
ATOM     10  N   UNL d   1      13.185  12.340  -3.647  0.00  0.00    -0.282 N 
ATOM     11  S   UNL d   1      13.201  12.730  -4.919  0.00  0.00    -0.048 SA
ATOM     12  C   UNL d   1      13.439  12.544  -2.885  0.00  0.00     0.101 A 
ATOM     13  C   UNL d   1      12.771  11.779  -4.086  0.00  0.00     0.089 A 
ATOM     14  C   UNL d   1      12.784  12.026  -4.875  0.00  0.00     0.057 A 
ENDBRANCH   1   7
BRANCH   4  15
ATOM     15  N   UNL d   1      15.313  14.971  -0.517  0.00  0.00    -0.208 NA
ATOM     16  C   UNL d   1      15.458  15.780  -0.616  0.00  0.00     0.279 C 
ATOM     17  O   UNL d   1      15.819  16.210  -0.018  0.00  0.00    -0.265 OA
BRANCH  16  18
ATOM     18  C   UNL d   1      15.238  16.148  -1.318  0.00  0.00     0.058 A 
ATOM     19  C   UNL d   1      15.080  16.961  -1.321  0.00  0.00     0.005 A 
ATOM     20  C   UNL d   1      15.015  16.525  -2.024  0.00  0.00     0.005 A 
ENDBRANCH  16  18
ENDBRANCH   4  15
TORSDOF 3
ENDMDL
