MODEL 1
REMARK VINA RESULT:      46.1      0.000      0.000
REMARK  2 active torsions:
REMARK  status: ('A' for Active; 'I' for Inactive)
REMARK    1  A    between atoms: C_6  and  N_2 
REMARK    2  A    between atoms: C_8  and  C_5 
ROOT
ATOM      1  C   UNL d   1      13.056  13.865  -4.414  0.00  0.00     0.265 A 
ATOM      2  N   UNL d   1      13.482  13.804  -3.710  0.00  0.00    -0.275 N 
ATOM      3  C   UNL d   1      13.035  12.590  -4.027  0.00  0.00     0.021 A 
ATOM      4  C   UNL d   1      12.779  13.113  -4.611  0.00  0.00     0.063 A 
ATOM      5  C   UNL d   1      13.470  13.020  -3.470  0.00  0.00     0.067 A 
ATOM      6  O   UNL d   1      12.926  14.560  -4.850  0.00  0.00    -0.267 OA
ATOM      7  C   UNL d   1      12.883  11.779  -4.005  0.00  0.00     0.002 C 
ENDROOT
BRANCH   2   8
ATOM      8  C   UNL d   1      13.854  14.434  -3.319  0.00  0.00     0.067 A 
ATOM      9  C   UNL d   1      14.254  15.008  -3.763  0.00  0.00     0.018 A 
ATOM     10  C   UNL d   1      14.626  15.634  -3.390  0.00  0.00     0.002 A 
ATOM     11  C   UNL d   1      14.603  15.698  -2.563  0.00  0.00     0.000 A 
ATOM     12  C   UNL d   1      14.199  15.119  -2.121  0.00  0.00     0.002 A 
ATOM     13  C   UNL d   1      14.975  16.327  -2.180  0.00  0.00     0.000 C 
ATOM     14  C   UNL d   1      13.828  14.493  -2.501  0.00  0.00     0.018 A 
ENDBRANCH   2   8
BRANCH   5  15
ATOM     15  C   UNL d   1      13.828  12.711  -2.794  0.00  0.00     0.016 A 
ATOM     16  C   UNL d   1      13.387  12.612  -2.100  0.00  0.00     0.002 A 
ATOM     17  C   UNL d   1      13.745  12.303  -1.424  0.00  0.00     0.011 A 
ATOM     18  C   UNL d   1      14.548  12.091  -1.439  0.00  0.00     0.058 A 
ATOM     19  C   UNL d   1      14.989  12.189  -2.129  0.00  0.00     0.011 A 
ATOM     20 CL   UNL d   1      14.905  11.779  -0.754  0.00  0.00    -0.082 Cl
ATOM     21  C   UNL d   1      14.631  12.499  -2.809  0.00  0.00     0.002 A 
ENDBRANCH   5  15
TORSDOF 2
ENDMDL
MODEL 2
REMARK VINA RESULT:      46.6      1.281      2.930
REMARK  2 active torsions:
REMARK  status: ('A' for Active; 'I' for Inactive)
REMARK    1  A    between atoms: C_6  and  N_2 
REMARK    2  A    between atoms: C_8  and  C_5 
ROOT
ATOM      1  C   UNL d   1      13.058  12.598  -3.945  0.00  0.00     0.265 A 
ATOM      2  N   UNL d   1      13.497  13.034  -3.399  0.00  0.00    -0.275 N 
ATOM      3  C   UNL d   1      13.049  13.873  -4.332  0.00  0.00     0.021 A 
ATOM      4  C   UNL d   1      12.780  13.117  -4.522  0.00  0.00     0.063 A 
ATOM      5  C   UNL d   1      13.493  13.819  -3.636  0.00  0.00     0.067 A 
ATOM      6  O   UNL d   1      12.917  11.779  -3.919  0.00  0.00    -0.267 OA
ATOM      7  C   UNL d   1      12.901  14.562  -4.762  0.00  0.00     0.002 C 
ENDROOT
BRANCH   2   8
ATOM      8  C   UNL d   1      13.875  12.722  -2.729  0.00  0.00     0.067 A 
ATOM      9  C   UNL d   1      13.429  12.307  -2.168  0.00  0.00     0.018 A 
ATOM     10  C   UNL d   1      13.788  11.994  -1.503  0.00  0.00     0.002 A 
ATOM     11  C   UNL d   1      14.605  12.092  -1.388  0.00  0.00     0.000 A 
ATOM     12  C   UNL d   1      15.049  12.510  -1.955  0.00  0.00     0.002 A 
ATOM     13  C   UNL d   1      14.974  11.779  -0.720  0.00  0.00     0.000 C 
ATOM     14  C   UNL d   1      14.682  12.821  -2.620  0.00  0.00     0.018 A 
ENDBRANCH   2   8
BRANCH   5  15
ATOM     15  C   UNL d   1      13.865  14.447  -3.251  0.00  0.00     0.016 A 
ATOM     16  C   UNL d   1      14.289  15.008  -3.687  0.00  0.00     0.002 A 
ATOM     17  C   UNL d   1      14.661  15.636  -3.302  0.00  0.00     0.011 A 
ATOM     18  C   UNL d   1      14.611  15.705  -2.475  0.00  0.00     0.058 A 
ATOM     19  C   UNL d   1      14.189  15.147  -2.039  0.00  0.00     0.011 A 
ATOM     20 CL   UNL d   1      14.987  16.340  -2.090  0.00  0.00    -0.082 Cl
ATOM     21  C   UNL d   1      13.815  14.516  -2.424  0.00  0.00     0.002 A 
ENDBRANCH   5  15
TORSDOF 2
ENDMDL
MODEL 3
REMARK VINA RESULT:      47.0      2.055      3.822
REMARK  2 active torsions:
REMARK  status: ('A' for Active; 'I' for Inactive)
REMARK    1  A    between atoms: C_6  and  N_2 
REMARK    2  A    between atoms: C_8  and  C_5 
ROOT
ATOM      1  C   UNL d   1      14.681  12.586  -0.558  0.00  0.00     0.265 A 
ATOM      2  N   UNL d   1      14.518  13.011  -1.246  0.00  0.00    -0.275 N 
ATOM      3  C   UNL d   1      15.076  13.845  -0.369  0.00  0.00     0.021 A 
ATOM      4  C   UNL d   1      15.026  13.102  -0.015  0.00  0.00     0.063 A 
ATOM      5  C   UNL d   1      14.760  13.786  -1.132  0.00  0.00     0.067 A 
ATOM      6  O   UNL d   1      14.526  11.779  -0.431  0.00  0.00    -0.267 OA
ATOM      7  C   UNL d   1      15.386  14.526  -0.023  0.00  0.00     0.002 C 
ENDROOT
BRANCH   2   8
ATOM      8  C   UNL d   1      14.168  12.698  -1.930  0.00  0.00     0.067 A 
ATOM      9  C   UNL d   1      13.368  12.850  -2.084  0.00  0.00     0.018 A 
ATOM     10  C   UNL d   1      13.011  12.548  -2.755  0.00  0.00     0.002 A 
ATOM     11  C   UNL d   1      13.451  12.087  -3.287  0.00  0.00     0.000 A 
ATOM     12  C   UNL d   1      14.255  11.937  -3.128  0.00  0.00     0.002 A 
ATOM     13  C   UNL d   1      13.097  11.779  -3.966  0.00  0.00     0.000 C 
ATOM     14  C   UNL d   1      14.607  12.243  -2.453  0.00  0.00     0.018 A 
ENDBRANCH   2   8
BRANCH   5  15
ATOM     15  C   UNL d   1      14.701  14.401  -1.678  0.00  0.00     0.016 A 
ATOM     16  C   UNL d   1      14.604  14.232  -2.483  0.00  0.00     0.002 A 
ATOM     17  C   UNL d   1      14.545  14.847  -3.030  0.00  0.00     0.011 A 
ATOM     18  C   UNL d   1      14.583  15.636  -2.774  0.00  0.00     0.058 A 
ATOM     19  C   UNL d   1      14.680  15.806  -1.973  0.00  0.00     0.011 A 
ATOM     20 CL   UNL d   1      14.523  16.254  -3.329  0.00  0.00    -0.082 Cl
ATOM     21  C   UNL d   1      14.739  15.190  -1.422  0.00  0.00     0.002 A 
ENDBRANCH   5  15
TORSDOF 2
ENDMDL
MODEL 4
REMARK VINA RESULT:      47.8      1.782      2.814
REMARK  2 active torsions:
REMARK  status: ('A' for Active; 'I' for Inactive)
REMARK    1  A    between atoms: C_6  and  N_2 
REMARK    2  A    between atoms: C_8  and  C_5 
ROOT
ATOM      1  C   UNL d   1      13.936  12.148  -2.037  0.00  0.00     0.265 A 
ATOM      2  N   UNL d   1      14.157  12.940  -1.975  0.00  0.00    -0.275 N 
ATOM      3  C   UNL d   1      14.426  12.345  -0.814  0.00  0.00     0.021 A 
ATOM      4  C   UNL d   1      14.102  11.779  -1.318  0.00  0.00     0.063 A 
ATOM      5  C   UNL d   1      14.459  13.063  -1.223  0.00  0.00     0.067 A 
ATOM      6  O   UNL d   1      13.603  11.782  -2.705  0.00  0.00    -0.267 OA
ATOM      7  C   UNL d   1      14.673  12.216  -0.037  0.00  0.00     0.002 C 
ENDROOT
BRANCH   2   8
ATOM      8  C   UNL d   1      14.083  13.507  -2.577  0.00  0.00     0.067 A 
ATOM      9  C   UNL d   1      13.511  13.400  -3.167  0.00  0.00     0.018 A 
ATOM     10  C   UNL d   1      13.427  13.951  -3.766  0.00  0.00     0.002 A 
ATOM     11  C   UNL d   1      13.916  14.622  -3.784  0.00  0.00     0.000 A 
ATOM     12  C   UNL d   1      14.490  14.724  -3.189  0.00  0.00     0.002 A 
ATOM     13  C   UNL d   1      13.837  15.181  -4.385  0.00  0.00     0.000 C 
ATOM     14  C   UNL d   1      14.569  14.167  -2.591  0.00  0.00     0.018 A 
ENDBRANCH   2   8
BRANCH   5  15
ATOM     15  C   UNL d   1      14.746  13.777  -0.924  0.00  0.00     0.016 A 
ATOM     16  C   UNL d   1      14.221  14.340  -0.619  0.00  0.00     0.002 A 
ATOM     17  C   UNL d   1      14.508  15.053  -0.320  0.00  0.00     0.011 A 
ATOM     18  C   UNL d   1      15.324  15.207  -0.323  0.00  0.00     0.058 A 
ATOM     19  C   UNL d   1      15.849  14.647  -0.626  0.00  0.00     0.011 A 
ATOM     20 CL   UNL d   1      15.610  15.928  -0.020  0.00  0.00    -0.082 Cl
ATOM     21  C   UNL d   1      15.563  13.931  -0.927  0.00  0.00     0.002 A 
ENDBRANCH   5  15
TORSDOF 2
ENDMDL
