MODEL 1
REMARK VINA RESULT:      -3.2      0.000      0.000
REMARK  2 active torsions:
REMARK  status: ('A' for Active; 'I' for Inactive)
REMARK    1  A    between atoms: N_2  and  C_1 
REMARK    2  A    between atoms: N_11  and  C_3 
ROOT
ATOM      1  C   UNL d   1      59.012  -1.370  28.995  0.00  0.00     0.142 A 
ATOM      2  C   UNL d   1      59.836  -1.394  28.980  0.00  0.00     0.124 A 
ATOM      3  C   UNL d   1      58.582  -2.061  28.876  0.00  0.00     0.215 A 
ATOM      4  C   UNL d   1      60.232  -2.104  28.846  0.00  0.00     0.213 A 
ATOM      5  C   UNL d   1      58.970  -2.778  28.740  0.00  0.00     0.044 A 
ATOM      6  C   UNL d   1      59.799  -2.794  28.726  0.00  0.00     0.044 A 
ATOM      7  O   UNL d   1      57.758  -2.045  28.890  0.00  0.00    -0.285 OA
ATOM      8  O   UNL d   1      61.057  -2.127  28.830  0.00  0.00    -0.285 OA
ATOM      9  C   UNL d   1      58.546  -3.464  28.622  0.00  0.00     0.003 A 
ATOM     10  C   UNL d   1      60.191  -3.511  28.591  0.00  0.00     0.003 A 
ATOM     11  C   UNL d   1      59.754  -4.197  28.473  0.00  0.00     0.000 A 
ATOM     12  C   UNL d   1      58.925  -4.173  28.488  0.00  0.00     0.000 A 
ENDROOT
BRANCH   1  13
ATOM     13  N   UNL d   1      58.623  -0.661  29.129  0.00  0.00    -0.206 N 
ATOM     14  N   UNL d   1      58.571  -0.031  28.598  0.00  0.00    -0.059 NA
ATOM     15  N   UNL d   1      58.130   0.569  28.962  0.00  0.00    -0.129 NA
ATOM     16  C   UNL d   1      57.915   0.300  29.716  0.00  0.00     0.122 A 
ATOM     17  C   UNL d   1      58.222  -0.463  29.815  0.00  0.00     0.104 A 
ATOM     18  C   UNL d   1      57.478   0.658  30.316  0.00  0.00     0.022 A 
ATOM     19  C   UNL d   1      58.094  -0.867  30.513  0.00  0.00     0.021 A 
ATOM     20  C   UNL d   1      57.657  -0.522  31.130  0.00  0.00     0.002 A 
ATOM     21  C   UNL d   1      57.351   0.240  31.026  0.00  0.00     0.002 A 
ENDBRANCH   1  13
BRANCH   2  22
ATOM     22  N   UNL d   1      60.269  -0.701  29.099  0.00  0.00    -0.296 N 
ATOM     23  C   UNL d   1      60.393  -0.178  28.474  0.00  0.00     0.107 A 
ATOM     24  C   UNL d   1      60.819   0.507  28.590  0.00  0.00     0.142 A 
ATOM     25  O   UNL d   1      61.131   0.682  29.338  0.00  0.00    -0.300 OA
ATOM     26  C   UNL d   1      61.004   0.154  29.961  0.00  0.00     0.142 A 
ATOM     27  C   UNL d   1      60.573  -0.536  29.839  0.00  0.00     0.107 A 
ENDBRANCH   2  22
TORSDOF 2
ENDMDL
