MODEL 1
REMARK VINA RESULT:      -9.8      0.000      0.000
REMARK  3 active torsions:
REMARK  status: ('A' for Active; 'I' for Inactive)
REMARK    1  A    between atoms: C_3  and  C_1 
REMARK    2  A    between atoms: C_8  and  C_3 
REMARK    3  A    between atoms: C_10  and  C_4 
ROOT
ATOM      1  C   UNL d   1      52.722  33.869  53.626  0.00  0.00     0.092 C 
ATOM      2  C   UNL d   1      52.948  34.412  54.204  0.00  0.00     0.103 C 
ATOM      3  N   UNL d   1      53.196  34.948  54.800  0.00  0.00    -0.191 NA
ENDROOT
BRANCH   1   4
ATOM      4  C   UNL d   1      53.126  33.137  53.572  0.00  0.00     0.120 A 
ATOM      5  N   UNL d   1      52.786  32.368  53.622  0.00  0.00    -0.238 NA
ATOM      6  C   UNL d   1      53.395  31.811  53.539  0.00  0.00     0.088 A 
ATOM      7  C   UNL d   1      54.095  32.236  53.441  0.00  0.00     0.056 A 
ATOM      8  S   UNL d   1      53.907  33.032  53.465  0.00  0.00    -0.065 SA
BRANCH   6   9
ATOM      9  C   UNL d   1      53.286  30.972  53.557  0.00  0.00     0.018 A 
ATOM     10  C   UNL d   1      52.935  30.600  52.902  0.00  0.00     0.002 A 
ATOM     11  C   UNL d   1      52.826  29.783  52.911  0.00  0.00     0.000 A 
ATOM     12  C   UNL d   1      53.068  29.315  53.582  0.00  0.00     0.000 A 
ATOM     13  C   UNL d   1      53.415  29.697  54.228  0.00  0.00     0.000 A 
ATOM     14  C   UNL d   1      53.524  30.536  54.210  0.00  0.00     0.002 A 
ENDBRANCH   6   9
ENDBRANCH   1   4
BRANCH   1  15
ATOM     15  C   UNL d   1      52.106  34.064  53.121  0.00  0.00     0.012 A 
ATOM     16  C   UNL d   1      52.060  34.296  52.321  0.00  0.00     0.001 A 
ATOM     17  C   UNL d   1      51.275  34.416  52.130  0.00  0.00     0.000 A 
ATOM     18  C   UNL d   1      50.834  34.262  52.795  0.00  0.00     0.000 A 
ATOM     19  C   UNL d   1      51.336  34.046  53.406  0.00  0.00     0.001 A 
ENDBRANCH   1  15
TORSDOF 3
ENDMDL
MODEL 2
REMARK VINA RESULT:      -8.7      1.451      3.688
REMARK  3 active torsions:
REMARK  status: ('A' for Active; 'I' for Inactive)
REMARK    1  A    between atoms: C_3  and  C_1 
REMARK    2  A    between atoms: C_8  and  C_3 
REMARK    3  A    between atoms: C_10  and  C_4 
ROOT
ATOM      1  C   UNL d   1      53.690  32.242  54.266  0.00  0.00     0.092 C 
ATOM      2  C   UNL d   1      53.686  31.489  54.602  0.00  0.00     0.103 C 
ATOM      3  N   UNL d   1      53.662  30.716  54.929  0.00  0.00    -0.191 NA
ENDROOT
BRANCH   1   4
ATOM      4  C   UNL d   1      53.126  32.429  53.676  0.00  0.00     0.120 A 
ATOM      5  N   UNL d   1      52.537  33.030  53.713  0.00  0.00    -0.238 NA
ATOM      6  C   UNL d   1      52.106  33.014  53.005  0.00  0.00     0.088 A 
ATOM      7  C   UNL d   1      52.428  32.410  52.544  0.00  0.00     0.056 A 
ATOM      8  S   UNL d   1      53.040  32.073  52.970  0.00  0.00    -0.065 SA
BRANCH   6   9
ATOM      9  C   UNL d   1      51.462  33.532  52.820  0.00  0.00     0.018 A 
ATOM     10  C   UNL d   1      51.520  34.019  52.150  0.00  0.00     0.002 A 
ATOM     11  C   UNL d   1      50.898  34.526  51.963  0.00  0.00     0.000 A 
ATOM     12  C   UNL d   1      50.196  34.557  52.447  0.00  0.00     0.000 A 
ATOM     13  C   UNL d   1      50.150  34.067  53.111  0.00  0.00     0.000 A 
ATOM     14  C   UNL d   1      50.795  33.549  53.296  0.00  0.00     0.002 A 
ENDBRANCH   6   9
ENDBRANCH   1   4
BRANCH   1  15
ATOM     15  C   UNL d   1      54.248  32.785  54.522  0.00  0.00     0.012 A 
ATOM     16  C   UNL d   1      54.909  33.150  54.169  0.00  0.00     0.001 A 
ATOM     17  C   UNL d   1      55.254  33.650  54.716  0.00  0.00     0.000 A 
ATOM     18  C   UNL d   1      54.819  33.600  55.401  0.00  0.00     0.000 A 
ATOM     19  C   UNL d   1      54.202  33.072  55.290  0.00  0.00     0.001 A 
ENDBRANCH   1  15
TORSDOF 3
ENDMDL
MODEL 3
REMARK VINA RESULT:      -8.7      0.947      3.659
REMARK  3 active torsions:
REMARK  status: ('A' for Active; 'I' for Inactive)
REMARK    1  A    between atoms: C_3  and  C_1 
REMARK    2  A    between atoms: C_8  and  C_3 
REMARK    3  A    between atoms: C_10  and  C_4 
ROOT
ATOM      1  C   UNL d   1      53.623  32.635  54.135  0.00  0.00     0.092 C 
ATOM      2  C   UNL d   1      54.025  32.785  54.838  0.00  0.00     0.103 C 
ATOM      3  N   UNL d   1      54.426  32.962  55.554  0.00  0.00    -0.191 NA
ENDROOT
BRANCH   1   4
ATOM      4  C   UNL d   1      53.177  33.249  53.780  0.00  0.00     0.120 A 
ATOM      5  N   UNL d   1      52.393  33.193  53.477  0.00  0.00    -0.238 NA
ATOM      6  C   UNL d   1      52.177  33.937  53.180  0.00  0.00     0.088 A 
ATOM      7  C   UNL d   1      52.821  34.437  53.301  0.00  0.00     0.056 A 
ATOM      8  S   UNL d   1      53.411  34.001  53.663  0.00  0.00    -0.065 SA
BRANCH   6   9
ATOM      9  C   UNL d   1      51.429  34.116  52.826  0.00  0.00     0.018 A 
ATOM     10  C   UNL d   1      51.365  34.100  51.998  0.00  0.00     0.002 A 
ATOM     11  C   UNL d   1      50.641  34.274  51.646  0.00  0.00     0.000 A 
ATOM     12  C   UNL d   1      49.957  34.469  52.118  0.00  0.00     0.000 A 
ATOM     13  C   UNL d   1      50.034  34.481  52.941  0.00  0.00     0.000 A 
ATOM     14  C   UNL d   1      50.783  34.302  53.295  0.00  0.00     0.002 A 
ENDBRANCH   6   9
ENDBRANCH   1   4
BRANCH   1  15
ATOM     15  C   UNL d   1      53.673  31.887  53.803  0.00  0.00     0.012 A 
ATOM     16  C   UNL d   1      54.048  31.573  53.128  0.00  0.00     0.001 A 
ATOM     17  C   UNL d   1      53.892  30.772  53.092  0.00  0.00     0.000 A 
ATOM     18  C   UNL d   1      53.427  30.584  53.732  0.00  0.00     0.000 A 
ATOM     19  C   UNL d   1      53.289  31.262  54.172  0.00  0.00     0.001 A 
ENDBRANCH   1  15
TORSDOF 3
ENDMDL
MODEL 4
REMARK VINA RESULT:      -8.7      1.225      2.191
REMARK  3 active torsions:
REMARK  status: ('A' for Active; 'I' for Inactive)
REMARK    1  A    between atoms: C_3  and  C_1 
REMARK    2  A    between atoms: C_8  and  C_3 
REMARK    3  A    between atoms: C_10  and  C_4 
ROOT
ATOM      1  C   UNL d   1      53.565  33.668  54.106  0.00  0.00     0.092 C 
ATOM      2  C   UNL d   1      53.087  34.340  54.078  0.00  0.00     0.103 C 
ATOM      3  N   UNL d   1      52.585  35.011  54.036  0.00  0.00    -0.191 NA
ENDROOT
BRANCH   1   4
ATOM      4  C   UNL d   1      53.319  32.976  53.704  0.00  0.00     0.120 A 
ATOM      5  N   UNL d   1      53.414  32.181  53.965  0.00  0.00    -0.238 NA
ATOM      6  C   UNL d   1      53.088  31.679  53.390  0.00  0.00     0.088 A 
ATOM      7  C   UNL d   1      52.799  32.164  52.789  0.00  0.00     0.056 A 
ATOM      8  S   UNL d   1      52.950  32.940  53.000  0.00  0.00    -0.065 SA
BRANCH   6   9
ATOM      9  C   UNL d   1      53.070  30.835  53.441  0.00  0.00     0.018 A 
ATOM     10  C   UNL d   1      52.731  30.403  52.818  0.00  0.00     0.002 A 
ATOM     11  C   UNL d   1      52.710  29.581  52.859  0.00  0.00     0.000 A 
ATOM     12  C   UNL d   1      53.031  29.166  53.532  0.00  0.00     0.000 A 
ATOM     13  C   UNL d   1      53.366  29.607  54.146  0.00  0.00     0.000 A 
ATOM     14  C   UNL d   1      53.383  30.452  54.095  0.00  0.00     0.002 A 
ENDBRANCH   6   9
ENDBRANCH   1   4
BRANCH   1  15
ATOM     15  C   UNL d   1      54.268  33.701  54.527  0.00  0.00     0.012 A 
ATOM     16  C   UNL d   1      55.073  33.731  54.313  0.00  0.00     0.001 A 
ATOM     17  C   UNL d   1      55.522  33.756  54.995  0.00  0.00     0.000 A 
ATOM     18  C   UNL d   1      55.010  33.742  55.627  0.00  0.00     0.000 A 
ATOM     19  C   UNL d   1      54.240  33.708  55.347  0.00  0.00     0.001 A 
ENDBRANCH   1  15
TORSDOF 3
ENDMDL
MODEL 5
REMARK VINA RESULT:      -8.1      1.810      4.262
REMARK  3 active torsions:
REMARK  status: ('A' for Active; 'I' for Inactive)
REMARK    1  A    between atoms: C_3  and  C_1 
REMARK    2  A    between atoms: C_8  and  C_3 
REMARK    3  A    between atoms: C_10  and  C_4 
ROOT
ATOM      1  C   UNL d   1      53.198  30.318  53.400  0.00  0.00     0.092 C 
ATOM      2  C   UNL d   1      53.081  30.081  52.619  0.00  0.00     0.103 C 
ATOM      3  N   UNL d   1      52.962  29.865  51.817  0.00  0.00    -0.191 NA
ENDROOT
BRANCH   1   4
ATOM      4  C   UNL d   1      53.299  31.132  53.569  0.00  0.00     0.120 A 
ATOM      5  N   UNL d   1      53.924  31.482  54.013  0.00  0.00    -0.238 NA
ATOM      6  C   UNL d   1      53.797  32.301  54.038  0.00  0.00     0.088 A 
ATOM      7  C   UNL d   1      53.105  32.447  53.613  0.00  0.00     0.056 A 
ATOM      8  S   UNL d   1      52.824  31.728  53.341  0.00  0.00    -0.065 SA
BRANCH   6   9
ATOM      9  C   UNL d   1      54.301  32.856  54.431  0.00  0.00     0.018 A 
ATOM     10  C   UNL d   1      54.176  33.008  55.237  0.00  0.00     0.002 A 
ATOM     11  C   UNL d   1      54.662  33.546  55.628  0.00  0.00     0.000 A 
ATOM     12  C   UNL d   1      55.291  33.950  55.216  0.00  0.00     0.000 A 
ATOM     13  C   UNL d   1      55.405  33.790  54.413  0.00  0.00     0.000 A 
ATOM     14  C   UNL d   1      54.901  33.234  54.020  0.00  0.00     0.002 A 
ENDBRANCH   6   9
ENDBRANCH   1   4
BRANCH   1  15
ATOM     15  C   UNL d   1      53.212  29.746  53.988  0.00  0.00     0.012 A 
ATOM     16  C   UNL d   1      52.737  29.584  54.653  0.00  0.00     0.001 A 
ATOM     17  C   UNL d   1      53.038  28.926  55.034  0.00  0.00     0.000 A 
ATOM     18  C   UNL d   1      53.690  28.679  54.616  0.00  0.00     0.000 A 
ATOM     19  C   UNL d   1      53.803  29.176  53.975  0.00  0.00     0.001 A 
ENDBRANCH   1  15
TORSDOF 3
ENDMDL
