MODEL 1
REMARK VINA RESULT:      -6.5      0.000      0.000
REMARK  3 active torsions:
REMARK  status: ('A' for Active; 'I' for Inactive)
REMARK    1  A    between atoms: C_9  and  N_1 
REMARK    2  A    between atoms: C_5  and  C_9 
REMARK       I    between atoms: N_8  and  C_5 
REMARK    3  A    between atoms: O_14  and  C_12 
ROOT
ATOM      1  N   UNL d   1     -41.522-122.454 -52.008  0.00  0.00    -0.268 N 
ATOM      2  C   UNL d   1     -41.361-123.109 -52.475  0.00  0.00     0.265 A 
ATOM      3  C   UNL d   1     -41.438-123.052 -53.299  0.00  0.00     0.059 A 
ATOM      4  C   UNL d   1     -41.676-122.344 -53.643  0.00  0.00     0.028 A 
ATOM      5  C   UNL d   1     -41.838-121.689 -53.175  0.00  0.00     0.021 A 
ATOM      6  C   UNL d   1     -41.762-121.740 -52.359  0.00  0.00     0.083 A 
ATOM      7  O   UNL d   1     -41.123-123.817 -52.132  0.00  0.00    -0.267 OA
ATOM      8  C   UNL d   1     -41.752-122.294 -54.462  0.00  0.00     0.094 A 
ATOM      9  C   UNL d   1     -41.275-123.714 -53.763  0.00  0.00     0.005 A 
ATOM     10  C   UNL d   1     -41.350-123.666 -54.586  0.00  0.00     0.002 A 
ATOM     11  C   UNL d   1     -41.587-122.960 -54.934  0.00  0.00     0.024 A 
ENDROOT
BRANCH   1  12
ATOM     12  C   UNL d   1     -41.446-122.505 -51.193  0.00  0.00     0.144 C 
BRANCH  12  13
ATOM     13  C   UNL d   1     -42.114-122.427 -50.703  0.00  0.00     0.283 C 
ATOM     14  N   UNL d   1     -42.073-122.680 -49.922  0.00  0.00    -0.271 N 
ATOM     15  C   UNL d   1     -42.802-122.564 -49.487  0.00  0.00     0.083 A 
ATOM     16  C   UNL d   1     -41.412-122.964 -49.731  0.00  0.00     0.083 A 
ATOM     17  C   UNL d   1     -43.013-122.699 -48.812  0.00  0.00     0.019 A 
ATOM     18  C   UNL d   1     -42.562-123.041 -48.197  0.00  0.00     0.002 A 
ATOM     19  C   UNL d   1     -41.722-123.309 -48.258  0.00  0.00     0.002 A 
ATOM     20  C   UNL d   1     -41.185-123.276 -48.968  0.00  0.00     0.019 A 
ATOM     21  O   UNL d   1     -42.803-122.104 -50.990  0.00  0.00    -0.265 OA
ENDBRANCH  12  13
ENDBRANCH   1  12
BRANCH   8  22
ATOM     22  O   UNL d   1     -41.989-121.592 -54.818  0.00  0.00    -0.328 OA
ATOM     23  C   UNL d   1     -42.203-121.582 -55.606  0.00  0.00     0.181 C 
ENDBRANCH   8  22
TORSDOF 3
ENDMDL
MODEL 2
REMARK VINA RESULT:      -6.2      0.945      4.846
REMARK  3 active torsions:
REMARK  status: ('A' for Active; 'I' for Inactive)
REMARK    1  A    between atoms: C_9  and  N_1 
REMARK    2  A    between atoms: C_5  and  C_9 
REMARK       I    between atoms: N_8  and  C_5 
REMARK    3  A    between atoms: O_14  and  C_12 
ROOT
ATOM      1  N   UNL d   1     -41.798-122.600 -51.040  0.00  0.00    -0.268 N 
ATOM      2  C   UNL d   1     -42.481-122.515 -50.595  0.00  0.00     0.265 A 
ATOM      3  C   UNL d   1     -42.493-122.779 -49.809  0.00  0.00     0.059 A 
ATOM      4  C   UNL d   1     -41.823-123.124 -49.480  0.00  0.00     0.028 A 
ATOM      5  C   UNL d   1     -41.139-123.209 -49.926  0.00  0.00     0.021 A 
ATOM      6  C   UNL d   1     -41.123-122.949 -50.704  0.00  0.00     0.083 A 
ATOM      7  O   UNL d   1     -43.152-122.170 -50.924  0.00  0.00    -0.267 OA
ATOM      8  C   UNL d   1     -41.841-123.384 -48.698  0.00  0.00     0.094 A 
ATOM      9  C   UNL d   1     -43.184-122.690 -49.368  0.00  0.00     0.005 A 
ATOM     10  C   UNL d   1     -43.204-122.951 -48.582  0.00  0.00     0.002 A 
ATOM     11  C   UNL d   1     -42.537-123.296 -48.249  0.00  0.00     0.024 A 
ENDROOT
BRANCH   1  12
ATOM     12  C   UNL d   1     -41.782-122.340 -51.818  0.00  0.00     0.144 C 
BRANCH  12  13
ATOM     13  C   UNL d   1     -41.508-122.841 -52.423  0.00  0.00     0.283 C 
ATOM     14  N   UNL d   1     -41.629-122.629 -53.207  0.00  0.00    -0.271 N 
ATOM     15  C   UNL d   1     -41.317-123.199 -53.767  0.00  0.00     0.083 A 
ATOM     16  C   UNL d   1     -41.988-121.983 -53.294  0.00  0.00     0.083 A 
ATOM     17  C   UNL d   1     -41.298-123.241 -54.485  0.00  0.00     0.019 A 
ATOM     18  C   UNL d   1     -41.606-122.691 -55.036  0.00  0.00     0.002 A 
ATOM     19  C   UNL d   1     -42.022-121.938 -54.837  0.00  0.00     0.002 A 
ATOM     20  C   UNL d   1     -42.201-121.605 -54.030  0.00  0.00     0.019 A 
ATOM     21  O   UNL d   1     -41.123-123.534 -52.244  0.00  0.00    -0.265 OA
ENDBRANCH  12  13
ENDBRANCH   1  12
BRANCH   8  22
ATOM     22  O   UNL d   1     -41.178-123.730 -48.358  0.00  0.00    -0.328 OA
ATOM     23  C   UNL d   1     -41.123-123.803 -47.547  0.00  0.00     0.181 C 
ENDBRANCH   8  22
TORSDOF 3
ENDMDL
