MODEL 1
REMARK VINA RESULT:      11.8      0.000      0.000
REMARK  6 active torsions:
REMARK  status: ('A' for Active; 'I' for Inactive)
REMARK    1  A    between atoms: C_7  and  C_1 
REMARK    2  A    between atoms: C_10  and  C_2 
REMARK    3  A    between atoms: C_8  and  C_7 
REMARK    4  A    between atoms: C_9  and  C_8 
REMARK    5  A    between atoms: C_13  and  C_9 
REMARK    6  A    between atoms: O_20  and  C_16 
ROOT
ATOM      1  C   UNL d   1     -41.660-122.497 -52.597  0.00  0.00     0.097 A 
ATOM      2  C   UNL d   1     -41.735-122.000 -53.251  0.00  0.00     0.009 A 
ATOM      3  C   UNL d   1     -41.593-123.315 -52.708  0.00  0.00     0.282 A 
ATOM      4  C   UNL d   1     -41.744-122.310 -54.016  0.00  0.00     0.018 A 
ATOM      5  N   UNL d   1     -41.603-123.614 -53.470  0.00  0.00    -0.208 NA
ATOM      6  C   UNL d   1     -41.677-123.129 -54.128  0.00  0.00     0.085 A 
ATOM      7  C   UNL d   1     -41.817-121.815 -54.655  0.00  0.00     0.008 A 
ATOM      8  O   UNL d   1     -41.518-123.817 -52.060  0.00  0.00    -0.265 OA
ATOM      9  C   UNL d   1     -41.685-123.430 -54.875  0.00  0.00     0.020 A 
ATOM     10  C   UNL d   1     -41.826-122.126 -55.425  0.00  0.00     0.035 A 
ATOM     11  C   UNL d   1     -41.760-122.944 -55.536  0.00  0.00     0.008 A 
ATOM     12 BR   UNL d   1     -41.902-121.626 -56.097  0.00  0.00    -0.049 Br
ENDROOT
BRANCH   1  13
ATOM     13  C   UNL d   1     -41.650-122.189 -51.810  0.00  0.00     0.200 C 
ATOM     14  O   UNL d   1     -41.129-121.581 -51.627  0.00  0.00    -0.286 OA
BRANCH  13  15
ATOM     15  C   UNL d   1     -42.146-122.487 -51.240  0.00  0.00     0.042 C 
BRANCH  15  16
ATOM     16  C   UNL d   1     -41.868-122.614 -50.470  0.00  0.00     0.005 C 
BRANCH  16  17
ATOM     17  C   UNL d   1     -42.385-122.796 -49.867  0.00  0.00     0.022 A 
ATOM     18  C   UNL d   1     -42.108-122.803 -49.098  0.00  0.00     0.094 A 
ATOM     19  C   UNL d   1     -42.629-122.987 -48.475  0.00  0.00     0.024 A 
ATOM     20  C   UNL d   1     -43.415-123.158 -48.658  0.00  0.00     0.002 A 
ATOM     21  C   UNL d   1     -43.680-123.149 -49.425  0.00  0.00     0.000 A 
ATOM     22  C   UNL d   1     -43.175-122.970 -50.029  0.00  0.00     0.002 A 
BRANCH  18  23
ATOM     23  O   UNL d   1     -41.318-122.631 -48.914  0.00  0.00    -0.328 OA
ATOM     24  C   UNL d   1     -41.124-122.318 -48.182  0.00  0.00     0.181 C 
ENDBRANCH  18  23
ENDBRANCH  16  17
ENDBRANCH  15  16
ENDBRANCH  13  15
ENDBRANCH   1  13
BRANCH   2  25
ATOM     25  C   UNL d   1     -41.803-121.167 -53.138  0.00  0.00     0.000 A 
ATOM     26  C   UNL d   1     -42.551-120.813 -53.124  0.00  0.00     0.000 A 
ATOM     27  C   UNL d   1     -42.618-119.991 -53.013  0.00  0.00     0.000 A 
ATOM     28  C   UNL d   1     -41.936-119.545 -52.917  0.00  0.00     0.000 A 
ATOM     29  C   UNL d   1     -41.189-119.904 -52.931  0.00  0.00     0.000 A 
ATOM     30  C   UNL d   1     -41.123-120.708 -53.040  0.00  0.00     0.000 A 
ENDBRANCH   2  25
TORSDOF 6
ENDMDL
MODEL 2
REMARK VINA RESULT:      13.6      1.976      4.517
REMARK  6 active torsions:
REMARK  status: ('A' for Active; 'I' for Inactive)
REMARK    1  A    between atoms: C_7  and  C_1 
REMARK    2  A    between atoms: C_10  and  C_2 
REMARK    3  A    between atoms: C_8  and  C_7 
REMARK    4  A    between atoms: C_9  and  C_8 
REMARK    5  A    between atoms: C_13  and  C_9 
REMARK    6  A    between atoms: O_20  and  C_16 
ROOT
ATOM      1  C   UNL d   1     -41.577-122.587 -51.910  0.00  0.00     0.097 A 
ATOM      2  C   UNL d   1     -41.683-122.185 -51.197  0.00  0.00     0.009 A 
ATOM      3  C   UNL d   1     -41.478-123.410 -51.907  0.00  0.00     0.282 A 
ATOM      4  C   UNL d   1     -41.691-122.596 -50.480  0.00  0.00     0.018 A 
ATOM      5  N   UNL d   1     -41.486-123.808 -51.192  0.00  0.00    -0.208 NA
ATOM      6  C   UNL d   1     -41.591-123.419 -50.477  0.00  0.00     0.085 A 
ATOM      7  C   UNL d   1     -41.795-122.194 -49.783  0.00  0.00     0.008 A 
ATOM      8  O   UNL d   1     -41.372-123.817 -52.614  0.00  0.00    -0.265 OA
ATOM      9  C   UNL d   1     -41.598-123.817 -49.777  0.00  0.00     0.020 A 
ATOM     10  C   UNL d   1     -41.803-122.605 -49.061  0.00  0.00     0.035 A 
ATOM     11  C   UNL d   1     -41.703-123.428 -49.059  0.00  0.00     0.008 A 
ATOM     12 BR   UNL d   1     -41.910-122.203 -48.331  0.00  0.00    -0.049 Br
ENDROOT
BRANCH   1  13
ATOM     13  C   UNL d   1     -41.568-122.176 -52.649  0.00  0.00     0.200 C 
ATOM     14  O   UNL d   1     -41.123-121.490 -52.716  0.00  0.00    -0.286 OA
BRANCH  13  15
ATOM     15  C   UNL d   1     -41.992-122.453 -53.283  0.00  0.00     0.042 C 
BRANCH  15  16
ATOM     16  C   UNL d   1     -41.873-122.130 -54.037  0.00  0.00     0.005 C 
BRANCH  16  17
ATOM     17  C   UNL d   1     -42.264-122.433 -54.685  0.00  0.00     0.022 A 
ATOM     18  C   UNL d   1     -42.229-122.027 -55.393  0.00  0.00     0.094 A 
ATOM     19  C   UNL d   1     -42.625-122.328 -56.060  0.00  0.00     0.024 A 
ATOM     20  C   UNL d   1     -43.044-123.035 -55.983  0.00  0.00     0.002 A 
ATOM     21  C   UNL d   1     -43.072-123.431 -55.275  0.00  0.00     0.000 A 
ATOM     22  C   UNL d   1     -42.688-123.139 -54.627  0.00  0.00     0.002 A 
BRANCH  18  23
ATOM     23  O   UNL d   1     -41.808-121.316 -55.472  0.00  0.00    -0.328 OA
ATOM     24  C   UNL d   1     -41.939-120.829 -56.118  0.00  0.00     0.181 C 
ENDBRANCH  18  23
ENDBRANCH  16  17
ENDBRANCH  15  16
ENDBRANCH  13  15
ENDBRANCH   1  13
BRANCH   2  25
ATOM     25  C   UNL d   1     -41.785-121.348 -51.200  0.00  0.00     0.000 A 
ATOM     26  C   UNL d   1     -42.547-121.026 -51.206  0.00  0.00     0.000 A 
ATOM     27  C   UNL d   1     -42.647-120.200 -51.209  0.00  0.00     0.000 A 
ATOM     28  C   UNL d   1     -41.983-119.718 -51.205  0.00  0.00     0.000 A 
ATOM     29  C   UNL d   1     -41.222-120.045 -51.199  0.00  0.00     0.000 A 
ATOM     30  C   UNL d   1     -41.124-120.853 -51.196  0.00  0.00     0.000 A 
ENDBRANCH   2  25
TORSDOF 6
ENDMDL
