MODEL 1
REMARK VINA RESULT:      21.9      0.000      0.000
REMARK  4 active torsions:
REMARK  status: ('A' for Active; 'I' for Inactive)
REMARK    1  A    between atoms: C_12  and  C_2 
REMARK    2  A    between atoms: C_13  and  C_3 
REMARK    3  A    between atoms: N_8  and  C_6 
REMARK       I    between atoms: C_7  and  N_9 
REMARK    4  A    between atoms: N_9  and  N_8 
ROOT
ATOM      1  C   UNL d   1      13.528  13.233  -4.190  0.00  0.00     0.196 A 
ATOM      2  C   UNL d   1      13.567  12.398  -4.289  0.00  0.00     0.041 A 
ATOM      3  C   UNL d   1      13.615  13.571  -3.469  0.00  0.00     0.041 A 
ATOM      4  C   UNL d   1      13.700  11.908  -3.621  0.00  0.00     0.024 A 
ATOM      5  C   UNL d   1      13.747  13.099  -2.803  0.00  0.00     0.024 A 
ATOM      6  C   UNL d   1      13.789  12.281  -2.878  0.00  0.00     0.103 A 
ATOM      7  O   UNL d   1      13.393  13.760  -4.854  0.00  0.00    -0.287 OA
ENDROOT
BRANCH   6   8
ATOM      8  N   UNL d   1      13.924  11.789  -2.196  0.00  0.00    -0.144 NA
BRANCH   8   9
ATOM      9  N   UNL d   1      13.923  12.088  -1.417  0.00  0.00    -0.087 NA
ATOM     10  C   UNL d   1      14.606  12.098  -0.939  0.00  0.00     0.404 C 
ATOM     11  O   UNL d   1      15.319  11.797  -1.247  0.00  0.00    -0.239 OA
ATOM     12  N   UNL d   1      14.575  12.403  -0.163  0.00  0.00    -0.083 N 
ENDBRANCH   8   9
ENDBRANCH   6   8
BRANCH   3  13
ATOM     13  C   UNL d   1      13.571  14.393  -3.408  0.00  0.00     0.003 C 
ATOM     14  C   UNL d   1      12.934  14.790  -3.701  0.00  0.00     0.000 C 
ATOM     15  C   UNL d   1      14.186  14.806  -3.044  0.00  0.00     0.000 C 
ENDBRANCH   3  13
BRANCH   2  16
ATOM     16  C   UNL d   1      13.478  12.069  -5.020  0.00  0.00     0.003 C 
ATOM     17  C   UNL d   1      14.116  12.039  -5.514  0.00  0.00     0.000 C 
ATOM     18  C   UNL d   1      12.772  11.779  -5.254  0.00  0.00     0.000 C 
ENDBRANCH   2  16
TORSDOF 4
ENDMDL
MODEL 2
REMARK VINA RESULT:      22.7      0.669      2.190
REMARK  4 active torsions:
REMARK  status: ('A' for Active; 'I' for Inactive)
REMARK    1  A    between atoms: C_12  and  C_2 
REMARK    2  A    between atoms: C_13  and  C_3 
REMARK    3  A    between atoms: N_8  and  C_6 
REMARK       I    between atoms: C_7  and  N_9 
REMARK    4  A    between atoms: N_9  and  N_8 
ROOT
ATOM      1  C   UNL d   1      13.381  13.485  -4.514  0.00  0.00     0.196 A 
ATOM      2  C   UNL d   1      13.443  13.851  -3.759  0.00  0.00     0.041 A 
ATOM      3  C   UNL d   1      13.370  12.689  -4.591  0.00  0.00     0.041 A 
ATOM      4  C   UNL d   1      13.495  13.373  -3.071  0.00  0.00     0.024 A 
ATOM      5  C   UNL d   1      13.421  12.206  -3.922  0.00  0.00     0.024 A 
ATOM      6  C   UNL d   1      13.483  12.543  -3.173  0.00  0.00     0.103 A 
ATOM      7  O   UNL d   1      13.325  13.948  -5.235  0.00  0.00    -0.287 OA
ENDROOT
BRANCH   6   8
ATOM      8  N   UNL d   1      13.536  12.052  -2.479  0.00  0.00    -0.144 NA
BRANCH   8   9
ATOM      9  N   UNL d   1      14.259  11.893  -2.094  0.00  0.00    -0.087 NA
ATOM     10  C   UNL d   1      14.347  11.945  -1.267  0.00  0.00     0.404 C 
ATOM     11  O   UNL d   1      13.690  12.165  -0.804  0.00  0.00    -0.239 OA
ATOM     12  N   UNL d   1      15.082  11.780  -0.909  0.00  0.00    -0.083 N 
ENDBRANCH   8   9
ENDBRANCH   6   8
BRANCH   3  13
ATOM     13  C   UNL d   1      13.308  12.363  -5.348  0.00  0.00     0.003 C 
ATOM     14  C   UNL d   1      12.774  11.779  -5.497  0.00  0.00     0.000 C 
ATOM     15  C   UNL d   1      13.798  12.642  -5.951  0.00  0.00     0.000 C 
ENDBRANCH   3  13
BRANCH   2  16
ATOM     16  C   UNL d   1      13.453  14.655  -3.694  0.00  0.00     0.003 C 
ATOM     17  C   UNL d   1      12.791  15.070  -3.899  0.00  0.00     0.000 C 
ATOM     18  C   UNL d   1      14.103  15.035  -3.431  0.00  0.00     0.000 C 
ENDBRANCH   2  16
TORSDOF 4
ENDMDL
MODEL 3
REMARK VINA RESULT:      23.5      1.517      3.763
REMARK  4 active torsions:
REMARK  status: ('A' for Active; 'I' for Inactive)
REMARK    1  A    between atoms: C_12  and  C_2 
REMARK    2  A    between atoms: C_13  and  C_3 
REMARK    3  A    between atoms: N_8  and  C_6 
REMARK       I    between atoms: C_7  and  N_9 
REMARK    4  A    between atoms: N_9  and  N_8 
ROOT
ATOM      1  C   UNL d   1      14.694  13.353  -1.022  0.00  0.00     0.196 A 
ATOM      2  C   UNL d   1      14.577  13.892  -1.658  0.00  0.00     0.041 A 
ATOM      3  C   UNL d   1      14.422  12.602  -1.058  0.00  0.00     0.041 A 
ATOM      4  C   UNL d   1      14.168  13.638  -2.345  0.00  0.00     0.024 A 
ATOM      5  C   UNL d   1      14.017  12.339  -1.729  0.00  0.00     0.024 A 
ATOM      6  C   UNL d   1      13.892  12.849  -2.363  0.00  0.00     0.103 A 
ATOM      7  O   UNL d   1      15.108  13.584  -0.306  0.00  0.00    -0.287 OA
ENDROOT
BRANCH   6   8
ATOM      8  N   UNL d   1      13.476  12.585  -3.057  0.00  0.00    -0.144 NA
BRANCH   8   9
ATOM      9  N   UNL d   1      13.813  12.606  -3.820  0.00  0.00    -0.087 NA
ATOM     10  C   UNL d   1      13.474  12.213  -4.472  0.00  0.00     0.404 C 
ATOM     11  O   UNL d   1      12.770  11.780  -4.361  0.00  0.00    -0.239 OA
ATOM     12  N   UNL d   1      13.833  12.251  -5.224  0.00  0.00    -0.083 N 
ENDBRANCH   8   9
ENDBRANCH   6   8
BRANCH   3  13
ATOM     13  C   UNL d   1      14.554  12.099  -0.416  0.00  0.00     0.003 C 
ATOM     14  C   UNL d   1      13.933  11.780  -0.014  0.00  0.00     0.000 C 
ATOM     15  C   UNL d   1      15.329  11.928  -0.188  0.00  0.00     0.000 C 
ENDBRANCH   3  13
BRANCH   2  16
ATOM     16  C   UNL d   1      14.856  14.647  -1.609  0.00  0.00     0.003 C 
ATOM     17  C   UNL d   1      14.978  15.062  -2.292  0.00  0.00     0.000 C 
ATOM     18  C   UNL d   1      15.009  14.981  -0.901  0.00  0.00     0.000 C 
ENDBRANCH   2  16
TORSDOF 4
ENDMDL
MODEL 4
REMARK VINA RESULT:      24.3      1.579      3.503
REMARK  4 active torsions:
REMARK  status: ('A' for Active; 'I' for Inactive)
REMARK    1  A    between atoms: C_12  and  C_2 
REMARK    2  A    between atoms: C_13  and  C_3 
REMARK    3  A    between atoms: N_8  and  C_6 
REMARK       I    between atoms: C_7  and  N_9 
REMARK    4  A    between atoms: N_9  and  N_8 
ROOT
ATOM      1  C   UNL d   1      14.654  13.381  -0.967  0.00  0.00     0.196 A 
ATOM      2  C   UNL d   1      14.328  12.606  -0.986  0.00  0.00     0.041 A 
ATOM      3  C   UNL d   1      14.585  13.877  -1.592  0.00  0.00     0.041 A 
ATOM      4  C   UNL d   1      13.922  12.344  -1.672  0.00  0.00     0.024 A 
ATOM      5  C   UNL d   1      14.188  13.632  -2.274  0.00  0.00     0.024 A 
ATOM      6  C   UNL d   1      13.861  12.877  -2.314  0.00  0.00     0.103 A 
ATOM      7  O   UNL d   1      15.074  13.677  -0.279  0.00  0.00    -0.287 OA
ENDROOT
BRANCH   6   8
ATOM      8  N   UNL d   1      13.451  12.618  -3.014  0.00  0.00    -0.144 NA
BRANCH   8   9
ATOM      9  N   UNL d   1      13.630  12.910  -3.775  0.00  0.00    -0.087 NA
ATOM     10  C   UNL d   1      13.405  12.512  -4.472  0.00  0.00     0.404 C 
ATOM     11  O   UNL d   1      12.986  11.794  -4.410  0.00  0.00    -0.239 OA
ATOM     12  N   UNL d   1      13.597  12.826  -5.220  0.00  0.00    -0.083 N 
ENDBRANCH   8   9
ENDBRANCH   6   8
BRANCH   3  13
ATOM     13  C   UNL d   1      14.918  14.631  -1.539  0.00  0.00     0.003 C 
ATOM     14  C   UNL d   1      14.896  15.131  -2.171  0.00  0.00     0.000 C 
ATOM     15  C   UNL d   1      15.273  14.869  -0.833  0.00  0.00     0.000 C 
ENDBRANCH   3  13
BRANCH   2  16
ATOM     16  C   UNL d   1      14.403  12.116  -0.350  0.00  0.00     0.003 C 
ATOM     17  C   UNL d   1      15.141  11.971  -0.055  0.00  0.00     0.000 C 
ATOM     18  C   UNL d   1      13.761  11.779  -0.016  0.00  0.00     0.000 C 
ENDBRANCH   2  16
TORSDOF 4
ENDMDL
MODEL 5
REMARK VINA RESULT:      24.5      2.137      3.605
REMARK  4 active torsions:
REMARK  status: ('A' for Active; 'I' for Inactive)
REMARK    1  A    between atoms: C_12  and  C_2 
REMARK    2  A    between atoms: C_13  and  C_3 
REMARK    3  A    between atoms: N_8  and  C_6 
REMARK       I    between atoms: C_7  and  N_9 
REMARK    4  A    between atoms: N_9  and  N_8 
ROOT
ATOM      1  C   UNL d   1      14.128  12.537  -1.627  0.00  0.00     0.196 A 
ATOM      2  C   UNL d   1      14.429  12.667  -0.852  0.00  0.00     0.041 A 
ATOM      3  C   UNL d   1      14.145  13.115  -2.181  0.00  0.00     0.041 A 
ATOM      4  C   UNL d   1      14.754  13.414  -0.653  0.00  0.00     0.024 A 
ATOM      5  C   UNL d   1      14.462  13.856  -1.999  0.00  0.00     0.024 A 
ATOM      6  C   UNL d   1      14.762  14.003  -1.247  0.00  0.00     0.103 A 
ATOM      7  O   UNL d   1      13.790  11.783  -1.860  0.00  0.00    -0.287 OA
ENDROOT
BRANCH   6   8
ATOM      8  N   UNL d   1      15.090  14.765  -1.052  0.00  0.00    -0.144 NA
BRANCH   8   9
ATOM      9  N   UNL d   1      14.833  15.472  -1.413  0.00  0.00    -0.087 NA
ATOM     10  C   UNL d   1      15.140  16.219  -1.206  0.00  0.00     0.404 C 
ATOM     11  O   UNL d   1      15.726  16.265  -0.616  0.00  0.00    -0.239 OA
ATOM     12  N   UNL d   1      14.864  16.909  -1.584  0.00  0.00    -0.083 N 
ENDBRANCH   8   9
ENDBRANCH   6   8
BRANCH   3  13
ATOM     13  C   UNL d   1      13.840  12.953  -2.932  0.00  0.00     0.003 C 
ATOM     14  C   UNL d   1      13.624  12.204  -3.132  0.00  0.00     0.000 C 
ATOM     15  C   UNL d   1      13.760  13.568  -3.477  0.00  0.00     0.000 C 
ENDBRANCH   3  13
BRANCH   2  16
ATOM     16  C   UNL d   1      14.407  12.077  -0.302  0.00  0.00     0.003 C 
ATOM     17  C   UNL d   1      15.104  11.786  -0.015  0.00  0.00     0.000 C 
ATOM     18  C   UNL d   1      13.710  11.785  -0.045  0.00  0.00     0.000 C 
ENDBRANCH   2  16
TORSDOF 4
ENDMDL
