MODEL 1
REMARK VINA RESULT:      -2.2      0.000      0.000
REMARK  3 active torsions:
REMARK  status: ('A' for Active; 'I' for Inactive)
REMARK    1  A    between atoms: C_7  and  N_1 
REMARK    2  A    between atoms: C_8  and  C_2 
REMARK    3  A    between atoms: N_4  and  C_9 
ROOT
ATOM      1  N   UNL d   1      60.005   0.073  29.289  0.00  0.00    -0.211 N 
ATOM      2  C   UNL d   1      60.224  -0.610  28.877  0.00  0.00     0.105 A 
ATOM      3  N   UNL d   1      60.569   0.661  29.126  0.00  0.00    -0.060 NA
ATOM      4  N   UNL d   1      61.133   0.341  28.614  0.00  0.00    -0.127 NA
ATOM      5  C   UNL d   1      60.916  -0.444  28.464  0.00  0.00     0.143 A 
ENDROOT
BRANCH   1   6
ATOM      6  C   UNL d   1      59.346   0.157  29.776  0.00  0.00     0.085 A 
ATOM      7  C   UNL d   1      59.408   0.005  30.584  0.00  0.00     0.021 A 
ATOM      8  C   UNL d   1      58.751   0.088  31.075  0.00  0.00     0.025 A 
ATOM      9  C   UNL d   1      58.027   0.325  30.752  0.00  0.00     0.127 A 
ATOM     10  C   UNL d   1      57.961   0.477  29.947  0.00  0.00     0.025 A 
ATOM     11  C   UNL d   1      58.620   0.394  29.457  0.00  0.00     0.021 A 
BRANCH   9  12
ATOM     12  N   UNL d   1      57.368   0.408  31.246  0.00  0.00    -0.114 N 
ATOM     13  O   UNL d   1      56.647   0.650  30.926  0.00  0.00    -0.532 OA
ATOM     14  O   UNL d   1      57.431   0.251  32.045  0.00  0.00    -0.532 OA
ENDBRANCH   9  12
ENDBRANCH   1   6
BRANCH   2  15
ATOM     15  C   UNL d   1      59.819  -1.329  28.881  0.00  0.00     0.019 A 
ATOM     16  C   UNL d   1      59.117  -1.409  28.455  0.00  0.00     0.002 A 
ATOM     17  C   UNL d   1      58.713  -2.124  28.457  0.00  0.00     0.011 A 
ATOM     18  C   UNL d   1      59.009  -2.771  28.889  0.00  0.00     0.058 A 
ATOM     19  C   UNL d   1      59.717  -2.688  29.318  0.00  0.00     0.011 A 
ATOM     20 CL   UNL d   1      58.604  -3.484  28.890  0.00  0.00    -0.082 Cl
ATOM     21  C   UNL d   1      60.119  -1.973  29.314  0.00  0.00     0.002 A 
ENDBRANCH   2  15
TORSDOF 3
ENDMDL
MODEL 2
REMARK VINA RESULT:      -0.3      1.942      2.495
REMARK  3 active torsions:
REMARK  status: ('A' for Active; 'I' for Inactive)
REMARK    1  A    between atoms: C_7  and  N_1 
REMARK    2  A    between atoms: C_8  and  C_2 
REMARK    3  A    between atoms: N_4  and  C_9 
ROOT
ATOM      1  N   UNL d   1      57.614   0.284  29.814  0.00  0.00    -0.211 N 
ATOM      2  C   UNL d   1      58.317   0.168  29.393  0.00  0.00     0.105 A 
ATOM      3  N   UNL d   1      57.053   0.602  29.291  0.00  0.00    -0.060 NA
ATOM      4  N   UNL d   1      57.409   0.682  28.549  0.00  0.00    -0.127 NA
ATOM      5  C   UNL d   1      58.189   0.412  28.618  0.00  0.00     0.143 A 
ENDROOT
BRANCH   1   6
ATOM      6  C   UNL d   1      57.491   0.115  30.611  0.00  0.00     0.085 A 
ATOM      7  C   UNL d   1      57.663   0.682  31.184  0.00  0.00     0.021 A 
ATOM      8  C   UNL d   1      57.541   0.517  31.982  0.00  0.00     0.025 A 
ATOM      9  C   UNL d   1      57.245  -0.222  32.207  0.00  0.00     0.127 A 
ATOM     10  C   UNL d   1      57.072  -0.790  31.637  0.00  0.00     0.025 A 
ATOM     11  C   UNL d   1      57.194  -0.623  30.839  0.00  0.00     0.021 A 
BRANCH   9  12
ATOM     12  N   UNL d   1      57.123  -0.386  33.009  0.00  0.00    -0.114 N 
ATOM     13  O   UNL d   1      56.821  -1.121  33.233  0.00  0.00    -0.532 OA
ATOM     14  O   UNL d   1      57.300   0.175  33.574  0.00  0.00    -0.532 OA
ENDBRANCH   9  12
ENDBRANCH   1   6
BRANCH   2  15
ATOM     15  C   UNL d   1      59.019  -0.138  29.698  0.00  0.00     0.019 A 
ATOM     16  C   UNL d   1      59.598   0.371  29.991  0.00  0.00     0.002 A 
ATOM     17  C   UNL d   1      60.299   0.069  30.295  0.00  0.00     0.011 A 
ATOM     18  C   UNL d   1      60.428  -0.753  30.309  0.00  0.00     0.058 A 
ATOM     19  C   UNL d   1      59.844  -1.265  30.013  0.00  0.00     0.011 A 
ATOM     20 CL   UNL d   1      61.128  -1.054  30.613  0.00  0.00    -0.082 Cl
ATOM     21  C   UNL d   1      59.144  -0.960  29.710  0.00  0.00     0.002 A 
ENDBRANCH   2  15
TORSDOF 3
ENDMDL
MODEL 3
REMARK VINA RESULT:       0.3      1.835      2.343
REMARK  3 active torsions:
REMARK  status: ('A' for Active; 'I' for Inactive)
REMARK    1  A    between atoms: C_7  and  N_1 
REMARK    2  A    between atoms: C_8  and  C_2 
REMARK    3  A    between atoms: N_4  and  C_9 
ROOT
ATOM      1  N   UNL d   1      58.380  -1.986  29.522  0.00  0.00    -0.211 N 
ATOM      2  C   UNL d   1      59.073  -1.942  29.074  0.00  0.00     0.105 A 
ATOM      3  N   UNL d   1      58.036  -2.731  29.389  0.00  0.00    -0.060 NA
ATOM      4  N   UNL d   1      58.518  -3.145  28.860  0.00  0.00    -0.127 NA
ATOM      5  C   UNL d   1      59.157  -2.654  28.669  0.00  0.00     0.143 A 
ENDROOT
BRANCH   1   6
ATOM      6  C   UNL d   1      58.080  -1.397  30.014  0.00  0.00     0.085 A 
ATOM      7  C   UNL d   1      58.068  -1.508  30.830  0.00  0.00     0.021 A 
ATOM      8  C   UNL d   1      57.769  -0.922  31.326  0.00  0.00     0.025 A 
ATOM      9  C   UNL d   1      57.481  -0.218  31.000  0.00  0.00     0.127 A 
ATOM     10  C   UNL d   1      57.492  -0.103  30.185  0.00  0.00     0.025 A 
ATOM     11  C   UNL d   1      57.791  -0.692  29.691  0.00  0.00     0.021 A 
BRANCH   9  12
ATOM     12  N   UNL d   1      57.181   0.371  31.498  0.00  0.00    -0.114 N 
ATOM     13  O   UNL d   1      56.412   0.648  31.385  0.00  0.00    -0.532 OA
ATOM     14  O   UNL d   1      57.644   0.675  32.099  0.00  0.00    -0.532 OA
ENDBRANCH   9  12
ENDBRANCH   1   6
BRANCH   2  15
ATOM     15  C   UNL d   1      59.589  -1.299  29.040  0.00  0.00     0.019 A 
ATOM     16  C   UNL d   1      59.461  -0.697  28.491  0.00  0.00     0.002 A 
ATOM     17  C   UNL d   1      59.972  -0.055  28.455  0.00  0.00     0.011 A 
ATOM     18  C   UNL d   1      60.623  -0.010  28.973  0.00  0.00     0.058 A 
ATOM     19  C   UNL d   1      60.751  -0.618  29.526  0.00  0.00     0.011 A 
ATOM     20 CL   UNL d   1      61.133   0.631  28.936  0.00  0.00    -0.082 Cl
ATOM     21  C   UNL d   1      60.237  -1.258  29.560  0.00  0.00     0.002 A 
ENDBRANCH   2  15
TORSDOF 3
ENDMDL
