MODEL 1
REMARK VINA RESULT:      -2.9      0.000      0.000
REMARK  3 active torsions:
REMARK  status: ('A' for Active; 'I' for Inactive)
REMARK    1  A    between atoms: C_6  and  C_1 
REMARK    2  A    between atoms: C_7  and  C_5 
REMARK    3  A    between atoms: C_15  and  C_14 
ROOT
ATOM      1  C   UNL d   1      32.506  21.784 -21.113  0.00  0.00     0.169 A 
ATOM      2  C   UNL d   1      32.172  21.077 -21.029  0.00  0.00     0.048 A 
ATOM      3  N   UNL d   1      33.240  21.312 -22.143  0.00  0.00    -0.148 NA
ATOM      4  N   UNL d   1      33.047  21.905 -21.676  0.00  0.00    -0.142 NA
ATOM      5  C   UNL d   1      32.906  20.601 -22.062  0.00  0.00     0.105 A 
ENDROOT
BRANCH   5   6
ATOM      6  C   UNL d   1      32.981  19.885 -22.448  0.00  0.00     0.019 A 
ATOM      7  C   UNL d   1      33.164  19.203 -22.011  0.00  0.00     0.002 A 
ATOM      8  C   UNL d   1      33.241  18.484 -22.391  0.00  0.00     0.000 A 
ATOM      9  C   UNL d   1      33.138  18.431 -23.208  0.00  0.00     0.000 A 
ATOM     10  C   UNL d   1      32.955  19.114 -23.646  0.00  0.00     0.000 A 
ATOM     11  C   UNL d   1      32.878  19.838 -23.258  0.00  0.00     0.002 A 
BRANCH   9  12
ATOM     12  C   UNL d   1      33.218  17.685 -23.603  0.00  0.00     0.000 C 
ATOM     13  C   UNL d   1      32.617  17.099 -23.524  0.00  0.00     0.000 C 
ENDBRANCH   9  12
ENDBRANCH   5   6
BRANCH   1  14
ATOM     14  C   UNL d   1      32.298  22.365 -20.632  0.00  0.00     0.231 C 
ATOM     15  O   UNL d   1      32.572  22.375 -19.891  0.00  0.00    -0.643 OA
ATOM     16  O   UNL d   1      31.818  22.938 -20.885  0.00  0.00    -0.643 OA
ENDBRANCH   1  14
TORSDOF 3
ENDMDL
MODEL 2
REMARK VINA RESULT:      -2.9      2.253      4.192
REMARK  3 active torsions:
REMARK  status: ('A' for Active; 'I' for Inactive)
REMARK    1  A    between atoms: C_6  and  C_1 
REMARK    2  A    between atoms: C_7  and  C_5 
REMARK    3  A    between atoms: C_15  and  C_14 
ROOT
ATOM      1  C   UNL d   1      32.866  18.938 -22.922  0.00  0.00     0.169 A 
ATOM      2  C   UNL d   1      32.501  19.597 -23.144  0.00  0.00     0.048 A 
ATOM      3  N   UNL d   1      33.241  19.536 -21.771  0.00  0.00    -0.148 NA
ATOM      4  N   UNL d   1      33.241  18.905 -22.227  0.00  0.00    -0.142 NA
ATOM      5  C   UNL d   1      32.875  20.201 -21.991  0.00  0.00     0.105 A 
ENDROOT
BRANCH   5   6
ATOM      6  C   UNL d   1      32.774  20.937 -21.654  0.00  0.00     0.019 A 
ATOM      7  C   UNL d   1      33.171  21.592 -21.976  0.00  0.00     0.002 A 
ATOM      8  C   UNL d   1      33.073  22.332 -21.642  0.00  0.00     0.000 A 
ATOM      9  C   UNL d   1      32.582  22.433 -20.988  0.00  0.00     0.000 A 
ATOM     10  C   UNL d   1      32.184  21.777 -20.665  0.00  0.00     0.000 A 
ATOM     11  C   UNL d   1      32.285  21.032 -21.004  0.00  0.00     0.002 A 
BRANCH   9  12
ATOM     12  C   UNL d   1      32.481  23.200 -20.642  0.00  0.00     0.000 C 
ATOM     13  C   UNL d   1      32.929  23.420 -19.963  0.00  0.00     0.000 C 
ENDBRANCH   9  12
ENDBRANCH   5   6
BRANCH   1  14
ATOM     14  C   UNL d   1      32.853  18.315 -23.395  0.00  0.00     0.231 C 
ATOM     15  O   UNL d   1      32.772  17.593 -23.087  0.00  0.00    -0.643 OA
ATOM     16  O   UNL d   1      32.922  18.407 -24.176  0.00  0.00    -0.643 OA
ENDBRANCH   1  14
TORSDOF 3
ENDMDL
MODEL 3
REMARK VINA RESULT:      -2.6      2.812      4.236
REMARK  3 active torsions:
REMARK  status: ('A' for Active; 'I' for Inactive)
REMARK    1  A    between atoms: C_6  and  C_1 
REMARK    2  A    between atoms: C_7  and  C_5 
REMARK    3  A    between atoms: C_15  and  C_14 
ROOT
ATOM      1  C   UNL d   1      32.697  17.741 -23.440  0.00  0.00     0.169 A 
ATOM      2  C   UNL d   1      32.452  18.440 -23.704  0.00  0.00     0.048 A 
ATOM      3  N   UNL d   1      33.225  18.338 -22.351  0.00  0.00    -0.148 NA
ATOM      4  N   UNL d   1      33.088  17.687 -22.756  0.00  0.00    -0.142 NA
ATOM      5  C   UNL d   1      32.981  19.043 -22.613  0.00  0.00     0.105 A 
ENDROOT
BRANCH   5   6
ATOM      6  C   UNL d   1      33.033  19.808 -22.331  0.00  0.00     0.019 A 
ATOM      7  C   UNL d   1      32.930  19.952 -21.520  0.00  0.00     0.002 A 
ATOM      8  C   UNL d   1      32.980  20.715 -21.232  0.00  0.00     0.000 A 
ATOM      9  C   UNL d   1      33.133  21.344 -21.744  0.00  0.00     0.000 A 
ATOM     10  C   UNL d   1      33.236  21.200 -22.556  0.00  0.00     0.000 A 
ATOM     11  C   UNL d   1      33.185  20.427 -22.843  0.00  0.00     0.002 A 
BRANCH   9  12
ATOM     12  C   UNL d   1      33.186  22.136 -21.446  0.00  0.00     0.000 C 
ATOM     13  C   UNL d   1      32.485  22.555 -21.235  0.00  0.00     0.000 C 
ENDBRANCH   9  12
ENDBRANCH   5   6
BRANCH   1  14
ATOM     14  C   UNL d   1      32.549  17.099 -23.863  0.00  0.00     0.231 C 
ATOM     15  O   UNL d   1      31.849  16.740 -23.793  0.00  0.00    -0.643 OA
ATOM     16  O   UNL d   1      33.094  16.812 -24.356  0.00  0.00    -0.643 OA
ENDBRANCH   1  14
TORSDOF 3
ENDMDL
MODEL 4
REMARK VINA RESULT:      -2.5      3.881      4.825
REMARK  3 active torsions:
REMARK  status: ('A' for Active; 'I' for Inactive)
REMARK    1  A    between atoms: C_6  and  C_1 
REMARK    2  A    between atoms: C_7  and  C_5 
REMARK    3  A    between atoms: C_15  and  C_14 
ROOT
ATOM      1  C   UNL d   1      33.010  22.988 -16.935  0.00  0.00     0.169 A 
ATOM      2  C   UNL d   1      33.241  22.405 -17.409  0.00  0.00     0.048 A 
ATOM      3  N   UNL d   1      32.615  23.702 -18.010  0.00  0.00    -0.148 NA
ATOM      4  N   UNL d   1      32.694  23.645 -17.237  0.00  0.00    -0.142 NA
ATOM      5  C   UNL d   1      32.846  23.118 -18.490  0.00  0.00     0.105 A 
ENDROOT
BRANCH   5   6
ATOM      6  C   UNL d   1      32.841  23.006 -19.299  0.00  0.00     0.019 A 
ATOM      7  C   UNL d   1      32.436  23.545 -19.784  0.00  0.00     0.002 A 
ATOM      8  C   UNL d   1      32.428  23.437 -20.594  0.00  0.00     0.000 A 
ATOM      9  C   UNL d   1      32.820  22.796 -20.933  0.00  0.00     0.000 A 
ATOM     10  C   UNL d   1      33.225  22.256 -20.448  0.00  0.00     0.000 A 
ATOM     11  C   UNL d   1      33.232  22.368 -19.630  0.00  0.00     0.002 A 
BRANCH   9  12
ATOM     12  C   UNL d   1      32.812  22.684 -21.773  0.00  0.00     0.000 C 
ATOM     13  C   UNL d   1      32.595  23.321 -22.282  0.00  0.00     0.000 C 
ENDBRANCH   9  12
ENDBRANCH   5   6
BRANCH   1  14
ATOM     14  C   UNL d   1      33.098  22.910 -16.162  0.00  0.00     0.231 C 
ATOM     15  O   UNL d   1      33.043  22.194 -15.833  0.00  0.00    -0.643 OA
ATOM     16  O   UNL d   1      33.241  23.542 -15.711  0.00  0.00    -0.643 OA
ENDBRANCH   1  14
TORSDOF 3
ENDMDL
MODEL 5
REMARK VINA RESULT:      -2.4      3.842      5.066
REMARK  3 active torsions:
REMARK  status: ('A' for Active; 'I' for Inactive)
REMARK    1  A    between atoms: C_6  and  C_1 
REMARK    2  A    between atoms: C_7  and  C_5 
REMARK    3  A    between atoms: C_15  and  C_14 
ROOT
ATOM      1  C   UNL d   1      32.180  18.111 -24.421  0.00  0.00     0.169 A 
ATOM      2  C   UNL d   1      31.945  17.739 -23.770  0.00  0.00     0.048 A 
ATOM      3  N   UNL d   1      31.080  17.670 -25.067  0.00  0.00    -0.148 NA
ATOM      4  N   UNL d   1      31.744  18.077 -25.079  0.00  0.00    -0.142 NA
ATOM      5  C   UNL d   1      30.840  17.296 -24.414  0.00  0.00     0.105 A 
ENDROOT
BRANCH   5   6
ATOM      6  C   UNL d   1      30.193  16.836 -24.222  0.00  0.00     0.019 A 
ATOM      7  C   UNL d   1      29.430  17.158 -24.287  0.00  0.00     0.002 A 
ATOM      8  C   UNL d   1      28.778  16.702 -24.096  0.00  0.00     0.000 A 
ATOM      9  C   UNL d   1      28.874  15.924 -23.839  0.00  0.00     0.000 A 
ATOM     10  C   UNL d   1      29.638  15.602 -23.774  0.00  0.00     0.000 A 
ATOM     11  C   UNL d   1      30.294  16.065 -23.968  0.00  0.00     0.002 A 
BRANCH   9  12
ATOM     12  C   UNL d   1      28.199  15.453 -23.641  0.00  0.00     0.000 C 
ATOM     13  C   UNL d   1      27.536  15.803 -23.256  0.00  0.00     0.000 C 
ENDBRANCH   9  12
ENDBRANCH   5   6
BRANCH   1  14
ATOM     14  C   UNL d   1      32.850  18.514 -24.411  0.00  0.00     0.231 C 
ATOM     15  O   UNL d   1      33.135  18.780 -23.724  0.00  0.00    -0.643 OA
ATOM     16  O   UNL d   1      33.241  18.655 -25.082  0.00  0.00    -0.643 OA
ENDBRANCH   1  14
TORSDOF 3
ENDMDL
MODEL 6
REMARK VINA RESULT:      -2.3      1.035      1.565
REMARK  3 active torsions:
REMARK  status: ('A' for Active; 'I' for Inactive)
REMARK    1  A    between atoms: C_6  and  C_1 
REMARK    2  A    between atoms: C_7  and  C_5 
REMARK    3  A    between atoms: C_15  and  C_14 
ROOT
ATOM      1  C   UNL d   1      32.970  20.627 -21.936  0.00  0.00     0.169 A 
ATOM      2  C   UNL d   1      32.679  19.953 -21.655  0.00  0.00     0.048 A 
ATOM      3  N   UNL d   1      33.210  20.026 -23.121  0.00  0.00    -0.148 NA
ATOM      4  N   UNL d   1      33.239  20.665 -22.678  0.00  0.00    -0.142 NA
ATOM      5  C   UNL d   1      32.917  19.347 -22.842  0.00  0.00     0.105 A 
ENDROOT
BRANCH   5   6
ATOM      6  C   UNL d   1      32.810  18.599 -23.152  0.00  0.00     0.019 A 
ATOM      7  C   UNL d   1      33.238  17.961 -22.835  0.00  0.00     0.002 A 
ATOM      8  C   UNL d   1      33.134  17.210 -23.141  0.00  0.00     0.000 A 
ATOM      9  C   UNL d   1      32.608  17.081 -23.762  0.00  0.00     0.000 A 
ATOM     10  C   UNL d   1      32.179  17.720 -24.079  0.00  0.00     0.000 A 
ATOM     11  C   UNL d   1      32.286  18.477 -23.768  0.00  0.00     0.002 A 
BRANCH   9  12
ATOM     12  C   UNL d   1      32.500  16.303 -24.079  0.00  0.00     0.000 C 
ATOM     13  C   UNL d   1      33.069  15.982 -24.613  0.00  0.00     0.000 C 
ENDBRANCH   9  12
ENDBRANCH   5   6
BRANCH   1  14
ATOM     14  C   UNL d   1      32.991  21.257 -21.474  0.00  0.00     0.231 C 
ATOM     15  O   UNL d   1      32.805  21.186 -20.710  0.00  0.00    -0.643 OA
ATOM     16  O   UNL d   1      33.196  21.960 -21.767  0.00  0.00    -0.643 OA
ENDBRANCH   1  14
TORSDOF 3
ENDMDL
MODEL 7
REMARK VINA RESULT:      -1.8      2.838      5.198
REMARK  3 active torsions:
REMARK  status: ('A' for Active; 'I' for Inactive)
REMARK    1  A    between atoms: C_6  and  C_1 
REMARK    2  A    between atoms: C_7  and  C_5 
REMARK    3  A    between atoms: C_15  and  C_14 
ROOT
ATOM      1  C   UNL d   1      32.577  22.339 -21.347  0.00  0.00     0.169 A 
ATOM      2  C   UNL d   1      32.116  22.064 -20.773  0.00  0.00     0.048 A 
ATOM      3  N   UNL d   1      33.241  23.096 -20.447  0.00  0.00    -0.148 NA
ATOM      4  N   UNL d   1      33.147  22.862 -21.184  0.00  0.00    -0.142 NA
ATOM      5  C   UNL d   1      32.779  22.821 -19.868  0.00  0.00     0.105 A 
ENDROOT
BRANCH   5   6
ATOM      6  C   UNL d   1      32.732  22.950 -19.062  0.00  0.00     0.019 A 
ATOM      7  C   UNL d   1      33.204  22.498 -18.549  0.00  0.00     0.002 A 
ATOM      8  C   UNL d   1      33.161  22.622 -17.742  0.00  0.00     0.000 A 
ATOM      9  C   UNL d   1      32.653  23.194 -17.434  0.00  0.00     0.000 A 
ATOM     10  C   UNL d   1      32.182  23.646 -17.948  0.00  0.00     0.000 A 
ATOM     11  C   UNL d   1      32.227  23.519 -18.762  0.00  0.00     0.002 A 
BRANCH   9  12
ATOM     12  C   UNL d   1      32.610  23.322 -16.598  0.00  0.00     0.000 C 
ATOM     13  C   UNL d   1      33.235  23.060 -16.096  0.00  0.00     0.000 C 
ENDBRANCH   9  12
ENDBRANCH   5   6
BRANCH   1  14
ATOM     14  C   UNL d   1      32.466  22.090 -22.079  0.00  0.00     0.231 C 
ATOM     15  O   UNL d   1      31.919  22.439 -22.531  0.00  0.00    -0.643 OA
ATOM     16  O   UNL d   1      32.896  21.495 -22.368  0.00  0.00    -0.643 OA
ENDBRANCH   1  14
TORSDOF 3
ENDMDL
MODEL 8
REMARK VINA RESULT:      -0.7      3.668      4.349
REMARK  3 active torsions:
REMARK  status: ('A' for Active; 'I' for Inactive)
REMARK    1  A    between atoms: C_6  and  C_1 
REMARK    2  A    between atoms: C_7  and  C_5 
REMARK    3  A    between atoms: C_15  and  C_14 
ROOT
ATOM      1  C   UNL d   1      32.471  23.218 -17.962  0.00  0.00     0.169 A 
ATOM      2  C   UNL d   1      32.884  23.695 -18.432  0.00  0.00     0.048 A 
ATOM      3  N   UNL d   1      31.935  22.617 -19.046  0.00  0.00    -0.148 NA
ATOM      4  N   UNL d   1      31.991  22.673 -18.271  0.00  0.00    -0.142 NA
ATOM      5  C   UNL d   1      32.348  23.094 -19.521  0.00  0.00     0.105 A 
ENDROOT
BRANCH   5   6
ATOM      6  C   UNL d   1      32.415  23.178 -20.331  0.00  0.00     0.019 A 
ATOM      7  C   UNL d   1      31.727  23.263 -20.790  0.00  0.00     0.002 A 
ATOM      8  C   UNL d   1      31.788  23.347 -21.601  0.00  0.00     0.000 A 
ATOM      9  C   UNL d   1      32.527  23.349 -21.967  0.00  0.00     0.000 A 
ATOM     10  C   UNL d   1      33.215  23.264 -21.507  0.00  0.00     0.000 A 
ATOM     11  C   UNL d   1      33.150  23.179 -20.688  0.00  0.00     0.002 A 
BRANCH   9  12
ATOM     12  C   UNL d   1      32.589  23.437 -22.807  0.00  0.00     0.000 C 
ATOM     13  C   UNL d   1      33.060  22.899 -23.254  0.00  0.00     0.000 C 
ENDBRANCH   9  12
ENDBRANCH   5   6
BRANCH   1  14
ATOM     14  C   UNL d   1      32.542  23.291 -17.187  0.00  0.00     0.231 C 
ATOM     15  O   UNL d   1      33.148  23.700 -16.887  0.00  0.00    -0.643 OA
ATOM     16  O   UNL d   1      32.012  22.959 -16.705  0.00  0.00    -0.643 OA
ENDBRANCH   1  14
TORSDOF 3
ENDMDL
MODEL 9
REMARK VINA RESULT:      -0.4      3.230      4.453
REMARK  3 active torsions:
REMARK  status: ('A' for Active; 'I' for Inactive)
REMARK    1  A    between atoms: C_6  and  C_1 
REMARK    2  A    between atoms: C_7  and  C_5 
REMARK    3  A    between atoms: C_15  and  C_14 
ROOT
ATOM      1  C   UNL d   1      32.722  17.351 -23.628  0.00  0.00     0.169 A 
ATOM      2  C   UNL d   1      32.640  17.924 -23.095  0.00  0.00     0.048 A 
ATOM      3  N   UNL d   1      33.015  18.273 -24.570  0.00  0.00    -0.148 NA
ATOM      4  N   UNL d   1      32.912  17.526 -24.374  0.00  0.00    -0.142 NA
ATOM      5  C   UNL d   1      32.933  18.851 -24.037  0.00  0.00     0.105 A 
ENDROOT
BRANCH   5   6
ATOM      6  C   UNL d   1      32.999  19.665 -24.060  0.00  0.00     0.019 A 
ATOM      7  C   UNL d   1      33.173  20.040 -24.781  0.00  0.00     0.002 A 
ATOM      8  C   UNL d   1      33.241  20.854 -24.810  0.00  0.00     0.000 A 
ATOM      9  C   UNL d   1      33.138  21.306 -24.127  0.00  0.00     0.000 A 
ATOM     10  C   UNL d   1      32.964  20.930 -23.406  0.00  0.00     0.000 A 
ATOM     11  C   UNL d   1      32.896  20.108 -23.380  0.00  0.00     0.002 A 
BRANCH   9  12
ATOM     12  C   UNL d   1      33.209  22.150 -24.157  0.00  0.00     0.000 C 
ATOM     13  C   UNL d   1      32.979  22.569 -24.852  0.00  0.00     0.000 C 
ENDBRANCH   9  12
ENDBRANCH   5   6
BRANCH   1  14
ATOM     14  C   UNL d   1      32.615  16.608 -23.410  0.00  0.00     0.231 C 
ATOM     15  O   UNL d   1      33.189  16.229 -23.022  0.00  0.00    -0.643 OA
ATOM     16  O   UNL d   1      31.939  16.238 -23.577  0.00  0.00    -0.643 OA
ENDBRANCH   1  14
TORSDOF 3
ENDMDL
