MODEL 1
REMARK VINA RESULT:       2.0      0.000      0.000
REMARK  7 active torsions:
REMARK  status: ('A' for Active; 'I' for Inactive)
REMARK    1  A    between atoms: C_7  and  C_1 
REMARK    2  A    between atoms: N_5  and  C_2 
REMARK       I    between atoms: C_8  and  N_5 
REMARK    3  A    between atoms: N_9  and  C_7 
REMARK    4  A    between atoms: C_12  and  C_7 
REMARK    5  A    between atoms: C_10  and  C_8 
REMARK    6  A    between atoms: C_26  and  N_11 
REMARK    7  A    between atoms: C_30  and  C_26 
ROOT
ATOM      1  C   UNL d   1      59.265  -0.548  30.082  0.00  0.00     0.068 C 
ENDROOT
BRANCH   1   2
ATOM      2  C   UNL d   1      58.511  -0.180  29.914  0.00  0.00     0.041 A 
ATOM      3  C   UNL d   1      57.876   0.021  30.377  0.00  0.00     0.115 A 
ATOM      4  S   UNL d   1      57.312   0.363  29.878  0.00  0.00    -0.068 SA
ATOM      5  C   UNL d   1      57.574   0.384  29.105  0.00  0.00     0.031 A 
ATOM      6  C   UNL d   1      58.351   0.035  29.111  0.00  0.00     0.009 A 
ATOM      7  C   UNL d   1      57.169   0.682  28.456  0.00  0.00     0.007 C 
ATOM      8  C   UNL d   1      58.835  -0.065  28.455  0.00  0.00     0.001 C 
BRANCH   3   9
ATOM      9  N   UNL d   1      57.796  -0.087  31.184  0.00  0.00    -0.200 NA
ATOM     10  C   UNL d   1      57.036  -0.115  31.510  0.00  0.00     0.302 C 
ATOM     11  O   UNL d   1      56.375  -0.034  31.022  0.00  0.00    -0.263 OA
BRANCH  10  12
ATOM     12  C   UNL d   1      56.925  -0.223  32.319  0.00  0.00     0.158 A 
ATOM     13  O   UNL d   1      57.215   0.229  32.964  0.00  0.00    -0.300 OA
ATOM     14  C   UNL d   1      56.933  -0.131  33.653  0.00  0.00     0.123 A 
ATOM     15  C   UNL d   1      56.488  -0.778  33.425  0.00  0.00     0.029 A 
ATOM     16  C   UNL d   1      56.472  -0.852  32.607  0.00  0.00     0.032 A 
ENDBRANCH  10  12
ENDBRANCH   3   9
ENDBRANCH   1   2
BRANCH   1  17
ATOM     17  N   UNL d   1      59.388  -1.350  29.809  0.00  0.00    -0.301 N 
ATOM     18  C   UNL d   1      60.020  -1.492  29.302  0.00  0.00     0.100 A 
ATOM     19  C   UNL d   1      60.139  -2.263  29.039  0.00  0.00     0.100 A 
ATOM     20  N   UNL d   1      59.627  -2.888  29.282  0.00  0.00    -0.297 N 
ATOM     21  C   UNL d   1      59.015  -2.722  29.779  0.00  0.00     0.100 A 
ATOM     22  C   UNL d   1      58.876  -1.976  30.052  0.00  0.00     0.100 A 
BRANCH  20  23
ATOM     23  C   UNL d   1      59.764  -3.673  29.002  0.00  0.00     0.126 C 
BRANCH  23  24
ATOM     24  C   UNL d   1      60.465  -3.858  28.570  0.00  0.00     0.253 C 
ATOM     25  O   UNL d   1      60.734  -4.652  28.518  0.00  0.00    -0.281 OA
ENDBRANCH  23  24
ENDBRANCH  20  23
ENDBRANCH   1  17
BRANCH   1  26
ATOM     26  C   UNL d   1      59.865  -0.137  30.500  0.00  0.00     0.035 A 
ATOM     27  C   UNL d   1      60.484   0.219  30.066  0.00  0.00     0.100 A 
ATOM     28  N   UNL d   1      61.087   0.632  30.486  0.00  0.00    -0.242 NA
ATOM     29  C   UNL d   1      61.035   0.666  31.314  0.00  0.00     0.099 A 
ATOM     30  C   UNL d   1      60.434   0.321  31.729  0.00  0.00     0.021 A 
ATOM     31  C   UNL d   1      59.832  -0.092  31.309  0.00  0.00     0.005 A 
ENDBRANCH   1  26
TORSDOF 7
ENDMDL
