MODEL 1
REMARK VINA RESULT:       7.9      0.000      0.000
REMARK  4 active torsions:
REMARK  status: ('A' for Active; 'I' for Inactive)
REMARK       I    between atoms: C_7  and  N_9 
REMARK    1  A    between atoms: C_15  and  C_7 
REMARK    2  A    between atoms: N_9  and  C_12 
REMARK    3  A    between atoms: C_16  and  C_15 
REMARK    4  A    between atoms: C_17  and  C_16 
ROOT
ATOM      1  N   UNL d   1      23.361  13.059  -0.070  0.00  0.00    -0.169 NA
ATOM      2  C   UNL d   1      23.202  12.440  -0.586  0.00  0.00     0.282 A 
ATOM      3  C   UNL d   1      23.932  13.535  -0.411  0.00  0.00     0.282 A 
ATOM      4  C   UNL d   1      23.683  12.537  -1.254  0.00  0.00     0.064 A 
ATOM      5  C   UNL d   1      24.129  13.213  -1.139  0.00  0.00     0.063 A 
ATOM      6  C   UNL d   1      24.664  13.450  -1.720  0.00  0.00     0.006 A 
ATOM      7  C   UNL d   1      23.759  12.089  -1.943  0.00  0.00     0.024 A 
ATOM      8  O   UNL d   1      22.658  11.840  -0.445  0.00  0.00    -0.265 OA
ATOM      9  O   UNL d   1      24.257  14.218  -0.087  0.00  0.00    -0.265 OA
ATOM     10  C   UNL d   1      24.291  12.326  -2.519  0.00  0.00     0.085 A 
ATOM     11  C   UNL d   1      24.747  13.010  -2.411  0.00  0.00     0.019 A 
ENDROOT
BRANCH  10  12
ATOM     12  N   UNL d   1      24.367  11.879  -3.208  0.00  0.00    -0.208 NA
ATOM     13  C   UNL d   1      24.517  12.251  -3.923  0.00  0.00     0.279 C 
ATOM     14  O   UNL d   1      24.593  11.802  -4.606  0.00  0.00    -0.265 OA
BRANCH  13  15
ATOM     15  C   UNL d   1      24.592  13.062  -3.960  0.00  0.00     0.062 C 
BRANCH  15  16
ATOM     16  C   UNL d   1      24.540  13.439  -4.693  0.00  0.00     0.005 C 
BRANCH  16  17
ATOM     17  C   UNL d   1      24.729  13.023  -5.383  0.00  0.00     0.000 C 
ATOM     18  C   UNL d   1      24.741  13.412  -6.111  0.00  0.00     0.000 C 
ENDBRANCH  16  17
ENDBRANCH  15  16
ENDBRANCH  13  15
ENDBRANCH  10  12
TORSDOF 4
ENDMDL
