MODEL 1
REMARK VINA RESULT:      -7.1      0.000      0.000
REMARK  5 active torsions:
REMARK  status: ('A' for Active; 'I' for Inactive)
REMARK    1  A    between atoms: N_5  and  C_3 
REMARK    2  A    between atoms: O_13  and  C_4 
REMARK       I    between atoms: C_6  and  N_5 
REMARK    3  A    between atoms: C_9  and  C_6 
REMARK    4  A    between atoms: O_14  and  C_7 
REMARK    5  A    between atoms: O_18  and  C_15 
ROOT
ATOM      1  N   UNL d   1     -47.175  13.773  22.990  0.00  0.00    -0.189 NA
ATOM      2  C   UNL d   1     -47.880  13.643  22.565  0.00  0.00     0.281 C 
ATOM      3  O   UNL d   1     -47.936  12.996  22.029  0.00  0.00    -0.265 OA
ENDROOT
BRANCH   1   4
ATOM      4  C   UNL d   1     -46.533  13.265  22.882  0.00  0.00     0.173 A 
ATOM      5  N   UNL d   1     -45.955  13.434  22.307  0.00  0.00    -0.186 NA
ATOM      6  C   UNL d   1     -45.319  12.924  22.205  0.00  0.00     0.273 A 
ATOM      7  N   UNL d   1     -45.267  12.242  22.685  0.00  0.00    -0.181 NA
ATOM      8  C   UNL d   1     -45.818  12.081  23.234  0.00  0.00     0.185 A 
ATOM      9  C   UNL d   1     -46.469  12.588  23.350  0.00  0.00     0.083 A 
BRANCH   6  10
ATOM     10  O   UNL d   1     -44.762  13.087  21.650  0.00  0.00    -0.297 OA
ATOM     11  C   UNL d   1     -43.972  13.083  21.839  0.00  0.00     0.185 C 
ENDBRANCH   6  10
BRANCH   8  12
ATOM     12  O   UNL d   1     -45.738  11.393  23.698  0.00  0.00    -0.312 OA
ATOM     13  C   UNL d   1     -46.288  10.774  23.586  0.00  0.00     0.183 C 
ENDBRANCH   8  12
ENDBRANCH   1   4
BRANCH   2  14
ATOM     14  C   UNL d   1     -48.514  14.158  22.682  0.00  0.00     0.058 A 
ATOM     15  C   UNL d   1     -49.206  13.903  23.058  0.00  0.00     0.007 A 
ATOM     16  C   UNL d   1     -49.816  14.398  23.171  0.00  0.00     0.024 A 
ATOM     17  C   UNL d   1     -49.782  15.195  22.914  0.00  0.00     0.094 A 
ATOM     18  C   UNL d   1     -49.097  15.458  22.538  0.00  0.00     0.024 A 
ATOM     19  C   UNL d   1     -48.476  14.928  22.432  0.00  0.00     0.007 A 
BRANCH  17  20
ATOM     20  O   UNL d   1     -50.404  15.709  23.026  0.00  0.00    -0.328 OA
ATOM     21  C   UNL d   1     -50.851  15.668  23.698  0.00  0.00     0.181 C 
ENDBRANCH  17  20
ENDBRANCH   2  14
TORSDOF 5
ENDMDL
MODEL 2
REMARK VINA RESULT:      -6.8      1.467      4.725
REMARK  5 active torsions:
REMARK  status: ('A' for Active; 'I' for Inactive)
REMARK    1  A    between atoms: N_5  and  C_3 
REMARK    2  A    between atoms: O_13  and  C_4 
REMARK       I    between atoms: C_6  and  N_5 
REMARK    3  A    between atoms: C_9  and  C_6 
REMARK    4  A    between atoms: O_14  and  C_7 
REMARK    5  A    between atoms: O_18  and  C_15 
ROOT
ATOM      1  N   UNL d   1     -48.100  13.418  22.521  0.00  0.00    -0.189 NA
ATOM      2  C   UNL d   1     -48.077  12.893  23.169  0.00  0.00     0.281 C 
ATOM      3  O   UNL d   1     -48.745  12.823  23.677  0.00  0.00    -0.265 OA
ENDROOT
BRANCH   1   4
ATOM      4  C   UNL d   1     -48.779  13.867  22.381  0.00  0.00     0.173 A 
ATOM      5  N   UNL d   1     -49.375  13.581  21.876  0.00  0.00    -0.186 NA
ATOM      6  C   UNL d   1     -50.047  14.033  21.741  0.00  0.00     0.273 A 
ATOM      7  N   UNL d   1     -50.118  14.775  22.120  0.00  0.00    -0.181 NA
ATOM      8  C   UNL d   1     -49.549  15.047  22.602  0.00  0.00     0.185 A 
ATOM      9  C   UNL d   1     -48.861  14.602  22.749  0.00  0.00     0.083 A 
BRANCH   6  10
ATOM     10  O   UNL d   1     -50.623  13.757  21.253  0.00  0.00    -0.297 OA
ATOM     11  C   UNL d   1     -50.640  12.977  21.028  0.00  0.00     0.185 C 
ENDBRANCH   6  10
BRANCH   8  12
ATOM     12  O   UNL d   1     -49.649  15.792  22.965  0.00  0.00    -0.312 OA
ATOM     13  C   UNL d   1     -50.191  15.855  23.597  0.00  0.00     0.183 C 
ENDBRANCH   8  12
ENDBRANCH   1   4
BRANCH   2  14
ATOM     14  C   UNL d   1     -47.393  12.451  23.297  0.00  0.00     0.058 A 
ATOM     15  C   UNL d   1     -46.645  12.774  23.159  0.00  0.00     0.007 A 
ATOM     16  C   UNL d   1     -45.986  12.349  23.282  0.00  0.00     0.024 A 
ATOM     17  C   UNL d   1     -46.025  11.558  23.557  0.00  0.00     0.094 A 
ATOM     18  C   UNL d   1     -46.767  11.227  23.698  0.00  0.00     0.024 A 
ATOM     19  C   UNL d   1     -47.437  11.686  23.563  0.00  0.00     0.007 A 
BRANCH  17  20
ATOM     20  O   UNL d   1     -45.354  11.114  23.686  0.00  0.00    -0.328 OA
ATOM     21  C   UNL d   1     -45.390  10.307  23.670  0.00  0.00     0.181 C 
ENDBRANCH  17  20
ENDBRANCH   2  14
TORSDOF 5
ENDMDL
MODEL 3
REMARK VINA RESULT:      -6.7      1.409      4.676
REMARK  5 active torsions:
REMARK  status: ('A' for Active; 'I' for Inactive)
REMARK    1  A    between atoms: N_5  and  C_3 
REMARK    2  A    between atoms: O_13  and  C_4 
REMARK       I    between atoms: C_6  and  N_5 
REMARK    3  A    between atoms: C_9  and  C_6 
REMARK    4  A    between atoms: O_14  and  C_7 
REMARK    5  A    between atoms: O_18  and  C_15 
ROOT
ATOM      1  N   UNL d   1     -48.097  12.941  23.477  0.00  0.00    -0.189 NA
ATOM      2  C   UNL d   1     -47.647  12.610  22.858  0.00  0.00     0.281 C 
ATOM      3  O   UNL d   1     -47.913  12.675  22.062  0.00  0.00    -0.265 OA
ENDROOT
BRANCH   1   4
ATOM      4  C   UNL d   1     -48.803  13.332  23.304  0.00  0.00     0.173 A 
ATOM      5  N   UNL d   1     -48.805  14.152  23.161  0.00  0.00    -0.186 NA
ATOM      6  C   UNL d   1     -49.512  14.535  22.990  0.00  0.00     0.273 A 
ATOM      7  N   UNL d   1     -50.217  14.088  22.964  0.00  0.00    -0.181 NA
ATOM      8  C   UNL d   1     -50.216  13.306  23.102  0.00  0.00     0.185 A 
ATOM      9  C   UNL d   1     -49.508  12.903  23.276  0.00  0.00     0.083 A 
BRANCH   6  10
ATOM     10  O   UNL d   1     -49.513  15.326  22.851  0.00  0.00    -0.297 OA
ATOM     11  C   UNL d   1     -49.826  15.843  23.392  0.00  0.00     0.185 C 
ENDBRANCH   6  10
BRANCH   8  12
ATOM     12  O   UNL d   1     -50.936  12.888  23.069  0.00  0.00    -0.312 OA
ATOM     13  C   UNL d   1     -51.047  12.249  23.596  0.00  0.00     0.183 C 
ENDBRANCH   8  12
ENDBRANCH   1   4
BRANCH   2  14
ATOM     14  C   UNL d   1     -46.943  12.221  23.043  0.00  0.00     0.058 A 
ATOM     15  C   UNL d   1     -46.213  12.528  22.808  0.00  0.00     0.007 A 
ATOM     16  C   UNL d   1     -45.535  12.155  22.985  0.00  0.00     0.024 A 
ATOM     17  C   UNL d   1     -45.535  11.437  23.418  0.00  0.00     0.094 A 
ATOM     18  C   UNL d   1     -46.259  11.123  23.657  0.00  0.00     0.024 A 
ATOM     19  C   UNL d   1     -46.950  11.527  23.462  0.00  0.00     0.007 A 
BRANCH  17  20
ATOM     20  O   UNL d   1     -44.845  11.048  23.605  0.00  0.00    -0.328 OA
ATOM     21  C   UNL d   1     -44.843  10.245  23.697  0.00  0.00     0.181 C 
ENDBRANCH  17  20
ENDBRANCH   2  14
TORSDOF 5
ENDMDL
MODEL 4
REMARK VINA RESULT:      -5.9      8.113      9.472
REMARK  5 active torsions:
REMARK  status: ('A' for Active; 'I' for Inactive)
REMARK    1  A    between atoms: N_5  and  C_3 
REMARK    2  A    between atoms: O_13  and  C_4 
REMARK       I    between atoms: C_6  and  N_5 
REMARK    3  A    between atoms: C_9  and  C_6 
REMARK    4  A    between atoms: O_14  and  C_7 
REMARK    5  A    between atoms: O_18  and  C_15 
ROOT
ATOM      1  N   UNL d   1     -39.731  14.214  18.850  0.00  0.00    -0.189 NA
ATOM      2  C   UNL d   1     -39.575  14.743  19.476  0.00  0.00     0.281 C 
ATOM      3  O   UNL d   1     -39.509  15.568  19.322  0.00  0.00    -0.265 OA
ENDROOT
BRANCH   1   4
ATOM      4  C   UNL d   1     -39.819  14.504  18.082  0.00  0.00     0.173 A 
ATOM      5  N   UNL d   1     -40.575  14.686  17.786  0.00  0.00    -0.186 NA
ATOM      6  C   UNL d   1     -40.655  14.974  17.021  0.00  0.00     0.273 A 
ATOM      7  N   UNL d   1     -39.969  15.078  16.554  0.00  0.00    -0.181 NA
ATOM      8  C   UNL d   1     -39.248  14.904  16.837  0.00  0.00     0.185 A 
ATOM      9  C   UNL d   1     -39.149  14.611  17.610  0.00  0.00     0.083 A 
BRANCH   6  10
ATOM     10  O   UNL d   1     -41.385  15.150  16.735  0.00  0.00    -0.297 OA
ATOM     11  C   UNL d   1     -41.612  15.921  16.620  0.00  0.00     0.185 C 
ENDBRANCH   6  10
BRANCH   8  12
ATOM     12  O   UNL d   1     -38.583  15.018  16.347  0.00  0.00    -0.312 OA
ATOM     13  C   UNL d   1     -38.328  14.381  15.870  0.00  0.00     0.183 C 
ENDBRANCH   8  12
ENDBRANCH   1   4
BRANCH   2  14
ATOM     14  C   UNL d   1     -39.489  14.441  20.238  0.00  0.00     0.058 A 
ATOM     15  C   UNL d   1     -38.777  14.100  20.483  0.00  0.00     0.007 A 
ATOM     16  C   UNL d   1     -38.693  13.809  21.217  0.00  0.00     0.024 A 
ATOM     17  C   UNL d   1     -39.323  13.837  21.769  0.00  0.00     0.094 A 
ATOM     18  C   UNL d   1     -40.037  14.174  21.534  0.00  0.00     0.024 A 
ATOM     19  C   UNL d   1     -40.102  14.470  20.768  0.00  0.00     0.007 A 
BRANCH  17  20
ATOM     20  O   UNL d   1     -39.246  13.540  22.524  0.00  0.00    -0.328 OA
ATOM     21  C   UNL d   1     -38.708  13.861  23.035  0.00  0.00     0.181 C 
ENDBRANCH  17  20
ENDBRANCH   2  14
TORSDOF 5
ENDMDL
MODEL 5
REMARK VINA RESULT:      -5.7      8.171      9.290
REMARK  5 active torsions:
REMARK  status: ('A' for Active; 'I' for Inactive)
REMARK    1  A    between atoms: N_5  and  C_3 
REMARK    2  A    between atoms: O_13  and  C_4 
REMARK       I    between atoms: C_6  and  N_5 
REMARK    3  A    between atoms: C_9  and  C_6 
REMARK    4  A    between atoms: O_14  and  C_7 
REMARK    5  A    between atoms: O_18  and  C_15 
ROOT
ATOM      1  N   UNL d   1     -39.825  15.641  18.828  0.00  0.00    -0.189 NA
ATOM      2  C   UNL d   1     -39.844  15.027  19.392  0.00  0.00     0.281 C 
ATOM      3  O   UNL d   1     -39.990  14.235  19.147  0.00  0.00    -0.265 OA
ENDROOT
BRANCH   1   4
ATOM      4  C   UNL d   1     -39.950  15.468  18.030  0.00  0.00     0.173 A 
ATOM      5  N   UNL d   1     -39.304  15.323  17.526  0.00  0.00    -0.186 NA
ATOM      6  C   UNL d   1     -39.436  15.151  16.733  0.00  0.00     0.273 A 
ATOM      7  N   UNL d   1     -40.222  15.126  16.451  0.00  0.00    -0.181 NA
ATOM      8  C   UNL d   1     -40.838  15.264  16.932  0.00  0.00     0.185 A 
ATOM      9  C   UNL d   1     -40.722  15.439  17.738  0.00  0.00     0.083 A 
BRANCH   6  10
ATOM     10  O   UNL d   1     -38.812  15.011  16.246  0.00  0.00    -0.297 OA
ATOM     11  C   UNL d   1     -38.619  14.255  16.025  0.00  0.00     0.185 C 
ENDBRANCH   6  10
BRANCH   8  12
ATOM     12  O   UNL d   1     -41.611  15.231  16.620  0.00  0.00    -0.312 OA
ATOM     13  C   UNL d   1     -41.928  15.922  16.275  0.00  0.00     0.183 C 
ENDBRANCH   8  12
ENDBRANCH   1   4
BRANCH   2  14
ATOM     14  C   UNL d   1     -39.718  15.213  20.185  0.00  0.00     0.058 A 
ATOM     15  C   UNL d   1     -40.299  15.067  20.755  0.00  0.00     0.007 A 
ATOM     16  C   UNL d   1     -40.179  15.246  21.519  0.00  0.00     0.024 A 
ATOM     17  C   UNL d   1     -39.459  15.589  21.776  0.00  0.00     0.094 A 
ATOM     18  C   UNL d   1     -38.873  15.739  21.215  0.00  0.00     0.024 A 
ATOM     19  C   UNL d   1     -39.019  15.545  20.428  0.00  0.00     0.007 A 
BRANCH  17  20
ATOM     20  O   UNL d   1     -39.326  15.776  22.557  0.00  0.00    -0.328 OA
ATOM     21  C   UNL d   1     -38.840  15.316  23.009  0.00  0.00     0.181 C 
ENDBRANCH  17  20
ENDBRANCH   2  14
TORSDOF 5
ENDMDL
MODEL 6
REMARK VINA RESULT:      -5.1      7.177      9.720
REMARK  5 active torsions:
REMARK  status: ('A' for Active; 'I' for Inactive)
REMARK    1  A    between atoms: N_5  and  C_3 
REMARK    2  A    between atoms: O_13  and  C_4 
REMARK       I    between atoms: C_6  and  N_5 
REMARK    3  A    between atoms: C_9  and  C_6 
REMARK    4  A    between atoms: O_14  and  C_7 
REMARK    5  A    between atoms: O_18  and  C_15 
ROOT
ATOM      1  N   UNL d   1     -39.100  14.548  19.181  0.00  0.00    -0.189 NA
ATOM      2  C   UNL d   1     -39.456  14.046  18.617  0.00  0.00     0.281 C 
ATOM      3  O   UNL d   1     -40.146  13.608  18.819  0.00  0.00    -0.265 OA
ENDROOT
BRANCH   1   4
ATOM      4  C   UNL d   1     -39.429  14.612  19.936  0.00  0.00     0.173 A 
ATOM      5  N   UNL d   1     -39.247  14.050  20.522  0.00  0.00    -0.186 NA
ATOM      6  C   UNL d   1     -39.578  14.120  21.271  0.00  0.00     0.273 A 
ATOM      7  N   UNL d   1     -40.093  14.759  21.427  0.00  0.00    -0.181 NA
ATOM      8  C   UNL d   1     -40.266  15.295  20.867  0.00  0.00     0.185 A 
ATOM      9  C   UNL d   1     -39.940  15.239  20.103  0.00  0.00     0.083 A 
BRANCH   6  10
ATOM     10  O   UNL d   1     -39.402  13.577  21.837  0.00  0.00    -0.297 OA
ATOM     11  C   UNL d   1     -38.686  13.593  22.220  0.00  0.00     0.185 C 
ENDBRANCH   6  10
BRANCH   8  12
ATOM     12  O   UNL d   1     -40.784  15.922  21.054  0.00  0.00    -0.312 OA
ATOM     13  C   UNL d   1     -41.590  15.845  20.847  0.00  0.00     0.183 C 
ENDBRANCH   8  12
ENDBRANCH   1   4
BRANCH   2  14
ATOM     14  C   UNL d   1     -39.118  13.991  17.867  0.00  0.00     0.058 A 
ATOM     15  C   UNL d   1     -38.746  13.296  17.617  0.00  0.00     0.007 A 
ATOM     16  C   UNL d   1     -38.421  13.242  16.895  0.00  0.00     0.024 A 
ATOM     17  C   UNL d   1     -38.442  13.887  16.360  0.00  0.00     0.094 A 
ATOM     18  C   UNL d   1     -38.811  14.584  16.600  0.00  0.00     0.024 A 
ATOM     19  C   UNL d   1     -39.142  14.619  17.353  0.00  0.00     0.007 A 
BRANCH  17  20
ATOM     20  O   UNL d   1     -38.111  13.840  15.617  0.00  0.00    -0.328 OA
ATOM     21  C   UNL d   1     -38.197  14.450  15.094  0.00  0.00     0.181 C 
ENDBRANCH  17  20
ENDBRANCH   2  14
TORSDOF 5
ENDMDL
