MODEL 1
REMARK VINA RESULT:      -3.0      0.000      0.000
REMARK  2 active torsions:
REMARK  status: ('A' for Active; 'I' for Inactive)
REMARK       I    between atoms: C_2  and  N_1 
REMARK       I    between atoms: C_3  and  N_1 
REMARK       I    between atoms: N_4  and  C_2 
REMARK    1  A    between atoms: C_9  and  C_3 
REMARK    2  A    between atoms: C_5  and  N_4 
ROOT
ATOM      1  N   UNL d   1      31.304  15.799 -23.653  0.00  0.00    -0.140 NA
ATOM      2  C   UNL d   1      32.074  16.079 -23.603  0.00  0.00     0.424 C 
ATOM      3  C   UNL d   1      30.679  16.307 -23.818  0.00  0.00     0.284 C 
ATOM      4  N   UNL d   1      32.257  16.865 -23.713  0.00  0.00    -0.329 NA
ATOM      5  O   UNL d   1      32.819  15.741 -23.452  0.00  0.00    -0.228 OA
ATOM      6  O   UNL d   1      30.829  17.112 -23.935  0.00  0.00    -0.265 OA
ENDROOT
BRANCH   3   7
ATOM      7  C   UNL d   1      29.909  16.023 -23.867  0.00  0.00     0.058 A 
ATOM      8  C   UNL d   1      29.505  15.827 -23.182  0.00  0.00     0.005 A 
ATOM      9  C   UNL d   1      28.732  15.541 -23.223  0.00  0.00     0.000 A 
ATOM     10  C   UNL d   1      28.363  15.453 -23.963  0.00  0.00     0.000 A 
ATOM     11  C   UNL d   1      28.768  15.649 -24.647  0.00  0.00     0.000 A 
ATOM     12  C   UNL d   1      29.548  15.937 -24.602  0.00  0.00     0.005 A 
ENDBRANCH   3   7
BRANCH   4  13
ATOM     13  C   UNL d   1      32.558  17.622 -23.803  0.00  0.00     0.219 A 
ATOM     14  N   UNL d   1      32.745  17.904 -24.550  0.00  0.00    -0.214 NA
ATOM     15  C   UNL d   1      33.050  18.673 -24.636  0.00  0.00     0.102 A 
ATOM     16  C   UNL d   1      33.161  19.144 -23.967  0.00  0.00     0.021 A 
ATOM     17  C   UNL d   1      32.974  18.863 -23.220  0.00  0.00     0.006 A 
ATOM     18  C   UNL d   1      32.671  18.098 -23.132  0.00  0.00     0.052 A 
ENDBRANCH   4  13
TORSDOF 2
ENDMDL
MODEL 2
REMARK VINA RESULT:      -1.9      5.853      7.821
REMARK  2 active torsions:
REMARK  status: ('A' for Active; 'I' for Inactive)
REMARK       I    between atoms: C_2  and  N_1 
REMARK       I    between atoms: C_3  and  N_1 
REMARK       I    between atoms: N_4  and  C_2 
REMARK    1  A    between atoms: C_9  and  C_3 
REMARK    2  A    between atoms: C_5  and  N_4 
ROOT
ATOM      1  N   UNL d   1      32.049  23.375 -19.787  0.00  0.00    -0.140 NA
ATOM      2  C   UNL d   1      31.980  23.149 -20.573  0.00  0.00     0.424 C 
ATOM      3  C   UNL d   1      32.415  22.887 -19.236  0.00  0.00     0.284 C 
ATOM      4  N   UNL d   1      32.267  22.436 -20.845  0.00  0.00    -0.329 NA
ATOM      5  O   UNL d   1      31.657  23.486 -21.261  0.00  0.00    -0.228 OA
ATOM      6  O   UNL d   1      32.718  22.155 -19.478  0.00  0.00    -0.265 OA
ENDROOT
BRANCH   3   7
ATOM      7  C   UNL d   1      32.483  23.117 -18.450  0.00  0.00     0.058 A 
ATOM      8  C   UNL d   1      31.857  22.994 -17.937  0.00  0.00     0.005 A 
ATOM      9  C   UNL d   1      31.916  23.223 -17.146  0.00  0.00     0.000 A 
ATOM     10  C   UNL d   1      32.615  23.578 -16.871  0.00  0.00     0.000 A 
ATOM     11  C   UNL d   1      33.241  23.701 -17.384  0.00  0.00     0.000 A 
ATOM     12  C   UNL d   1      33.177  23.469 -18.182  0.00  0.00     0.005 A 
ENDBRANCH   3   7
BRANCH   4  13
ATOM     13  C   UNL d   1      32.513  21.755 -21.229  0.00  0.00     0.219 A 
ATOM     14  N   UNL d   1      32.287  21.019 -20.946  0.00  0.00    -0.214 NA
ATOM     15  C   UNL d   1      32.539  20.331 -21.339  0.00  0.00     0.102 A 
ATOM     16  C   UNL d   1      33.015  20.397 -22.011  0.00  0.00     0.021 A 
ATOM     17  C   UNL d   1      33.241  21.132 -22.294  0.00  0.00     0.006 A 
ATOM     18  C   UNL d   1      32.991  21.818 -21.904  0.00  0.00     0.052 A 
ENDBRANCH   4  13
TORSDOF 2
ENDMDL
MODEL 3
REMARK VINA RESULT:      -1.8      1.452      2.022
REMARK  2 active torsions:
REMARK  status: ('A' for Active; 'I' for Inactive)
REMARK       I    between atoms: C_2  and  N_1 
REMARK       I    between atoms: C_3  and  N_1 
REMARK       I    between atoms: N_4  and  C_2 
REMARK    1  A    between atoms: C_9  and  C_3 
REMARK    2  A    between atoms: C_5  and  N_4 
ROOT
ATOM      1  N   UNL d   1      29.648  17.257 -24.487  0.00  0.00    -0.140 NA
ATOM      2  C   UNL d   1      30.414  17.505 -24.650  0.00  0.00     0.424 C 
ATOM      3  C   UNL d   1      29.509  16.596 -24.018  0.00  0.00     0.284 C 
ATOM      4  N   UNL d   1      31.067  17.114 -24.360  0.00  0.00    -0.329 NA
ATOM      5  O   UNL d   1      30.756  18.125 -25.086  0.00  0.00    -0.228 OA
ATOM      6  O   UNL d   1      30.150  16.175 -23.707  0.00  0.00    -0.265 OA
ENDROOT
BRANCH   3   7
ATOM      7  C   UNL d   1      28.741  16.351 -23.857  0.00  0.00     0.058 A 
ATOM      8  C   UNL d   1      28.311  16.726 -23.270  0.00  0.00     0.005 A 
ATOM      9  C   UNL d   1      27.540  16.485 -23.102  0.00  0.00     0.000 A 
ATOM     10  C   UNL d   1      27.199  15.861 -23.531  0.00  0.00     0.000 A 
ATOM     11  C   UNL d   1      27.630  15.486 -24.118  0.00  0.00     0.000 A 
ATOM     12  C   UNL d   1      28.408  15.731 -24.285  0.00  0.00     0.005 A 
ENDBRANCH   3   7
BRANCH   4  13
ATOM     13  C   UNL d   1      31.790  16.806 -24.127  0.00  0.00     0.219 A 
ATOM     14  N   UNL d   1      32.192  17.134 -23.491  0.00  0.00    -0.214 NA
ATOM     15  C   UNL d   1      32.925  16.818 -23.260  0.00  0.00     0.102 A 
ATOM     16  C   UNL d   1      33.241  16.176 -23.673  0.00  0.00     0.021 A 
ATOM     17  C   UNL d   1      32.840  15.848 -24.309  0.00  0.00     0.006 A 
ATOM     18  C   UNL d   1      32.110  16.161 -24.541  0.00  0.00     0.052 A 
ENDBRANCH   4  13
TORSDOF 2
ENDMDL
MODEL 4
REMARK VINA RESULT:      -0.6      4.828      6.511
REMARK  2 active torsions:
REMARK  status: ('A' for Active; 'I' for Inactive)
REMARK       I    between atoms: C_2  and  N_1 
REMARK       I    between atoms: C_3  and  N_1 
REMARK       I    between atoms: N_4  and  C_2 
REMARK    1  A    between atoms: C_9  and  C_3 
REMARK    2  A    between atoms: C_5  and  N_4 
ROOT
ATOM      1  N   UNL d   1      32.308  21.845 -21.674  0.00  0.00    -0.140 NA
ATOM      2  C   UNL d   1      32.158  22.506 -21.211  0.00  0.00     0.424 C 
ATOM      3  C   UNL d   1      32.762  21.222 -21.388  0.00  0.00     0.284 C 
ATOM      4  N   UNL d   1      32.447  22.578 -20.452  0.00  0.00    -0.329 NA
ATOM      5  O   UNL d   1      31.738  23.217 -21.310  0.00  0.00    -0.228 OA
ATOM      6  O   UNL d   1      33.072  21.262 -20.622  0.00  0.00    -0.265 OA
ENDROOT
BRANCH   3   7
ATOM      7  C   UNL d   1      32.911  20.563 -21.855  0.00  0.00     0.058 A 
ATOM      8  C   UNL d   1      33.019  20.653 -22.662  0.00  0.00     0.005 A 
ATOM      9  C   UNL d   1      33.169  19.996 -23.138  0.00  0.00     0.000 A 
ATOM     10  C   UNL d   1      33.209  19.240 -22.796  0.00  0.00     0.000 A 
ATOM     11  C   UNL d   1      33.100  19.149 -21.990  0.00  0.00     0.000 A 
ATOM     12  C   UNL d   1      32.950  19.815 -21.512  0.00  0.00     0.005 A 
ENDBRANCH   3   7
BRANCH   4  13
ATOM     13  C   UNL d   1      32.681  22.759 -19.688  0.00  0.00     0.219 A 
ATOM     14  N   UNL d   1      32.596  23.524 -19.403  0.00  0.00    -0.214 NA
ATOM     15  C   UNL d   1      32.835  23.702 -18.627  0.00  0.00     0.102 A 
ATOM     16  C   UNL d   1      33.154  23.108 -18.151  0.00  0.00     0.021 A 
ATOM     17  C   UNL d   1      33.239  22.344 -18.436  0.00  0.00     0.006 A 
ATOM     18  C   UNL d   1      33.002  22.164 -19.207  0.00  0.00     0.052 A 
ENDBRANCH   4  13
TORSDOF 2
ENDMDL
MODEL 5
REMARK VINA RESULT:      -0.1      5.645      6.915
REMARK  2 active torsions:
REMARK  status: ('A' for Active; 'I' for Inactive)
REMARK       I    between atoms: C_2  and  N_1 
REMARK       I    between atoms: C_3  and  N_1 
REMARK       I    between atoms: N_4  and  C_2 
REMARK    1  A    between atoms: C_9  and  C_3 
REMARK    2  A    between atoms: C_5  and  N_4 
ROOT
ATOM      1  N   UNL d   1      33.051  21.671 -21.399  0.00  0.00    -0.140 NA
ATOM      2  C   UNL d   1      33.139  21.439 -22.182  0.00  0.00     0.424 C 
ATOM      3  C   UNL d   1      32.959  22.463 -21.200  0.00  0.00     0.284 C 
ATOM      4  N   UNL d   1      33.139  21.976 -22.795  0.00  0.00    -0.329 NA
ATOM      5  O   UNL d   1      33.241  20.715 -22.578  0.00  0.00    -0.228 OA
ATOM      6  O   UNL d   1      32.955  23.035 -21.798  0.00  0.00    -0.265 OA
ENDROOT
BRANCH   3   7
ATOM      7  C   UNL d   1      32.871  22.691 -20.416  0.00  0.00     0.058 A 
ATOM      8  C   UNL d   1      32.415  23.346 -20.232  0.00  0.00     0.005 A 
ATOM      9  C   UNL d   1      32.322  23.581 -19.447  0.00  0.00     0.000 A 
ATOM     10  C   UNL d   1      32.693  23.151 -18.841  0.00  0.00     0.000 A 
ATOM     11  C   UNL d   1      33.149  22.496 -19.024  0.00  0.00     0.000 A 
ATOM     12  C   UNL d   1      33.241  22.261 -19.818  0.00  0.00     0.005 A 
ENDBRANCH   3   7
BRANCH   4  13
ATOM     13  C   UNL d   1      33.156  22.418 -23.485  0.00  0.00     0.219 A 
ATOM     14  N   UNL d   1      33.114  23.237 -23.450  0.00  0.00    -0.214 NA
ATOM     15  C   UNL d   1      33.131  23.680 -24.153  0.00  0.00     0.102 A 
ATOM     16  C   UNL d   1      33.189  23.291 -24.879  0.00  0.00     0.021 A 
ATOM     17  C   UNL d   1      33.231  22.473 -24.914  0.00  0.00     0.006 A 
ATOM     18  C   UNL d   1      33.214  22.030 -24.217  0.00  0.00     0.052 A 
ENDBRANCH   4  13
TORSDOF 2
ENDMDL
