MODEL 1
REMARK VINA RESULT:      87.9      0.000      0.000
REMARK  5 active torsions:
REMARK  status: ('A' for Active; 'I' for Inactive)
REMARK    1  A    between atoms: C_11  and  C_1 
REMARK    2  A    between atoms: C_5  and  S_13 
REMARK       I    between atoms: C_12  and  N_14 
REMARK    3  A    between atoms: C_18  and  C_12 
REMARK    4  A    between atoms: S_13  and  C_18 
REMARK    5  A    between atoms: N_14  and  C_19 
ROOT
ATOM      1  C   UNL d   1     -47.927  30.596  35.077  0.00  0.00     0.024 A 
ATOM      2  C   UNL d   1     -47.568  30.441  35.804  0.00  0.00     0.004 A 
ATOM      3  C   UNL d   1     -48.448  30.066  34.745  0.00  0.00     0.004 A 
ATOM      4  C   UNL d   1     -48.274  29.192  35.860  0.00  0.00     0.085 A 
ATOM      5  C   UNL d   1     -48.623  29.360  35.137  0.00  0.00     0.019 A 
ATOM      6  C   UNL d   1     -47.743  29.735  36.197  0.00  0.00     0.019 A 
ENDROOT
BRANCH   4   7
ATOM      7  N   UNL d   1     -48.456  28.484  36.243  0.00  0.00    -0.208 NA
ATOM      8  C   UNL d   1     -49.110  28.450  36.746  0.00  0.00     0.286 C 
ATOM      9  O   UNL d   1     -49.574  29.117  36.863  0.00  0.00    -0.265 OA
BRANCH   8  10
ATOM     10  C   UNL d   1     -49.296  27.744  37.131  0.00  0.00     0.100 C 
BRANCH  10  11
ATOM     11  S   UNL d   1     -50.012  27.363  36.966  0.00  0.00    -0.054 SA
BRANCH  11  12
ATOM     12  C   UNL d   1     -50.485  27.083  37.585  0.00  0.00     0.164 A 
ATOM     13  S   UNL d   1     -51.036  26.479  37.531  0.00  0.00    -0.039 SA
ATOM     14  C   UNL d   1     -51.380  26.383  38.281  0.00  0.00     0.134 A 
ATOM     15  C   UNL d   1     -51.967  25.832  38.482  0.00  0.00     0.030 C 
ATOM     16  N   UNL d   1     -51.035  26.933  38.793  0.00  0.00    -0.140 NA
ATOM     17  N   UNL d   1     -50.480  27.368  38.364  0.00  0.00    -0.134 NA
ENDBRANCH  11  12
ENDBRANCH  10  11
ENDBRANCH   8  10
ENDBRANCH   4   7
BRANCH   1  18
ATOM     18  C   UNL d   1     -47.755  31.310  34.672  0.00  0.00     0.111 A 
ATOM     19  N   UNL d   1     -48.333  31.802  34.363  0.00  0.00    -0.239 NA
ATOM     20  C   UNL d   1     -47.959  32.443  34.009  0.00  0.00     0.088 A 
ATOM     21  C   UNL d   1     -48.248  33.103  33.615  0.00  0.00     0.020 A 
ATOM     22  C   UNL d   1     -47.145  32.343  34.102  0.00  0.00     0.049 A 
ATOM     23  C   UNL d   1     -47.735  33.665  33.312  0.00  0.00     0.002 A 
ATOM     24  C   UNL d   1     -46.921  33.572  33.401  0.00  0.00     0.001 A 
ATOM     25  C   UNL d   1     -46.630  32.904  33.800  0.00  0.00     0.008 A 
ATOM     26  S   UNL d   1     -47.022  31.644  34.511  0.00  0.00    -0.066 SA
ENDBRANCH   1  18
TORSDOF 5
ENDMDL
MODEL 2
REMARK VINA RESULT:      89.2      1.029      6.336
REMARK  5 active torsions:
REMARK  status: ('A' for Active; 'I' for Inactive)
REMARK    1  A    between atoms: C_11  and  C_1 
REMARK    2  A    between atoms: C_5  and  S_13 
REMARK       I    between atoms: C_12  and  N_14 
REMARK    3  A    between atoms: C_18  and  C_12 
REMARK    4  A    between atoms: S_13  and  C_18 
REMARK    5  A    between atoms: N_14  and  C_19 
ROOT
ATOM      1  C   UNL d   1     -49.225  28.221  36.557  0.00  0.00     0.024 A 
ATOM      2  C   UNL d   1     -49.190  28.143  35.736  0.00  0.00     0.004 A 
ATOM      3  C   UNL d   1     -48.745  28.749  36.949  0.00  0.00     0.004 A 
ATOM      4  C   UNL d   1     -48.167  29.151  35.707  0.00  0.00     0.085 A 
ATOM      5  C   UNL d   1     -48.214  29.216  36.523  0.00  0.00     0.019 A 
ATOM      6  C   UNL d   1     -48.658  28.611  35.310  0.00  0.00     0.019 A 
ENDROOT
BRANCH   4   7
ATOM      7  N   UNL d   1     -47.632  29.622  35.293  0.00  0.00    -0.208 NA
ATOM      8  C   UNL d   1     -47.472  30.387  35.559  0.00  0.00     0.286 C 
ATOM      9  O   UNL d   1     -47.843  30.674  36.233  0.00  0.00    -0.265 OA
BRANCH   8  10
ATOM     10  C   UNL d   1     -46.937  30.862  35.147  0.00  0.00     0.100 C 
BRANCH  10  11
ATOM     11  S   UNL d   1     -46.990  31.686  35.209  0.00  0.00    -0.054 SA
BRANCH  11  12
ATOM     12  C   UNL d   1     -47.149  32.143  34.538  0.00  0.00     0.164 A 
ATOM     13  S   UNL d   1     -47.832  32.576  34.403  0.00  0.00    -0.039 SA
ATOM     14  C   UNL d   1     -47.756  32.947  33.664  0.00  0.00     0.134 A 
ATOM     15  C   UNL d   1     -48.318  33.441  33.306  0.00  0.00     0.030 C 
ATOM     16  N   UNL d   1     -47.021  32.737  33.348  0.00  0.00    -0.140 NA
ATOM     17  N   UNL d   1     -46.643  32.239  33.887  0.00  0.00    -0.134 NA
ENDBRANCH  11  12
ENDBRANCH  10  11
ENDBRANCH   8  10
ENDBRANCH   4   7
BRANCH   1  18
ATOM     18  C   UNL d   1     -49.763  27.750  36.997  0.00  0.00     0.111 A 
ATOM     19  N   UNL d   1     -49.943  27.891  37.784  0.00  0.00    -0.239 NA
ATOM     20  C   UNL d   1     -50.485  27.322  38.026  0.00  0.00     0.088 A 
ATOM     21  C   UNL d   1     -50.860  27.186  38.743  0.00  0.00     0.020 A 
ATOM     22  C   UNL d   1     -50.638  26.829  37.382  0.00  0.00     0.049 A 
ATOM     23  C   UNL d   1     -51.386  26.564  38.827  0.00  0.00     0.002 A 
ATOM     24  C   UNL d   1     -51.543  26.067  38.189  0.00  0.00     0.001 A 
ATOM     25  C   UNL d   1     -51.164  26.206  37.463  0.00  0.00     0.008 A 
ATOM     26  S   UNL d   1     -50.191  27.095  36.748  0.00  0.00    -0.066 SA
ENDBRANCH   1  18
TORSDOF 5
ENDMDL
MODEL 3
REMARK VINA RESULT:      90.1      1.078      6.792
REMARK  5 active torsions:
REMARK  status: ('A' for Active; 'I' for Inactive)
REMARK    1  A    between atoms: C_11  and  C_1 
REMARK    2  A    between atoms: C_5  and  S_13 
REMARK       I    between atoms: C_12  and  N_14 
REMARK    3  A    between atoms: C_18  and  C_12 
REMARK    4  A    between atoms: S_13  and  C_18 
REMARK    5  A    between atoms: N_14  and  C_19 
ROOT
ATOM      1  C   UNL d   1     -50.521  27.299  37.744  0.00  0.00     0.024 A 
ATOM      2  C   UNL d   1     -50.132  27.241  37.019  0.00  0.00     0.004 A 
ATOM      3  C   UNL d   1     -50.344  27.896  38.269  0.00  0.00     0.004 A 
ATOM      4  C   UNL d   1     -49.371  28.410  37.360  0.00  0.00     0.085 A 
ATOM      5  C   UNL d   1     -49.767  28.454  38.077  0.00  0.00     0.019 A 
ATOM      6  C   UNL d   1     -49.554  27.799  36.827  0.00  0.00     0.019 A 
ENDROOT
BRANCH   4   7
ATOM      7  N   UNL d   1     -48.796  28.973  37.179  0.00  0.00    -0.208 NA
ATOM      8  C   UNL d   1     -48.421  28.951  36.445  0.00  0.00     0.286 C 
ATOM      9  O   UNL d   1     -48.620  28.370  35.899  0.00  0.00    -0.265 OA
BRANCH   8  10
ATOM     10  C   UNL d   1     -47.845  29.512  36.259  0.00  0.00     0.100 C 
BRANCH  10  11
ATOM     11  S   UNL d   1     -47.793  29.806  35.487  0.00  0.00    -0.054 SA
BRANCH  11  12
ATOM     12  C   UNL d   1     -47.610  30.603  35.358  0.00  0.00     0.164 A 
ATOM     13  S   UNL d   1     -47.897  31.068  34.747  0.00  0.00    -0.039 SA
ATOM     14  C   UNL d   1     -47.571  31.826  34.831  0.00  0.00     0.134 A 
ATOM     15  C   UNL d   1     -47.711  32.476  34.334  0.00  0.00     0.030 C 
ATOM     16  N   UNL d   1     -47.083  31.822  35.498  0.00  0.00    -0.140 NA
ATOM     17  N   UNL d   1     -47.105  31.065  35.826  0.00  0.00    -0.134 NA
ENDBRANCH  11  12
ENDBRANCH  10  11
ENDBRANCH   8  10
ENDBRANCH   4   7
BRANCH   1  18
ATOM     18  C   UNL d   1     -51.109  26.735  37.947  0.00  0.00     0.111 A 
ATOM     19  N   UNL d   1     -50.994  26.149  38.508  0.00  0.00    -0.239 NA
ATOM     20  C   UNL d   1     -51.686  25.706  38.558  0.00  0.00     0.088 A 
ATOM     21  C   UNL d   1     -51.896  25.058  39.016  0.00  0.00     0.020 A 
ATOM     22  C   UNL d   1     -52.227  26.024  38.022  0.00  0.00     0.049 A 
ATOM     23  C   UNL d   1     -52.639  24.722  38.947  0.00  0.00     0.002 A 
ATOM     24  C   UNL d   1     -53.186  25.034  38.415  0.00  0.00     0.001 A 
ATOM     25  C   UNL d   1     -52.972  25.690  37.951  0.00  0.00     0.008 A 
ATOM     26  S   UNL d   1     -51.869  26.658  37.647  0.00  0.00    -0.066 SA
ENDBRANCH   1  18
TORSDOF 5
ENDMDL
