MODEL 1
REMARK VINA RESULT:      -5.9      0.000      0.000
REMARK  5 active torsions:
REMARK  status: ('A' for Active; 'I' for Inactive)
REMARK    1  A    between atoms: N_4  and  S_1 
REMARK    2  A    between atoms: C_10  and  S_1 
REMARK    3  A    between atoms: C_2  and  N_9 
REMARK    4  A    between atoms: C_13  and  C_3 
REMARK    5  A    between atoms: C_11  and  C_8 
REMARK       I    between atoms: N_9  and  C_11 
REMARK       I    between atoms: C_15  and  N_12 
ROOT
ATOM      1  N   UNL d   1      50.787  33.721  52.477  0.00  0.00    -0.200 NA
ATOM      2  C   UNL d   1      51.126  33.399  53.160  0.00  0.00     0.296 C 
ATOM      3  O   UNL d   1      50.801  33.575  53.898  0.00  0.00    -0.264 OA
ENDROOT
BRANCH   1   4
ATOM      4  C   UNL d   1      50.129  34.216  52.530  0.00  0.00     0.119 A 
ATOM      5  C   UNL d   1      49.666  34.486  51.911  0.00  0.00     0.084 A 
ATOM      6  C   UNL d   1      49.065  34.968  52.218  0.00  0.00     0.016 A 
ATOM      7  C   UNL d   1      48.450  35.382  51.863  0.00  0.00     0.020 A 
ATOM      8  C   UNL d   1      49.164  34.991  53.036  0.00  0.00     0.049 A 
ATOM      9  C   UNL d   1      47.935  35.819  52.323  0.00  0.00     0.083 A 
ATOM     10  N   UNL d   1      48.030  35.846  53.152  0.00  0.00    -0.272 N 
ATOM     11  C   UNL d   1      48.646  35.431  53.502  0.00  0.00     0.089 A 
ATOM     12  C   UNL d   1      47.500  36.295  53.618  0.00  0.00     0.265 C 
ATOM     13  O   UNL d   1      47.599  36.318  54.436  0.00  0.00    -0.267 OA
ATOM     14  C   UNL d   1      46.883  36.709  53.258  0.00  0.00     0.066 C 
ATOM     15  S   UNL d   1      49.817  34.530  53.234  0.00  0.00    -0.066 SA
BRANCH   5  16
ATOM     16  C   UNL d   1      49.775  34.309  51.108  0.00  0.00     0.299 C 
ATOM     17  O   UNL d   1      50.445  34.571  50.717  0.00  0.00    -0.264 OA
ATOM     18  N   UNL d   1      49.206  33.873  50.718  0.00  0.00    -0.102 N 
ENDBRANCH   5  16
ENDBRANCH   1   4
BRANCH   2  19
ATOM     19  C   UNL d   1      51.778  32.909  53.105  0.00  0.00     0.133 A 
ATOM     20  N   UNL d   1      52.549  33.094  53.359  0.00  0.00    -0.226 N 
ATOM     21  C   UNL d   1      53.033  32.433  53.194  0.00  0.00     0.092 A 
ATOM     22  C   UNL d   1      52.563  31.857  52.846  0.00  0.00     0.021 A 
ATOM     23  C   UNL d   1      51.790  32.146  52.789  0.00  0.00     0.025 A 
BRANCH  20  24
ATOM     24  S   UNL d   1      52.793  33.803  53.710  0.00  0.00     0.277 S 
ATOM     25  O   UNL d   1      52.653  33.456  54.443  0.00  0.00    -0.199 OA
ATOM     26  O   UNL d   1      52.933  34.147  52.969  0.00  0.00    -0.199 OA
BRANCH  24  27
ATOM     27  C   UNL d   1      53.028  34.490  54.095  0.00  0.00     0.133 A 
ATOM     28  S   UNL d   1      53.232  34.558  54.891  0.00  0.00    -0.074 SA
ATOM     29  C   UNL d   1      53.432  35.347  55.040  0.00  0.00     0.036 A 
ATOM     30  C   UNL d   1      53.351  35.765  54.330  0.00  0.00     0.008 A 
ATOM     31  C   UNL d   1      53.102  35.236  53.747  0.00  0.00     0.020 A 
ENDBRANCH  24  27
ENDBRANCH  20  24
ENDBRANCH   2  19
TORSDOF 5
ENDMDL
MODEL 2
REMARK VINA RESULT:      -5.8      1.550      2.743
REMARK  5 active torsions:
REMARK  status: ('A' for Active; 'I' for Inactive)
REMARK    1  A    between atoms: N_4  and  S_1 
REMARK    2  A    between atoms: C_10  and  S_1 
REMARK    3  A    between atoms: C_2  and  N_9 
REMARK    4  A    between atoms: C_13  and  C_3 
REMARK    5  A    between atoms: C_11  and  C_8 
REMARK       I    between atoms: N_9  and  C_11 
REMARK       I    between atoms: C_15  and  N_12 
ROOT
ATOM      1  N   UNL d   1      52.795  34.240  53.560  0.00  0.00    -0.200 NA
ATOM      2  C   UNL d   1      52.942  33.766  54.223  0.00  0.00     0.296 C 
ATOM      3  O   UNL d   1      52.307  33.449  54.645  0.00  0.00    -0.264 OA
ENDROOT
BRANCH   1   4
ATOM      4  C   UNL d   1      52.021  34.397  53.322  0.00  0.00     0.119 A 
ATOM      5  C   UNL d   1      51.724  34.356  52.559  0.00  0.00     0.084 A 
ATOM      6  C   UNL d   1      50.920  34.558  52.575  0.00  0.00     0.016 A 
ATOM      7  C   UNL d   1      50.350  34.610  51.984  0.00  0.00     0.020 A 
ATOM      8  C   UNL d   1      50.725  34.723  53.357  0.00  0.00     0.049 A 
ATOM      9  C   UNL d   1      49.586  34.829  52.176  0.00  0.00     0.083 A 
ATOM     10  N   UNL d   1      49.382  34.998  52.967  0.00  0.00    -0.272 N 
ATOM     11  C   UNL d   1      49.955  34.944  53.553  0.00  0.00     0.089 A 
ATOM     12  C   UNL d   1      48.599  35.221  53.158  0.00  0.00     0.265 C 
ATOM     13  O   UNL d   1      48.403  35.387  53.941  0.00  0.00    -0.267 OA
ATOM     14  C   UNL d   1      48.029  35.273  52.563  0.00  0.00     0.066 C 
ATOM     15  S   UNL d   1      51.398  34.626  53.822  0.00  0.00    -0.066 SA
BRANCH   5  16
ATOM     16  C   UNL d   1      52.153  34.148  51.880  0.00  0.00     0.299 C 
ATOM     17  O   UNL d   1      52.006  33.436  51.503  0.00  0.00    -0.264 OA
ATOM     18  N   UNL d   1      52.720  34.662  51.598  0.00  0.00    -0.102 N 
ENDBRANCH   5  16
ENDBRANCH   1   4
BRANCH   2  19
ATOM     19  C   UNL d   1      53.709  33.612  54.458  0.00  0.00     0.133 A 
ATOM     20  N   UNL d   1      54.095  32.876  54.411  0.00  0.00    -0.226 N 
ATOM     21  C   UNL d   1      54.868  32.978  54.712  0.00  0.00     0.092 A 
ATOM     22  C   UNL d   1      54.949  33.763  54.938  0.00  0.00     0.021 A 
ATOM     23  C   UNL d   1      54.239  34.157  54.783  0.00  0.00     0.025 A 
BRANCH  20  24
ATOM     24  S   UNL d   1      53.773  32.171  54.119  0.00  0.00     0.277 S 
ATOM     25  O   UNL d   1      54.204  32.291  53.430  0.00  0.00    -0.199 OA
ATOM     26  O   UNL d   1      53.341  32.055  54.818  0.00  0.00    -0.199 OA
BRANCH  24  27
ATOM     27  C   UNL d   1      53.474  31.477  53.796  0.00  0.00     0.133 A 
ATOM     28  S   UNL d   1      53.038  30.902  54.193  0.00  0.00    -0.074 SA
ATOM     29  C   UNL d   1      52.852  30.301  53.656  0.00  0.00     0.036 A 
ATOM     30  C   UNL d   1      53.178  30.510  52.923  0.00  0.00     0.008 A 
ATOM     31  C   UNL d   1      53.561  31.235  53.010  0.00  0.00     0.020 A 
ENDBRANCH  24  27
ENDBRANCH  20  24
ENDBRANCH   2  19
TORSDOF 5
ENDMDL
MODEL 3
REMARK VINA RESULT:      -5.2      2.316      5.447
REMARK  5 active torsions:
REMARK  status: ('A' for Active; 'I' for Inactive)
REMARK    1  A    between atoms: N_4  and  S_1 
REMARK    2  A    between atoms: C_10  and  S_1 
REMARK    3  A    between atoms: C_2  and  N_9 
REMARK    4  A    between atoms: C_13  and  C_3 
REMARK    5  A    between atoms: C_11  and  C_8 
REMARK       I    between atoms: N_9  and  C_11 
REMARK       I    between atoms: C_15  and  N_12 
ROOT
ATOM      1  N   UNL d   1      53.681  33.214  54.232  0.00  0.00    -0.200 NA
ATOM      2  C   UNL d   1      52.996  33.619  54.459  0.00  0.00     0.296 C 
ATOM      3  O   UNL d   1      52.315  33.191  54.648  0.00  0.00    -0.264 OA
ENDROOT
BRANCH   1   4
ATOM      4  C   UNL d   1      53.687  32.390  54.194  0.00  0.00     0.119 A 
ATOM      5  C   UNL d   1      54.033  31.928  53.613  0.00  0.00     0.084 A 
ATOM      6  C   UNL d   1      53.904  31.129  53.796  0.00  0.00     0.016 A 
ATOM      7  C   UNL d   1      54.120  30.432  53.418  0.00  0.00     0.020 A 
ATOM      8  C   UNL d   1      53.473  31.106  54.497  0.00  0.00     0.049 A 
ATOM      9  C   UNL d   1      53.907  29.712  53.740  0.00  0.00     0.083 A 
ATOM     10  N   UNL d   1      53.470  29.682  54.451  0.00  0.00    -0.272 N 
ATOM     11  C   UNL d   1      53.256  30.381  54.825  0.00  0.00     0.089 A 
ATOM     12  C   UNL d   1      53.254  28.942  54.778  0.00  0.00     0.265 C 
ATOM     13  O   UNL d   1      52.823  28.918  55.480  0.00  0.00    -0.267 OA
ATOM     14  C   UNL d   1      53.473  28.243  54.396  0.00  0.00     0.066 C 
ATOM     15  S   UNL d   1      53.336  31.879  54.747  0.00  0.00    -0.066 SA
BRANCH   5  16
ATOM     16  C   UNL d   1      54.446  32.207  52.949  0.00  0.00     0.299 C 
ATOM     17  O   UNL d   1      54.098  32.184  52.209  0.00  0.00    -0.264 OA
ATOM     18  N   UNL d   1      55.200  32.502  53.049  0.00  0.00    -0.102 N 
ENDBRANCH   5  16
ENDBRANCH   1   4
BRANCH   2  19
ATOM     19  C   UNL d   1      52.992  34.435  54.496  0.00  0.00     0.133 A 
ATOM     20  N   UNL d   1      52.519  34.942  54.035  0.00  0.00    -0.226 N 
ATOM     21  C   UNL d   1      52.698  35.726  54.259  0.00  0.00     0.092 A 
ATOM     22  C   UNL d   1      53.271  35.695  54.847  0.00  0.00     0.021 A 
ATOM     23  C   UNL d   1      53.454  34.903  54.996  0.00  0.00     0.025 A 
BRANCH  20  24
ATOM     24  S   UNL d   1      51.970  34.711  53.459  0.00  0.00     0.277 S 
ATOM     25  O   UNL d   1      52.526  34.911  52.888  0.00  0.00    -0.199 OA
ATOM     26  O   UNL d   1      51.413  34.511  54.040  0.00  0.00    -0.199 OA
BRANCH  24  27
ATOM     27  C   UNL d   1      51.453  34.492  52.859  0.00  0.00     0.133 A 
ATOM     28  S   UNL d   1      50.645  34.348  52.940  0.00  0.00    -0.074 SA
ATOM     29  C   UNL d   1      50.344  34.144  52.197  0.00  0.00     0.036 A 
ATOM     30  C   UNL d   1      50.972  34.164  51.657  0.00  0.00     0.008 A 
ATOM     31  C   UNL d   1      51.655  34.379  52.065  0.00  0.00     0.020 A 
ENDBRANCH  24  27
ENDBRANCH  20  24
ENDBRANCH   2  19
TORSDOF 5
ENDMDL
MODEL 4
REMARK VINA RESULT:      -4.4      1.566      1.963
REMARK  5 active torsions:
REMARK  status: ('A' for Active; 'I' for Inactive)
REMARK    1  A    between atoms: N_4  and  S_1 
REMARK    2  A    between atoms: C_10  and  S_1 
REMARK    3  A    between atoms: C_2  and  N_9 
REMARK    4  A    between atoms: C_13  and  C_3 
REMARK    5  A    between atoms: C_11  and  C_8 
REMARK       I    between atoms: N_9  and  C_11 
REMARK       I    between atoms: C_15  and  N_12 
ROOT
ATOM      1  N   UNL d   1      52.004  32.700  52.681  0.00  0.00    -0.200 NA
ATOM      2  C   UNL d   1      52.226  32.247  53.337  0.00  0.00     0.296 C 
ATOM      3  O   UNL d   1      51.886  32.403  54.073  0.00  0.00    -0.264 OA
ENDROOT
BRANCH   1   4
ATOM      4  C   UNL d   1      51.446  33.303  52.759  0.00  0.00     0.119 A 
ATOM      5  C   UNL d   1      51.420  34.006  52.339  0.00  0.00     0.084 A 
ATOM      6  C   UNL d   1      50.767  34.447  52.597  0.00  0.00     0.016 A 
ATOM      7  C   UNL d   1      50.473  35.182  52.376  0.00  0.00     0.020 A 
ATOM      8  C   UNL d   1      50.391  34.007  53.182  0.00  0.00     0.049 A 
ATOM      9  C   UNL d   1      49.803  35.478  52.740  0.00  0.00     0.083 A 
ATOM     10  N   UNL d   1      49.417  35.037  53.334  0.00  0.00    -0.272 N 
ATOM     11  C   UNL d   1      49.715  34.302  53.551  0.00  0.00     0.089 A 
ATOM     12  C   UNL d   1      48.733  35.343  53.703  0.00  0.00     0.265 C 
ATOM     13  O   UNL d   1      48.355  34.903  54.290  0.00  0.00    -0.267 OA
ATOM     14  C   UNL d   1      48.439  36.082  53.479  0.00  0.00     0.066 C 
ATOM     15  S   UNL d   1      50.804  33.302  53.287  0.00  0.00    -0.066 SA
BRANCH   5  16
ATOM     16  C   UNL d   1      51.956  34.242  51.750  0.00  0.00     0.299 C 
ATOM     17  O   UNL d   1      51.834  34.022  50.971  0.00  0.00    -0.264 OA
ATOM     18  N   UNL d   1      52.601  34.694  51.962  0.00  0.00    -0.102 N 
ENDBRANCH   5  16
ENDBRANCH   1   4
BRANCH   2  19
ATOM     19  C   UNL d   1      52.778  31.650  53.258  0.00  0.00     0.133 A 
ATOM     20  N   UNL d   1      53.539  31.642  53.596  0.00  0.00    -0.226 N 
ATOM     21  C   UNL d   1      53.907  30.927  53.370  0.00  0.00     0.092 A 
ATOM     22  C   UNL d   1      53.378  30.509  52.902  0.00  0.00     0.021 A 
ATOM     23  C   UNL d   1      52.682  30.950  52.830  0.00  0.00     0.025 A 
BRANCH  20  24
ATOM     24  S   UNL d   1      53.871  32.234  54.071  0.00  0.00     0.277 S 
ATOM     25  O   UNL d   1      54.282  32.497  53.409  0.00  0.00    -0.199 OA
ATOM     26  O   UNL d   1      53.454  31.965  54.735  0.00  0.00    -0.199 OA
BRANCH  24  27
ATOM     27  C   UNL d   1      54.221  32.834  54.509  0.00  0.00     0.133 A 
ATOM     28  S   UNL d   1      54.109  32.981  55.312  0.00  0.00    -0.074 SA
ATOM     29  C   UNL d   1      54.568  33.637  55.522  0.00  0.00     0.036 A 
ATOM     30  C   UNL d   1      54.964  33.894  54.842  0.00  0.00     0.008 A 
ATOM     31  C   UNL d   1      54.750  33.399  54.218  0.00  0.00     0.020 A 
ENDBRANCH  24  27
ENDBRANCH  20  24
ENDBRANCH   2  19
TORSDOF 5
ENDMDL
MODEL 5
REMARK VINA RESULT:      -3.4      1.414      4.654
REMARK  5 active torsions:
REMARK  status: ('A' for Active; 'I' for Inactive)
REMARK    1  A    between atoms: N_4  and  S_1 
REMARK    2  A    between atoms: C_10  and  S_1 
REMARK    3  A    between atoms: C_2  and  N_9 
REMARK    4  A    between atoms: C_13  and  C_3 
REMARK    5  A    between atoms: C_11  and  C_8 
REMARK       I    between atoms: N_9  and  C_11 
REMARK       I    between atoms: C_15  and  N_12 
ROOT
ATOM      1  N   UNL d   1      50.245  34.119  52.299  0.00  0.00    -0.200 NA
ATOM      2  C   UNL d   1      49.795  34.811  52.230  0.00  0.00     0.296 C 
ATOM      3  O   UNL d   1      50.018  35.485  52.652  0.00  0.00    -0.264 OA
ENDROOT
BRANCH   1   4
ATOM      4  C   UNL d   1      50.911  34.101  52.786  0.00  0.00     0.119 A 
ATOM      5  C   UNL d   1      51.250  33.440  53.130  0.00  0.00     0.084 A 
ATOM      6  C   UNL d   1      51.909  33.678  53.574  0.00  0.00     0.016 A 
ATOM      7  C   UNL d   1      52.451  33.260  54.029  0.00  0.00     0.020 A 
ATOM      8  C   UNL d   1      51.971  34.496  53.499  0.00  0.00     0.049 A 
ATOM      9  C   UNL d   1      53.055  33.658  54.410  0.00  0.00     0.083 A 
ATOM     10  N   UNL d   1      53.123  34.487  54.338  0.00  0.00    -0.272 N 
ATOM     11  C   UNL d   1      52.579  34.900  53.881  0.00  0.00     0.089 A 
ATOM     12  C   UNL d   1      53.742  34.891  54.729  0.00  0.00     0.265 C 
ATOM     13  O   UNL d   1      53.805  35.709  54.654  0.00  0.00    -0.267 OA
ATOM     14  C   UNL d   1      54.286  34.468  55.186  0.00  0.00     0.066 C 
ATOM     15  S   UNL d   1      51.360  34.762  53.016  0.00  0.00    -0.066 SA
BRANCH   5  16
ATOM     16  C   UNL d   1      50.983  32.658  53.050  0.00  0.00     0.299 C 
ATOM     17  O   UNL d   1      50.322  32.405  53.462  0.00  0.00    -0.264 OA
ATOM     18  N   UNL d   1      51.389  32.150  52.557  0.00  0.00    -0.102 N 
ENDBRANCH   5  16
ENDBRANCH   1   4
BRANCH   2  19
ATOM     19  C   UNL d   1      49.136  34.828  51.747  0.00  0.00     0.133 A 
ATOM     20  N   UNL d   1      48.402  35.172  51.936  0.00  0.00    -0.226 N 
ATOM     21  C   UNL d   1      47.895  35.058  51.282  0.00  0.00     0.092 A 
ATOM     22  C   UNL d   1      48.315  34.651  50.706  0.00  0.00     0.021 A 
ATOM     23  C   UNL d   1      49.079  34.507  50.987  0.00  0.00     0.025 A 
BRANCH  20  24
ATOM     24  S   UNL d   1      48.209  35.557  52.643  0.00  0.00     0.277 S 
ATOM     25  O   UNL d   1      48.000  34.825  52.954  0.00  0.00    -0.199 OA
ATOM     26  O   UNL d   1      48.421  36.293  52.325  0.00  0.00    -0.199 OA
BRANCH  24  27
ATOM     27  C   UNL d   1      48.007  35.904  53.361  0.00  0.00     0.133 A 
ATOM     28  S   UNL d   1      47.382  35.683  53.851  0.00  0.00    -0.074 SA
ATOM     29  C   UNL d   1      47.384  36.180  54.512  0.00  0.00     0.036 A 
ATOM     30  C   UNL d   1      48.015  36.709  54.427  0.00  0.00     0.008 A 
ATOM     31  C   UNL d   1      48.399  36.539  53.717  0.00  0.00     0.020 A 
ENDBRANCH  24  27
ENDBRANCH  20  24
ENDBRANCH   2  19
TORSDOF 5
ENDMDL
