MODEL 1
REMARK VINA RESULT:      11.5      0.000      0.000
REMARK  4 active torsions:
REMARK  status: ('A' for Active; 'I' for Inactive)
REMARK    1  A    between atoms: N_8  and  C_7 
REMARK    2  A    between atoms: C_9  and  N_8 
REMARK    3  A    between atoms: O_15  and  C_10 
REMARK    4  A    between atoms: C_16  and  O_15 
ROOT
ATOM      1  C   UNL d   1      45.752 -16.885  44.524  0.00  0.00     0.082 A 
ATOM      2  C   UNL d   1      46.343 -18.164  43.677  0.00  0.00     0.100 A 
ATOM      3  C   UNL d   1      46.124 -17.503  44.921  0.00  0.00     0.021 A 
ATOM      4  C   UNL d   1      45.673 -16.902  43.707  0.00  0.00     0.021 A 
ATOM      5  C   UNL d   1      46.421 -18.146  44.496  0.00  0.00     0.026 A 
ATOM      6  C   UNL d   1      45.970 -17.545  43.279  0.00  0.00     0.026 A 
ENDROOT
BRANCH   1   7
ATOM      7  N   UNL d   1      45.454 -16.241  44.953  0.00  0.00    -0.245 NA
BRANCH   7   8
ATOM      8  C   UNL d   1      45.596 -15.435  44.795  0.00  0.00     0.093 A 
ATOM      9  C   UNL d   1      46.177 -14.887  44.573  0.00  0.00     0.118 A 
ATOM     10  S   UNL d   1      45.826 -14.153  44.541  0.00  0.00     0.213 S 
ATOM     11  C   UNL d   1      45.029 -14.233  44.739  0.00  0.00     0.100 A 
ATOM     12  O   UNL d   1      45.465 -13.400  44.508  0.00  0.00    -0.217 OA
ATOM     13  O   UNL d   1      46.613 -14.015  44.335  0.00  0.00    -0.217 OA
ATOM     14  C   UNL d   1      44.887 -15.028  44.896  0.00  0.00     0.032 A 
ENDBRANCH   7   8
ENDBRANCH   1   7
BRANCH   2  15
ATOM     15  O   UNL d   1      46.641 -18.808  43.248  0.00  0.00    -0.305 OA
BRANCH  15  16
ATOM     16  C   UNL d   1      46.223 -19.518  43.236  0.00  0.00     0.123 C 
ATOM     17  C   UNL d   1      46.458 -20.124  42.719  0.00  0.00     0.029 C 
ENDBRANCH  15  16
ENDBRANCH   2  15
TORSDOF 4
ENDMDL
MODEL 2
REMARK VINA RESULT:      11.6      1.323      4.207
REMARK  4 active torsions:
REMARK  status: ('A' for Active; 'I' for Inactive)
REMARK    1  A    between atoms: N_8  and  C_7 
REMARK    2  A    between atoms: C_9  and  N_8 
REMARK    3  A    between atoms: O_15  and  C_10 
REMARK    4  A    between atoms: C_16  and  O_15 
ROOT
ATOM      1  C   UNL d   1      45.601 -15.568  44.738  0.00  0.00     0.082 A 
ATOM      2  C   UNL d   1      45.531 -13.982  44.308  0.00  0.00     0.100 A 
ATOM      3  C   UNL d   1      44.885 -15.238  44.502  0.00  0.00     0.021 A 
ATOM      4  C   UNL d   1      46.283 -15.111  44.762  0.00  0.00     0.021 A 
ATOM      5  C   UNL d   1      44.848 -14.442  44.286  0.00  0.00     0.026 A 
ATOM      6  C   UNL d   1      46.249 -14.312  44.545  0.00  0.00     0.026 A 
ENDROOT
BRANCH   1   7
ATOM      7  N   UNL d   1      45.634 -16.367  44.955  0.00  0.00    -0.245 NA
BRANCH   7   8
ATOM      8  C   UNL d   1      45.883 -16.999  44.472  0.00  0.00     0.093 A 
ATOM      9  C   UNL d   1      46.047 -17.221  43.690  0.00  0.00     0.118 A 
ATOM     10  S   UNL d   1      46.278 -18.002  43.697  0.00  0.00     0.213 S 
ATOM     11  C   UNL d   1      46.261 -18.275  44.476  0.00  0.00     0.100 A 
ATOM     12  O   UNL d   1      46.515 -18.803  43.706  0.00  0.00    -0.217 OA
ATOM     13  O   UNL d   1      46.314 -17.784  42.903  0.00  0.00    -0.217 OA
ATOM     14  C   UNL d   1      46.016 -17.652  44.955  0.00  0.00     0.032 A 
ENDBRANCH   7   8
ENDBRANCH   1   7
BRANCH   2  15
ATOM     15  O   UNL d   1      45.498 -13.183  44.092  0.00  0.00    -0.305 OA
BRANCH  15  16
ATOM     16  C   UNL d   1      45.006 -12.947  43.475  0.00  0.00     0.123 C 
ATOM     17  C   UNL d   1      45.152 -12.229  43.084  0.00  0.00     0.029 C 
ENDBRANCH  15  16
ENDBRANCH   2  15
TORSDOF 4
ENDMDL
MODEL 3
REMARK VINA RESULT:      11.7      1.541      2.360
REMARK  4 active torsions:
REMARK  status: ('A' for Active; 'I' for Inactive)
REMARK    1  A    between atoms: N_8  and  C_7 
REMARK    2  A    between atoms: C_9  and  N_8 
REMARK    3  A    between atoms: O_15  and  C_10 
REMARK    4  A    between atoms: C_16  and  O_15 
ROOT
ATOM      1  C   UNL d   1      45.344 -14.621  44.952  0.00  0.00     0.082 A 
ATOM      2  C   UNL d   1      45.775 -16.208  44.954  0.00  0.00     0.100 A 
ATOM      3  C   UNL d   1      46.140 -14.830  44.953  0.00  0.00     0.021 A 
ATOM      4  C   UNL d   1      44.762 -15.200  44.952  0.00  0.00     0.021 A 
ATOM      5  C   UNL d   1      46.358 -15.627  44.954  0.00  0.00     0.026 A 
ATOM      6  C   UNL d   1      44.977 -16.000  44.953  0.00  0.00     0.026 A 
ENDROOT
BRANCH   1   7
ATOM      7  N   UNL d   1      45.129 -13.821  44.950  0.00  0.00    -0.245 NA
BRANCH   7   8
ATOM      8  C   UNL d   1      45.170 -13.300  44.301  0.00  0.00     0.093 A 
ATOM      9  C   UNL d   1      45.685 -12.843  43.839  0.00  0.00     0.118 A 
ATOM     10  S   UNL d   1      45.240 -12.471  43.267  0.00  0.00     0.213 S 
ATOM     11  C   UNL d   1      44.450 -12.688  43.364  0.00  0.00     0.100 A 
ATOM     12  O   UNL d   1      44.783 -12.089  42.681  0.00  0.00    -0.217 OA
ATOM     13  O   UNL d   1      46.013 -12.220  43.125  0.00  0.00    -0.217 OA
ATOM     14  C   UNL d   1      44.408 -13.202  44.005  0.00  0.00     0.032 A 
ENDBRANCH   7   8
ENDBRANCH   1   7
BRANCH   2  15
ATOM     15  O   UNL d   1      45.990 -17.008  44.955  0.00  0.00    -0.305 OA
BRANCH  15  16
ATOM     16  C   UNL d   1      45.869 -17.465  44.280  0.00  0.00     0.123 C 
ATOM     17  C   UNL d   1      46.327 -18.147  44.156  0.00  0.00     0.029 C 
ENDBRANCH  15  16
ENDBRANCH   2  15
TORSDOF 4
ENDMDL
