MODEL 1
REMARK VINA RESULT:      46.6      0.000      0.000
REMARK  3 active torsions:
REMARK  status: ('A' for Active; 'I' for Inactive)
REMARK    1  A    between atoms: C_7  and  N_1 
REMARK    2  A    between atoms: C_10  and  C_3 
REMARK    3  A    between atoms: C_8  and  C_7 
ROOT
ATOM      1  N   UNL d   1     -51.216  25.322  33.338  0.00  0.00    -0.289 N 
ATOM      2  N   UNL d   1     -50.018  26.105  33.361  0.00  0.00    -0.217 NA
ATOM      3  C   UNL d   1     -50.838  26.057  33.353  0.00  0.00     0.149 A 
ATOM      4  C   UNL d   1     -49.934  24.668  33.340  0.00  0.00     0.044 A 
ATOM      5  C   UNL d   1     -49.561  25.418  33.355  0.00  0.00     0.139 A 
ATOM      6  C   UNL d   1     -50.755  24.621  33.332  0.00  0.00     0.068 A 
ATOM      7  S   UNL d   1     -48.731  25.452  33.363  0.00  0.00    -0.057 SA
ATOM      8  C   UNL d   1     -49.477  23.973  33.334  0.00  0.00     0.004 A 
ATOM      9  C   UNL d   1     -51.138  23.886  33.317  0.00  0.00     0.018 A 
ATOM     10  C   UNL d   1     -49.864  23.236  33.319  0.00  0.00     0.000 A 
ATOM     11  C   UNL d   1     -50.685  23.189  33.311  0.00  0.00     0.002 A 
ENDROOT
BRANCH   1  12
ATOM     12  C   UNL d   1     -52.037  25.275  33.329  0.00  0.00     0.106 C 
BRANCH  12  13
ATOM     13  C   UNL d   1     -52.428  24.747  33.829  0.00  0.00     0.118 A 
ATOM     14  O   UNL d   1     -52.361  24.720  34.637  0.00  0.00    -0.304 OA
ATOM     15  C   UNL d   1     -52.841  24.116  34.912  0.00  0.00     0.123 A 
ATOM     16  C   UNL d   1     -53.210  23.767  34.260  0.00  0.00     0.029 A 
ATOM     17  C   UNL d   1     -52.952  24.161  33.582  0.00  0.00     0.028 A 
ENDBRANCH  12  13
ENDBRANCH   1  12
BRANCH   3  18
ATOM     18  C   UNL d   1     -51.299  26.745  33.359  0.00  0.00     0.035 A 
ATOM     19  C   UNL d   1     -52.118  26.699  33.306  0.00  0.00     0.003 A 
ATOM     20  C   UNL d   1     -52.561  27.391  33.314  0.00  0.00     0.000 A 
ATOM     21  C   UNL d   1     -52.202  28.124  33.372  0.00  0.00     0.000 A 
ATOM     22  C   UNL d   1     -51.369  28.171  33.425  0.00  0.00     0.000 A 
ATOM     23  C   UNL d   1     -50.922  27.478  33.418  0.00  0.00     0.003 A 
ENDBRANCH   3  18
TORSDOF 3
ENDMDL
