MODEL 1
REMARK VINA RESULT:      45.5      0.000      0.000
REMARK  2 active torsions:
REMARK  status: ('A' for Active; 'I' for Inactive)
REMARK    1  A    between atoms: N_2  and  N_1 
REMARK    2  A    between atoms: N_8  and  C_10 
ROOT
ATOM      1  N   UNL d   1     -57.694 -98.913 -44.233  0.00  0.00    -0.171 N 
ATOM      2  C   UNL d   1     -57.070 -99.017 -44.749  0.00  0.00     0.283 A 
ATOM      3  C   UNL d   1     -56.367 -99.033 -44.295  0.00  0.00     0.085 A 
ATOM      4  C   UNL d   1     -57.403 -98.863 -43.463  0.00  0.00     0.282 A 
ATOM      5  C   UNL d   1     -56.576 -98.938 -43.491  0.00  0.00     0.064 A 
ATOM      6  C   UNL d   1     -55.577 -99.122 -44.504  0.00  0.00     0.131 A 
ATOM      7  O   UNL d   1     -57.149 -99.090 -45.569  0.00  0.00    -0.265 OA
ATOM      8  O   UNL d   1     -57.874 -98.756 -42.771  0.00  0.00    -0.265 OA
ATOM      9  C   UNL d   1     -55.990 -98.932 -42.911  0.00  0.00     0.005 A 
ATOM     10  C   UNL d   1     -54.994 -99.116 -43.930  0.00  0.00     0.024 A 
ATOM     11  C   UNL d   1     -55.197 -99.023 -43.143  0.00  0.00     0.002 A 
ENDROOT
BRANCH   1  12
ATOM     12  N   UNL d   1     -58.506 -98.855 -44.356  0.00  0.00    -0.189 N 
ATOM     13  C   UNL d   1     -59.151 -98.797 -43.859  0.00  0.00     0.169 A 
ATOM     14  S   UNL d   1     -59.825 -98.756 -44.327  0.00  0.00    -0.051 SA
ATOM     15  S   UNL d   1     -59.131 -98.780 -43.004  0.00  0.00    -0.050 SA
ATOM     16  C   UNL d   1     -59.598 -98.789 -45.116  0.00  0.00     0.100 A 
ATOM     17  C   UNL d   1     -58.789 -98.850 -45.143  0.00  0.00     0.287 A 
ATOM     18  O   UNL d   1     -58.340 -98.898 -45.826  0.00  0.00    -0.265 OA
ENDBRANCH   1  12
BRANCH   6  19
ATOM     19  N   UNL d   1     -55.367 -99.219 -45.317  0.00  0.00    -0.114 N 
ATOM     20  O   UNL d   1     -54.803 -99.779 -45.529  0.00  0.00    -0.532 OA
ATOM     21  O   UNL d   1     -55.724 -98.755 -45.890  0.00  0.00    -0.532 OA
ENDBRANCH   6  19
TORSDOF 2
ENDMDL
