MODEL 1
REMARK VINA RESULT:      62.1      0.000      0.000
REMARK  7 active torsions:
REMARK  status: ('A' for Active; 'I' for Inactive)
REMARK    1  A    between atoms: N_7  and  S_1 
REMARK    2  A    between atoms: C_19  and  S_1 
REMARK    3  A    between atoms: N_2  and  C_3 
REMARK    4  A    between atoms: C_3  and  C_6 
REMARK    5  A    between atoms: C_5  and  C_3 
REMARK    6  A    between atoms: C_16  and  N_4 
REMARK    7  A    between atoms: C_6  and  N_7 
ROOT
ATOM      1  C   UNL d   1      60.459  49.000  50.978  0.00  0.00     0.107 C 
ENDROOT
BRANCH   1   2
ATOM      2  N   UNL d   1      60.772  48.308  50.655  0.00  0.00    -0.298 N 
ATOM      3  C   UNL d   1      61.266  48.348  49.995  0.00  0.00     0.100 A 
ATOM      4  C   UNL d   1      61.576  47.656  49.675  0.00  0.00     0.100 A 
ATOM      5  N   UNL d   1      61.399  46.925  50.007  0.00  0.00    -0.301 N 
ATOM      6  C   UNL d   1      60.905  46.884  50.667  0.00  0.00     0.100 A 
ATOM      7  C   UNL d   1      60.592  47.576  50.990  0.00  0.00     0.100 A 
BRANCH   5   8
ATOM      8  C   UNL d   1      61.709  46.238  49.687  0.00  0.00     0.064 A 
ATOM      9  C   UNL d   1      62.484  46.219  49.421  0.00  0.00     0.018 A 
ATOM     10  C   UNL d   1      62.798  45.530  49.099  0.00  0.00     0.002 A 
ATOM     11  C   UNL d   1      62.329  44.853  49.044  0.00  0.00     0.000 A 
ATOM     12  C   UNL d   1      61.548  44.870  49.311  0.00  0.00     0.002 A 
ATOM     13  C   UNL d   1      61.240  45.561  49.632  0.00  0.00     0.018 A 
ENDBRANCH   5   8
ENDBRANCH   1   2
BRANCH   1  14
ATOM     14  C   UNL d   1      59.868  49.426  50.588  0.00  0.00     0.132 C 
BRANCH  14  15
ATOM     15  N   UNL d   1      59.196  49.681  51.020  0.00  0.00    -0.155 NA
BRANCH  15  16
ATOM     16  S   UNL d   1      58.451  49.644  50.676  0.00  0.00     0.286 S 
ATOM     17  O   UNL d   1      58.103  49.582  51.426  0.00  0.00    -0.198 OA
ATOM     18  O   UNL d   1      58.805  49.706  49.926  0.00  0.00    -0.198 OA
BRANCH  16  19
ATOM     19  C   UNL d   1      57.706  49.607  50.318  0.00  0.00     0.117 C 
ATOM     20  C   UNL d   1      57.329  48.877  50.231  0.00  0.00     0.014 C 
ENDBRANCH  16  19
ENDBRANCH  15  16
ENDBRANCH  14  15
ENDBRANCH   1  14
BRANCH   1  21
ATOM     21  C   UNL d   1      60.743  49.279  51.716  0.00  0.00     0.118 A 
ATOM     22  O   UNL d   1      60.220  49.440  52.330  0.00  0.00    -0.304 OA
ATOM     23  C   UNL d   1      60.661  49.704  52.981  0.00  0.00     0.123 A 
ATOM     24  C   UNL d   1      61.448  49.704  52.767  0.00  0.00     0.029 A 
ATOM     25  C   UNL d   1      61.502  49.441  51.985  0.00  0.00     0.028 A 
ENDBRANCH   1  21
TORSDOF 7
ENDMDL
