MODEL 1
REMARK VINA RESULT:      -3.1      0.000      0.000
REMARK  3 active torsions:
REMARK  status: ('A' for Active; 'I' for Inactive)
REMARK    1  A    between atoms: S_3  and  N_1 
REMARK    2  A    between atoms: C_7  and  C_4 
REMARK    3  A    between atoms: C_11  and  C_5 
ROOT
ATOM      1  N   UNL d   1      32.507  21.823 -20.203  0.00  0.00    -0.155 N 
ATOM      2  N   UNL d   1      32.579  21.764 -19.388  0.00  0.00    -0.156 NA
ATOM      3  C   UNL d   1      32.630  22.619 -20.426  0.00  0.00     0.102 A 
ATOM      4  C   UNL d   1      32.750  22.531 -19.095  0.00  0.00     0.104 A 
ATOM      5  C   UNL d   1      32.779  23.042 -19.739  0.00  0.00     0.041 A 
ENDROOT
BRANCH   4   6
ATOM      6  C   UNL d   1      32.870  22.739 -18.297  0.00  0.00     0.019 A 
ATOM      7  C   UNL d   1      33.118  22.158 -17.752  0.00  0.00     0.002 A 
ATOM      8  C   UNL d   1      33.238  22.364 -16.951  0.00  0.00     0.000 A 
ATOM      9  C   UNL d   1      33.112  23.144 -16.700  0.00  0.00     0.000 A 
ATOM     10  C   UNL d   1      32.867  23.702 -17.254  0.00  0.00     0.000 A 
ATOM     11  C   UNL d   1      33.228  23.336 -15.936  0.00  0.00     0.000 C 
ATOM     12  C   UNL d   1      32.743  23.518 -18.046  0.00  0.00     0.002 A 
ENDBRANCH   4   6
BRANCH   1  13
ATOM     13  S   UNL d   1      32.334  21.173 -20.719  0.00  0.00     0.266 S 
ATOM     14  O   UNL d   1      32.199  20.521 -21.225  0.00  0.00    -0.203 OA
ATOM     15  O   UNL d   1      31.554  21.415 -20.776  0.00  0.00    -0.203 OA
ATOM     16  C   UNL d   1      33.158  20.933 -20.648  0.00  0.00     0.165 C 
ENDBRANCH   1  13
BRANCH   3  17
ATOM     17  C   UNL d   1      32.604  22.913 -21.211  0.00  0.00     0.048 A 
ATOM     18  S   UNL d   1      33.236  22.885 -21.754  0.00  0.00    -0.085 SA
ATOM     19  C   UNL d   1      32.951  23.238 -22.448  0.00  0.00     0.035 A 
ATOM     20  C   UNL d   1      32.189  23.475 -22.352  0.00  0.00     0.007 A 
ATOM     21  C   UNL d   1      31.966  23.276 -21.586  0.00  0.00     0.009 A 
ENDBRANCH   3  17
TORSDOF 3
ENDMDL
MODEL 2
REMARK VINA RESULT:      -2.9      6.569      8.221
REMARK  3 active torsions:
REMARK  status: ('A' for Active; 'I' for Inactive)
REMARK    1  A    between atoms: S_3  and  N_1 
REMARK    2  A    between atoms: C_7  and  C_4 
REMARK    3  A    between atoms: C_11  and  C_5 
ROOT
ATOM      1  N   UNL d   1      31.710  16.128 -24.120  0.00  0.00    -0.155 N 
ATOM      2  N   UNL d   1      31.023  15.688 -24.038  0.00  0.00    -0.156 NA
ATOM      3  C   UNL d   1      31.514  16.940 -24.094  0.00  0.00     0.102 A 
ATOM      4  C   UNL d   1      30.387  16.229 -23.959  0.00  0.00     0.104 A 
ATOM      5  C   UNL d   1      30.701  16.988 -23.995  0.00  0.00     0.041 A 
ENDROOT
BRANCH   4   6
ATOM      6  C   UNL d   1      29.583  16.034 -23.863  0.00  0.00     0.019 A 
ATOM      7  C   UNL d   1      29.092  15.959 -24.534  0.00  0.00     0.002 A 
ATOM      8  C   UNL d   1      28.285  15.763 -24.438  0.00  0.00     0.000 A 
ATOM      9  C   UNL d   1      27.973  15.644 -23.679  0.00  0.00     0.000 A 
ATOM     10  C   UNL d   1      28.475  15.723 -23.031  0.00  0.00     0.000 A 
ATOM     11  C   UNL d   1      27.204  15.458 -23.594  0.00  0.00     0.000 C 
ATOM     12  C   UNL d   1      29.271  15.915 -23.104  0.00  0.00     0.002 A 
ENDBRANCH   4   6
BRANCH   1  13
ATOM     13  S   UNL d   1      32.485  15.796 -24.215  0.00  0.00     0.266 S 
ATOM     14  O   UNL d   1      33.241  15.462 -24.343  0.00  0.00    -0.203 OA
ATOM     15  O   UNL d   1      32.660  15.961 -23.432  0.00  0.00    -0.203 OA
ATOM     16  C   UNL d   1      32.284  15.630 -25.035  0.00  0.00     0.165 C 
ENDBRANCH   1  13
BRANCH   3  17
ATOM     17  C   UNL d   1      32.059  17.573 -24.158  0.00  0.00     0.048 A 
ATOM     18  S   UNL d   1      32.286  17.940 -24.872  0.00  0.00    -0.085 SA
ATOM     19  C   UNL d   1      32.828  18.529 -24.659  0.00  0.00     0.035 A 
ATOM     20  C   UNL d   1      32.940  18.537 -23.863  0.00  0.00     0.007 A 
ATOM     21  C   UNL d   1      32.465  17.945 -23.545  0.00  0.00     0.009 A 
ENDBRANCH   3  17
TORSDOF 3
ENDMDL
MODEL 3
REMARK VINA RESULT:      -2.2      4.941      6.556
REMARK  3 active torsions:
REMARK  status: ('A' for Active; 'I' for Inactive)
REMARK    1  A    between atoms: S_3  and  N_1 
REMARK    2  A    between atoms: C_7  and  C_4 
REMARK    3  A    between atoms: C_11  and  C_5 
ROOT
ATOM      1  N   UNL d   1      32.578  17.079 -23.974  0.00  0.00    -0.155 N 
ATOM      2  N   UNL d   1      33.016  17.712 -23.693  0.00  0.00    -0.156 NA
ATOM      3  C   UNL d   1      31.765  17.274 -23.930  0.00  0.00     0.102 A 
ATOM      4  C   UNL d   1      32.475  18.313 -23.469  0.00  0.00     0.104 A 
ATOM      5  C   UNL d   1      31.717  18.032 -23.619  0.00  0.00     0.041 A 
ENDROOT
BRANCH   4   6
ATOM      6  C   UNL d   1      32.670  19.059 -23.153  0.00  0.00     0.019 A 
ATOM      7  C   UNL d   1      32.653  19.174 -22.327  0.00  0.00     0.002 A 
ATOM      8  C   UNL d   1      32.848  19.922 -22.008  0.00  0.00     0.000 A 
ATOM      9  C   UNL d   1      33.056  20.547 -22.511  0.00  0.00     0.000 A 
ATOM     10  C   UNL d   1      33.066  20.412 -23.324  0.00  0.00     0.000 A 
ATOM     11  C   UNL d   1      33.241  21.257 -22.202  0.00  0.00     0.000 C 
ATOM     12  C   UNL d   1      32.878  19.684 -23.657  0.00  0.00     0.002 A 
ENDBRANCH   4   6
BRANCH   1  13
ATOM     13  S   UNL d   1      32.909  16.352 -24.258  0.00  0.00     0.266 S 
ATOM     14  O   UNL d   1      33.236  15.649 -24.573  0.00  0.00    -0.203 OA
ATOM     15  O   UNL d   1      32.916  16.048 -23.498  0.00  0.00    -0.203 OA
ATOM     16  C   UNL d   1      32.895  16.688 -25.051  0.00  0.00     0.165 C 
ENDBRANCH   1  13
BRANCH   3  17
ATOM     17  C   UNL d   1      31.134  16.776 -24.164  0.00  0.00     0.048 A 
ATOM     18  S   UNL d   1      30.842  16.705 -24.942  0.00  0.00    -0.085 SA
ATOM     19  C   UNL d   1      30.224  16.154 -24.900  0.00  0.00     0.035 A 
ATOM     20  C   UNL d   1      30.128  15.893 -24.146  0.00  0.00     0.007 A 
ATOM     21  C   UNL d   1      30.690  16.275 -23.682  0.00  0.00     0.009 A 
ENDBRANCH   3  17
TORSDOF 3
ENDMDL
MODEL 4
REMARK VINA RESULT:      -1.7      7.457      8.505
REMARK  3 active torsions:
REMARK  status: ('A' for Active; 'I' for Inactive)
REMARK    1  A    between atoms: S_3  and  N_1 
REMARK    2  A    between atoms: C_7  and  C_4 
REMARK    3  A    between atoms: C_11  and  C_5 
ROOT
ATOM      1  N   UNL d   1      30.981  17.098 -24.136  0.00  0.00    -0.155 N 
ATOM      2  N   UNL d   1      30.176  17.139 -23.980  0.00  0.00    -0.156 NA
ATOM      3  C   UNL d   1      31.199  16.294 -24.209  0.00  0.00     0.102 A 
ATOM      4  C   UNL d   1      29.885  16.353 -23.956  0.00  0.00     0.104 A 
ATOM      5  C   UNL d   1      30.519  15.849 -24.097  0.00  0.00     0.041 A 
ENDROOT
BRANCH   4   6
ATOM      6  C   UNL d   1      29.097  16.123 -23.814  0.00  0.00     0.019 A 
ATOM      7  C   UNL d   1      28.721  16.352 -23.104  0.00  0.00     0.002 A 
ATOM      8  C   UNL d   1      27.931  16.122 -22.961  0.00  0.00     0.000 A 
ATOM      9  C   UNL d   1      27.521  15.669 -23.522  0.00  0.00     0.000 A 
ATOM     10  C   UNL d   1      27.910  15.454 -24.215  0.00  0.00     0.000 A 
ATOM     11  C   UNL d   1      26.768  15.453 -23.379  0.00  0.00     0.000 C 
ATOM     12  C   UNL d   1      28.688  15.670 -24.374  0.00  0.00     0.002 A 
ENDBRANCH   4   6
BRANCH   1  13
ATOM     13  S   UNL d   1      31.492  17.771 -24.207  0.00  0.00     0.266 S 
ATOM     14  O   UNL d   1      31.984  18.439 -24.312  0.00  0.00    -0.203 OA
ATOM     15  O   UNL d   1      31.762  17.657 -23.443  0.00  0.00    -0.203 OA
ATOM     16  C   UNL d   1      31.196  17.876 -25.009  0.00  0.00     0.165 C 
ENDBRANCH   1  13
BRANCH   3  17
ATOM     17  C   UNL d   1      31.973  16.014 -24.368  0.00  0.00     0.048 A 
ATOM     18  S   UNL d   1      32.586  15.954 -23.806  0.00  0.00    -0.085 SA
ATOM     19  C   UNL d   1      33.239  15.653 -24.218  0.00  0.00     0.035 A 
ATOM     20  C   UNL d   1      33.054  15.529 -24.990  0.00  0.00     0.007 A 
ATOM     21  C   UNL d   1      32.268  15.752 -25.092  0.00  0.00     0.009 A 
ENDBRANCH   3  17
TORSDOF 3
ENDMDL
MODEL 5
REMARK VINA RESULT:      -1.4      4.379      6.082
REMARK  3 active torsions:
REMARK  status: ('A' for Active; 'I' for Inactive)
REMARK    1  A    between atoms: S_3  and  N_1 
REMARK    2  A    between atoms: C_7  and  C_4 
REMARK    3  A    between atoms: C_11  and  C_5 
ROOT
ATOM      1  N   UNL d   1      31.872  17.926 -23.937  0.00  0.00    -0.155 N 
ATOM      2  N   UNL d   1      31.829  18.710 -23.702  0.00  0.00    -0.156 NA
ATOM      3  C   UNL d   1      32.561  17.584 -23.609  0.00  0.00     0.102 A 
ATOM      4  C   UNL d   1      32.499  18.865 -23.221  0.00  0.00     0.104 A 
ATOM      5  C   UNL d   1      32.936  18.170 -23.173  0.00  0.00     0.041 A 
ENDROOT
BRANCH   4   6
ATOM      6  C   UNL d   1      32.688  19.590 -22.858  0.00  0.00     0.019 A 
ATOM      7  C   UNL d   1      32.501  19.711 -22.054  0.00  0.00     0.002 A 
ATOM      8  C   UNL d   1      32.690  20.438 -21.688  0.00  0.00     0.000 A 
ATOM      9  C   UNL d   1      33.063  21.038 -22.123  0.00  0.00     0.000 A 
ATOM     10  C   UNL d   1      33.239  20.898 -22.915  0.00  0.00     0.000 A 
ATOM     11  C   UNL d   1      33.241  21.729 -21.769  0.00  0.00     0.000 C 
ATOM     12  C   UNL d   1      33.061  20.190 -23.293  0.00  0.00     0.002 A 
ENDBRANCH   4   6
BRANCH   1  13
ATOM     13  S   UNL d   1      31.301  17.540 -24.431  0.00  0.00     0.266 S 
ATOM     14  O   UNL d   1      30.750  17.179 -24.947  0.00  0.00    -0.203 OA
ATOM     15  O   UNL d   1      31.041  17.093 -23.796  0.00  0.00    -0.203 OA
ATOM     16  C   UNL d   1      31.587  18.018 -25.088  0.00  0.00     0.165 C 
ENDBRANCH   1  13
BRANCH   3  17
ATOM     17  C   UNL d   1      32.808  16.791 -23.716  0.00  0.00     0.048 A 
ATOM     18  S   UNL d   1      33.026  16.450 -24.445  0.00  0.00    -0.085 SA
ATOM     19  C   UNL d   1      33.225  15.664 -24.276  0.00  0.00     0.035 A 
ATOM     20  C   UNL d   1      33.138  15.513 -23.490  0.00  0.00     0.007 A 
ATOM     21  C   UNL d   1      32.879  16.209 -23.136  0.00  0.00     0.009 A 
ENDBRANCH   3  17
TORSDOF 3
ENDMDL
MODEL 6
REMARK VINA RESULT:      -1.0      1.797      4.353
REMARK  3 active torsions:
REMARK  status: ('A' for Active; 'I' for Inactive)
REMARK    1  A    between atoms: S_3  and  N_1 
REMARK    2  A    between atoms: C_7  and  C_4 
REMARK    3  A    between atoms: C_11  and  C_5 
ROOT
ATOM      1  N   UNL d   1      32.272  22.216 -21.052  0.00  0.00    -0.155 N 
ATOM      2  N   UNL d   1      32.235  21.711 -21.697  0.00  0.00    -0.156 NA
ATOM      3  C   UNL d   1      32.774  21.877 -20.475  0.00  0.00     0.102 A 
ATOM      4  C   UNL d   1      32.719  21.048 -21.526  0.00  0.00     0.104 A 
ATOM      5  C   UNL d   1      33.041  21.163 -20.778  0.00  0.00     0.041 A 
ENDROOT
BRANCH   4   6
ATOM      6  C   UNL d   1      32.850  20.392 -22.022  0.00  0.00     0.019 A 
ATOM      7  C   UNL d   1      33.031  20.513 -22.828  0.00  0.00     0.002 A 
ATOM      8  C   UNL d   1      33.162  19.856 -23.327  0.00  0.00     0.000 A 
ATOM      9  C   UNL d   1      33.114  19.086 -23.022  0.00  0.00     0.000 A 
ATOM     10  C   UNL d   1      32.935  18.989 -22.224  0.00  0.00     0.000 A 
ATOM     11  C   UNL d   1      33.241  18.464 -23.502  0.00  0.00     0.000 C 
ATOM     12  C   UNL d   1      32.802  19.622 -21.717  0.00  0.00     0.002 A 
ENDBRANCH   4   6
BRANCH   1  13
ATOM     13  S   UNL d   1      31.862  22.955 -20.995  0.00  0.00     0.266 S 
ATOM     14  O   UNL d   1      31.484  23.701 -20.958  0.00  0.00    -0.203 OA
ATOM     15  O   UNL d   1      31.271  22.603 -20.550  0.00  0.00    -0.203 OA
ATOM     16  C   UNL d   1      32.492  23.310 -21.463  0.00  0.00     0.165 C 
ENDBRANCH   1  13
BRANCH   3  17
ATOM     17  C   UNL d   1      32.959  22.218 -19.732  0.00  0.00     0.048 A 
ATOM     18  S   UNL d   1      33.070  21.792 -19.023  0.00  0.00    -0.085 SA
ATOM     19  C   UNL d   1      33.240  22.361 -18.445  0.00  0.00     0.035 A 
ATOM     20  C   UNL d   1      33.238  23.099 -18.764  0.00  0.00     0.007 A 
ATOM     21  C   UNL d   1      33.064  23.018 -19.564  0.00  0.00     0.009 A 
ENDBRANCH   3  17
TORSDOF 3
ENDMDL
