MODEL 1
REMARK VINA RESULT:      -4.2      0.000      0.000
REMARK  7 active torsions:
REMARK  status: ('A' for Active; 'I' for Inactive)
REMARK    1  A    between atoms: C_3  and  S_1 
REMARK    2  A    between atoms: N_4  and  S_1 
REMARK    3  A    between atoms: C_2  and  C_11 
REMARK       I    between atoms: N_5  and  C_2 
REMARK    4  A    between atoms: C_18  and  N_4 
REMARK    5  A    between atoms: C_12  and  N_5 
REMARK    6  A    between atoms: C_22  and  C_18 
REMARK    7  A    between atoms: O_26  and  C_19 
ROOT
ATOM      1  C   UNL d   1      57.297   0.412  32.175  0.00  0.00     0.058 A 
ATOM      2  C   UNL d   1      56.898   0.284  31.455  0.00  0.00     0.005 A 
ATOM      3  C   UNL d   1      58.112   0.542  32.175  0.00  0.00     0.005 A 
ATOM      4  C   UNL d   1      58.124   0.414  30.747  0.00  0.00     0.020 A 
ATOM      5  C   UNL d   1      57.310   0.285  30.748  0.00  0.00     0.002 A 
ATOM      6  C   UNL d   1      58.528   0.543  31.455  0.00  0.00     0.002 A 
ENDROOT
BRANCH   4   7
ATOM      7  C   UNL d   1      58.547   0.417  30.032  0.00  0.00     0.112 C 
BRANCH   7   8
ATOM      8  N   UNL d   1      58.418  -0.185  29.471  0.00  0.00    -0.157 NA
BRANCH   8   9
ATOM      9  S   UNL d   1      59.040  -0.689  29.247  0.00  0.00     0.285 S 
ATOM     10  O   UNL d   1      59.564  -0.041  29.210  0.00  0.00    -0.198 OA
ATOM     11  O   UNL d   1      58.521  -1.348  29.281  0.00  0.00    -0.198 OA
BRANCH   9  12
ATOM     12  C   UNL d   1      59.663  -1.202  29.021  0.00  0.00     0.107 A 
ATOM     13  C   UNL d   1      59.597  -2.016  29.141  0.00  0.00     0.037 A 
ATOM     14  C   UNL d   1      60.207  -2.520  28.920  0.00  0.00     0.095 A 
ATOM     15  C   UNL d   1      60.889  -2.217  28.578  0.00  0.00     0.024 A 
ATOM     16  C   UNL d   1      60.961  -1.398  28.455  0.00  0.00     0.003 A 
ATOM     17  C   UNL d   1      60.351  -0.894  28.676  0.00  0.00     0.013 A 
BRANCH  14  18
ATOM     18  O   UNL d   1      60.143  -3.343  29.039  0.00  0.00    -0.328 OA
ATOM     19  C   UNL d   1      60.784  -3.758  29.337  0.00  0.00     0.181 C 
ENDBRANCH  14  18
ENDBRANCH   9  12
ENDBRANCH   8   9
ENDBRANCH   7   8
ENDBRANCH   4   7
BRANCH   1  20
ATOM     20  C   UNL d   1      56.890   0.413  32.891  0.00  0.00     0.279 C 
ATOM     21  N   UNL d   1      56.113   0.682  32.923  0.00  0.00    -0.208 NA
ATOM     22  O   UNL d   1      57.257   0.143  33.580  0.00  0.00    -0.265 OA
BRANCH  21  23
ATOM     23  C   UNL d   1      55.703   0.682  33.647  0.00  0.00     0.086 A 
ATOM     24  C   UNL d   1      54.871   0.681  33.640  0.00  0.00     0.032 A 
ATOM     25  C   UNL d   1      54.465   0.681  34.366  0.00  0.00     0.070 A 
ATOM     26 CL   UNL d   1      53.640   0.681  34.362  0.00  0.00    -0.081 Cl
ATOM     27  C   UNL d   1      54.885   0.681  35.074  0.00  0.00     0.068 A 
ATOM     28  C   UNL d   1      55.714   0.682  35.067  0.00  0.00     0.014 A 
ATOM     29 CL   UNL d   1      54.473   0.681  35.793  0.00  0.00    -0.082 Cl
ATOM     30  C   UNL d   1      56.117   0.682  34.349  0.00  0.00     0.020 A 
ENDBRANCH  21  23
ENDBRANCH   1  20
TORSDOF 7
ENDMDL
