MODEL 1
REMARK VINA RESULT:       8.8      0.000      0.000
REMARK  7 active torsions:
REMARK  status: ('A' for Active; 'I' for Inactive)
REMARK       I    between atoms: N_3  and  C_1 
REMARK    1  A    between atoms: C_10  and  C_1 
REMARK    2  A    between atoms: C_2  and  C_5 
REMARK    3  A    between atoms: O_15  and  C_2 
REMARK    4  A    between atoms: C_11  and  N_3 
REMARK    5  A    between atoms: C_4  and  C_11 
REMARK       I    between atoms: N_6  and  C_4 
REMARK    6  A    between atoms: C_14  and  N_6 
REMARK    7  A    between atoms: C_20  and  O_15 
ROOT
ATOM      1  C   UNL d   1      46.088 -16.361  44.382  0.00  0.00     0.299 C 
ATOM      2  N   UNL d   1      45.597 -15.865  44.818  0.00  0.00    -0.207 NA
ATOM      3  O   UNL d   1      46.584 -16.038  43.807  0.00  0.00    -0.263 OA
ENDROOT
BRANCH   1   4
ATOM      4  C   UNL d   1      46.090 -17.168  44.514  0.00  0.00     0.165 C 
BRANCH   4   5
ATOM      5  N   UNL d   1      46.284 -17.691  43.909  0.00  0.00    -0.201 NA
ATOM      6  C   UNL d   1      46.057 -18.481  43.961  0.00  0.00     0.279 C 
ATOM      7  O   UNL d   1      45.615 -18.717  44.669  0.00  0.00    -0.265 OA
BRANCH   6   8
ATOM      8  C   UNL d   1      46.251 -19.008  43.354  0.00  0.00     0.058 A 
ATOM      9  C   UNL d   1      46.362 -19.808  43.524  0.00  0.00     0.005 A 
ATOM     10  C   UNL d   1      46.555 -20.330  42.921  0.00  0.00     0.000 A 
ATOM     11  C   UNL d   1      46.638 -20.060  42.154  0.00  0.00     0.000 A 
ATOM     12  C   UNL d   1      46.527 -19.260  41.984  0.00  0.00     0.000 A 
ATOM     13  C   UNL d   1      46.334 -18.730  42.582  0.00  0.00     0.005 A 
ENDBRANCH   6   8
ENDBRANCH   4   5
ENDBRANCH   1   4
BRANCH   2  14
ATOM     14  C   UNL d   1      45.598 -15.048  44.682  0.00  0.00     0.085 A 
ATOM     15  C   UNL d   1      46.224 -14.593  44.955  0.00  0.00     0.019 A 
ATOM     16  C   UNL d   1      46.227 -13.786  44.822  0.00  0.00     0.007 A 
ATOM     17  C   UNL d   1      45.597 -13.426  44.411  0.00  0.00     0.064 A 
ATOM     18  C   UNL d   1      44.972 -13.891  44.140  0.00  0.00     0.007 A 
ATOM     19  C   UNL d   1      44.970 -14.703  44.274  0.00  0.00     0.019 A 
BRANCH  17  20
ATOM     20  C   UNL d   1      45.601 -12.611  44.277  0.00  0.00     0.300 C 
ATOM     21  O   UNL d   1      46.269 -12.162  44.458  0.00  0.00    -0.259 OA
BRANCH  20  22
ATOM     22  O   UNL d   1      44.932 -12.247  43.961  0.00  0.00    -0.271 OA
BRANCH  22  23
ATOM     23  C   UNL d   1      44.888 -12.086  43.152  0.00  0.00     0.126 C 
ATOM     24  C   UNL d   1      44.279 -12.413  42.701  0.00  0.00     0.029 C 
ENDBRANCH  22  23
ENDBRANCH  20  22
ENDBRANCH  17  20
ENDBRANCH   2  14
TORSDOF 7
ENDMDL
MODEL 2
REMARK VINA RESULT:      10.3      1.110      5.647
REMARK  7 active torsions:
REMARK  status: ('A' for Active; 'I' for Inactive)
REMARK       I    between atoms: N_3  and  C_1 
REMARK    1  A    between atoms: C_10  and  C_1 
REMARK    2  A    between atoms: C_2  and  C_5 
REMARK    3  A    between atoms: O_15  and  C_2 
REMARK    4  A    between atoms: C_11  and  N_3 
REMARK    5  A    between atoms: C_4  and  C_11 
REMARK       I    between atoms: N_6  and  C_4 
REMARK    6  A    between atoms: C_14  and  N_6 
REMARK    7  A    between atoms: C_20  and  O_15 
ROOT
ATOM      1  C   UNL d   1      46.087 -16.039  44.556  0.00  0.00     0.299 C 
ATOM      2  N   UNL d   1      45.976 -16.760  44.936  0.00  0.00    -0.207 NA
ATOM      3  O   UNL d   1      46.331 -16.029  43.768  0.00  0.00    -0.263 OA
ENDROOT
BRANCH   1   4
ATOM      4  C   UNL d   1      45.957 -15.335  44.951  0.00  0.00     0.165 C 
BRANCH   4   5
ATOM      5  N   UNL d   1      45.954 -14.620  44.543  0.00  0.00    -0.201 NA
ATOM      6  C   UNL d   1      45.243 -14.224  44.417  0.00  0.00     0.279 C 
ATOM      7  O   UNL d   1      44.524 -14.595  44.729  0.00  0.00    -0.265 OA
BRANCH   6   8
ATOM      8  C   UNL d   1      45.237 -13.505  44.007  0.00  0.00     0.058 A 
ATOM      9  C   UNL d   1      44.680 -13.374  43.413  0.00  0.00     0.005 A 
ATOM     10  C   UNL d   1      44.676 -12.660  43.008  0.00  0.00     0.000 A 
ATOM     11  C   UNL d   1      45.222 -12.080  43.190  0.00  0.00     0.000 A 
ATOM     12  C   UNL d   1      45.779 -12.212  43.784  0.00  0.00     0.000 A 
ATOM     13  C   UNL d   1      45.791 -12.923  44.195  0.00  0.00     0.005 A 
ENDBRANCH   6   8
ENDBRANCH   4   5
ENDBRANCH   1   4
BRANCH   2  14
ATOM     14  C   UNL d   1      46.108 -17.472  44.533  0.00  0.00     0.085 A 
ATOM     15  C   UNL d   1      46.149 -18.174  44.955  0.00  0.00     0.019 A 
ATOM     16  C   UNL d   1      46.279 -18.878  44.560  0.00  0.00     0.007 A 
ATOM     17  C   UNL d   1      46.369 -18.882  43.730  0.00  0.00     0.064 A 
ATOM     18  C   UNL d   1      46.326 -18.172  43.314  0.00  0.00     0.007 A 
ATOM     19  C   UNL d   1      46.196 -17.464  43.713  0.00  0.00     0.019 A 
BRANCH  17  20
ATOM     20  C   UNL d   1      46.501 -19.594  43.331  0.00  0.00     0.300 C 
ATOM     21  O   UNL d   1      46.488 -20.310  43.741  0.00  0.00    -0.259 OA
BRANCH  20  22
ATOM     22  O   UNL d   1      46.645 -19.584  42.519  0.00  0.00    -0.271 OA
BRANCH  22  23
ATOM     23  C   UNL d   1      46.342 -20.182  42.035  0.00  0.00     0.126 C 
ATOM     24  C   UNL d   1      46.482 -20.160  41.222  0.00  0.00     0.029 C 
ENDBRANCH  22  23
ENDBRANCH  20  22
ENDBRANCH  17  20
ENDBRANCH   2  14
TORSDOF 7
ENDMDL
