MODEL 1
REMARK VINA RESULT:      16.0      0.000      0.000
REMARK  3 active torsions:
REMARK  status: ('A' for Active; 'I' for Inactive)
REMARK    1  A    between atoms: C_10  and  C_4 
REMARK    2  A    between atoms: C_13  and  C_10 
REMARK    3  A    between atoms: C_11  and  C_13 
ROOT
ATOM      1  C   UNL d   1      14.730  13.153  -0.482  0.00  0.00     0.752 A 
ATOM      2  N   UNL d   1      15.055  13.149  -1.239  0.00  0.00    -0.056 N 
ATOM      3  N   UNL d   1      14.064  12.695  -0.327  0.00  0.00    -0.059 NA
ATOM      4  C   UNL d   1      14.052  12.236  -1.679  0.00  0.00     0.037 A 
ATOM      5  C   UNL d   1      14.720  12.692  -1.842  0.00  0.00     0.102 A 
ATOM      6  N   UNL d   1      15.178  13.650  -0.015  0.00  0.00    -0.035 NA
ATOM      7  C   UNL d   1      13.724  12.237  -0.922  0.00  0.00     0.101 A 
ATOM      8  N   UNL d   1      15.708  13.650  -1.233  0.00  0.00    -0.127 NA
ATOM      9  C   UNL d   1      15.789  13.965  -0.472  0.00  0.00     0.239 A 
ATOM     10  C   UNL d   1      15.047  12.692  -2.592  0.00  0.00     0.021 C 
ATOM     11  C   UNL d   1      13.056  11.782  -0.759  0.00  0.00     0.021 C 
ENDROOT
BRANCH   4  12
ATOM     12  C   UNL d   1      13.710  11.780  -2.266  0.00  0.00     0.009 C 
BRANCH  12  13
ATOM     13  C   UNL d   1      13.054  12.059  -2.681  0.00  0.00     0.070 C 
BRANCH  13  14
ATOM     14  C   UNL d   1      13.139  12.313  -3.460  0.00  0.00     0.211 C 
ATOM     15  O   UNL d   1      13.368  11.783  -4.048  0.00  0.00    -0.644 OA
ATOM     16  O   UNL d   1      12.994  13.102  -3.654  0.00  0.00    -0.644 OA
ENDBRANCH  13  14
ENDBRANCH  12  13
ENDBRANCH   4  12
TORSDOF 3
ENDMDL
MODEL 2
REMARK VINA RESULT:      16.3      1.216      1.884
REMARK  3 active torsions:
REMARK  status: ('A' for Active; 'I' for Inactive)
REMARK    1  A    between atoms: C_10  and  C_4 
REMARK    2  A    between atoms: C_13  and  C_10 
REMARK    3  A    between atoms: C_11  and  C_13 
ROOT
ATOM      1  C   UNL d   1      13.917  12.116  -1.593  0.00  0.00     0.752 A 
ATOM      2  N   UNL d   1      14.323  12.805  -1.794  0.00  0.00    -0.056 N 
ATOM      3  N   UNL d   1      13.401  11.779  -2.138  0.00  0.00    -0.059 NA
ATOM      4  C   UNL d   1      13.696  12.815  -3.075  0.00  0.00     0.037 A 
ATOM      5  C   UNL d   1      14.216  13.159  -2.535  0.00  0.00     0.102 A 
ATOM      6  N   UNL d   1      14.135  11.903  -0.836  0.00  0.00    -0.035 NA
ATOM      7  C   UNL d   1      13.289  12.125  -2.878  0.00  0.00     0.101 A 
ATOM      8  N   UNL d   1      14.793  13.014  -1.152  0.00  0.00    -0.127 NA
ATOM      9  C   UNL d   1      14.681  12.455  -0.552  0.00  0.00     0.239 A 
ATOM     10  C   UNL d   1      14.621  13.842  -2.729  0.00  0.00     0.021 C 
ATOM     11  C   UNL d   1      12.769  11.781  -3.418  0.00  0.00     0.021 C 
ENDROOT
BRANCH   4  12
ATOM     12  C   UNL d   1      13.582  13.154  -3.811  0.00  0.00     0.009 C 
BRANCH  12  13
ATOM     13  C   UNL d   1      13.312  12.697  -4.442  0.00  0.00     0.070 C 
BRANCH  13  14
ATOM     14  C   UNL d   1      13.429  12.956  -5.216  0.00  0.00     0.211 C 
ATOM     15  O   UNL d   1      13.175  13.706  -5.447  0.00  0.00    -0.644 OA
ATOM     16  O   UNL d   1      13.801  12.464  -5.763  0.00  0.00    -0.644 OA
ENDBRANCH  13  14
ENDBRANCH  12  13
ENDBRANCH   4  12
TORSDOF 3
ENDMDL
MODEL 3
REMARK VINA RESULT:      17.2      2.510      3.630
REMARK  3 active torsions:
REMARK  status: ('A' for Active; 'I' for Inactive)
REMARK    1  A    between atoms: C_10  and  C_4 
REMARK    2  A    between atoms: C_13  and  C_10 
REMARK    3  A    between atoms: C_11  and  C_13 
ROOT
ATOM      1  C   UNL d   1      15.005  12.700  -0.086  0.00  0.00     0.752 A 
ATOM      2  N   UNL d   1      14.294  13.116  -0.062  0.00  0.00    -0.056 N 
ATOM      3  N   UNL d   1      15.715  13.116  -0.087  0.00  0.00    -0.059 NA
ATOM      4  C   UNL d   1      15.004  14.353  -0.041  0.00  0.00     0.037 A 
ATOM      5  C   UNL d   1      14.288  13.944  -0.039  0.00  0.00     0.102 A 
ATOM      6  N   UNL d   1      14.833  11.903  -0.105  0.00  0.00    -0.035 NA
ATOM      7  C   UNL d   1      15.718  13.940  -0.065  0.00  0.00     0.101 A 
ATOM      8  N   UNL d   1      13.683  12.566  -0.066  0.00  0.00    -0.127 NA
ATOM      9  C   UNL d   1      14.013  11.807  -0.092  0.00  0.00     0.239 A 
ATOM     10  C   UNL d   1      13.580  14.351  -0.015  0.00  0.00     0.021 C 
ATOM     11  C   UNL d   1      16.434  14.349  -0.067  0.00  0.00     0.021 C 
ENDROOT
BRANCH   4  12
ATOM     12  C   UNL d   1      15.012  15.171  -0.019  0.00  0.00     0.009 C 
BRANCH  12  13
ATOM     13  C   UNL d   1      15.367  15.600  -0.627  0.00  0.00     0.070 C 
BRANCH  13  14
ATOM     14  C   UNL d   1      15.236  16.411  -0.689  0.00  0.00     0.211 C 
ATOM     15  O   UNL d   1      14.548  16.695  -1.045  0.00  0.00    -0.644 OA
ATOM     16  O   UNL d   1      15.793  16.942  -0.394  0.00  0.00    -0.644 OA
ENDBRANCH  13  14
ENDBRANCH  12  13
ENDBRANCH   4  12
TORSDOF 3
ENDMDL
