MODEL 1
REMARK VINA RESULT:     -10.1      0.000      0.000
REMARK  1 active torsions:
REMARK  status: ('A' for Active; 'I' for Inactive)
REMARK    1  A    between atoms: C_2  and  N_1 
ROOT
ATOM      1  C   UNL d   1     -49.003  12.794  22.917  0.00  0.00     0.169 A 
ATOM      2  C   UNL d   1     -48.288  12.477  23.109  0.00  0.00     0.060 A 
ATOM      3  C   UNL d   1     -48.255  11.732  23.512  0.00  0.00     0.115 A 
ATOM      4  S   UNL d   1     -47.471  11.544  23.637  0.00  0.00    -0.068 SA
ATOM      5  C   UNL d   1     -47.508  12.713  23.005  0.00  0.00     0.011 A 
ATOM      6  N   UNL d   1     -49.696  12.424  23.095  0.00  0.00    -0.208 NA
ATOM      7  N   UNL d   1     -48.939  11.349  23.698  0.00  0.00    -0.220 NA
ATOM      8  C   UNL d   1     -47.008  12.135  23.332  0.00  0.00     0.031 A 
ATOM      9  C   UNL d   1     -49.696  11.669  23.503  0.00  0.00     0.165 A 
ATOM     10  C   UNL d   1     -47.177  13.387  22.651  0.00  0.00     0.001 A 
ATOM     11  C   UNL d   1     -46.194  12.230  23.305  0.00  0.00     0.006 A 
ATOM     12  C   UNL d   1     -50.397  11.271  23.696  0.00  0.00     0.042 C 
ATOM     13  C   UNL d   1     -46.356  13.465  22.634  0.00  0.00     0.000 A 
ATOM     14  C   UNL d   1     -45.846  12.878  22.966  0.00  0.00     0.001 A 
ENDROOT
BRANCH   1  15
ATOM     15  N   UNL d   1     -49.046  13.521  22.523  0.00  0.00    -0.193 N 
ATOM     16  N   UNL d   1     -48.810  13.646  21.751  0.00  0.00    -0.058 NA
ATOM     17  N   UNL d   1     -48.941  14.451  21.560  0.00  0.00    -0.129 NA
ATOM     18  C   UNL d   1     -49.262  14.819  22.228  0.00  0.00     0.122 A 
ATOM     19  C   UNL d   1     -49.330  14.266  22.818  0.00  0.00     0.105 A 
ATOM     20  C   UNL d   1     -49.490  15.578  22.350  0.00  0.00     0.022 A 
ATOM     21  C   UNL d   1     -49.621  14.443  23.535  0.00  0.00     0.021 A 
ATOM     22  C   UNL d   1     -49.863  15.218  23.684  0.00  0.00     0.002 A 
ATOM     23  C   UNL d   1     -49.793  15.788  23.078  0.00  0.00     0.002 A 
ENDBRANCH   1  15
TORSDOF 1
ENDMDL
MODEL 2
REMARK VINA RESULT:      -9.8      1.340      2.459
REMARK  1 active torsions:
REMARK  status: ('A' for Active; 'I' for Inactive)
REMARK    1  A    between atoms: C_2  and  N_1 
ROOT
ATOM      1  C   UNL d   1     -47.866  12.320  22.783  0.00  0.00     0.169 A 
ATOM      2  C   UNL d   1     -47.416  12.981  22.875  0.00  0.00     0.060 A 
ATOM      3  C   UNL d   1     -46.659  12.923  23.254  0.00  0.00     0.115 A 
ATOM      4  S   UNL d   1     -46.327  13.667  23.274  0.00  0.00    -0.068 SA
ATOM      5  C   UNL d   1     -47.510  13.773  22.679  0.00  0.00     0.011 A 
ATOM      6  N   UNL d   1     -47.621  11.597  23.039  0.00  0.00    -0.208 NA
ATOM      7  N   UNL d   1     -46.400  12.208  23.516  0.00  0.00    -0.220 NA
ATOM      8  C   UNL d   1     -46.836  14.193  22.926  0.00  0.00     0.031 A 
ATOM      9  C   UNL d   1     -46.860  11.505  23.426  0.00  0.00     0.165 A 
ATOM     10  C   UNL d   1     -48.129  14.179  22.301  0.00  0.00     0.001 A 
ATOM     11  C   UNL d   1     -46.784  15.001  22.798  0.00  0.00     0.006 A 
ATOM     12  C   UNL d   1     -46.588  10.771  23.698  0.00  0.00     0.042 C 
ATOM     13  C   UNL d   1     -48.056  14.992  22.182  0.00  0.00     0.000 A 
ATOM     14  C   UNL d   1     -47.372  15.420  22.433  0.00  0.00     0.001 A 
ENDROOT
BRANCH   1  15
ATOM     15  N   UNL d   1     -48.606  12.367  22.414  0.00  0.00    -0.193 N 
ATOM     16  N   UNL d   1     -48.723  12.543  21.626  0.00  0.00    -0.058 NA
ATOM     17  N   UNL d   1     -49.546  12.536  21.470  0.00  0.00    -0.129 NA
ATOM     18  C   UNL d   1     -49.934  12.352  22.177  0.00  0.00     0.122 A 
ATOM     19  C   UNL d   1     -49.376  12.247  22.757  0.00  0.00     0.105 A 
ATOM     20  C   UNL d   1     -50.714  12.273  22.342  0.00  0.00     0.022 A 
ATOM     21  C   UNL d   1     -49.568  12.064  23.505  0.00  0.00     0.021 A 
ATOM     22  C   UNL d   1     -50.366  11.977  23.698  0.00  0.00     0.002 A 
ATOM     23  C   UNL d   1     -50.942  12.085  23.103  0.00  0.00     0.002 A 
ENDBRANCH   1  15
TORSDOF 1
ENDMDL
MODEL 3
REMARK VINA RESULT:      -9.8      1.048      2.299
REMARK  1 active torsions:
REMARK  status: ('A' for Active; 'I' for Inactive)
REMARK    1  A    between atoms: C_2  and  N_1 
ROOT
ATOM      1  C   UNL d   1     -48.200  13.924  22.653  0.00  0.00     0.169 A 
ATOM      2  C   UNL d   1     -48.046  13.199  22.970  0.00  0.00     0.060 A 
ATOM      3  C   UNL d   1     -47.253  13.001  23.196  0.00  0.00     0.115 A 
ATOM      4  S   UNL d   1     -47.257  12.243  23.496  0.00  0.00    -0.068 SA
ATOM      5  C   UNL d   1     -48.503  12.540  23.146  0.00  0.00     0.011 A 
ATOM      6  N   UNL d   1     -47.621  14.473  22.543  0.00  0.00    -0.208 NA
ATOM      7  N   UNL d   1     -46.664  13.539  23.093  0.00  0.00    -0.220 NA
ATOM      8  C   UNL d   1     -48.012  11.953  23.470  0.00  0.00     0.031 A 
ATOM      9  C   UNL d   1     -46.810  14.303  22.762  0.00  0.00     0.165 A 
ATOM     10  C   UNL d   1     -49.315  12.389  23.054  0.00  0.00     0.001 A 
ATOM     11  C   UNL d   1     -48.328  11.231  23.698  0.00  0.00     0.006 A 
ATOM     12  C   UNL d   1     -46.199  14.854  22.658  0.00  0.00     0.042 C 
ATOM     13  C   UNL d   1     -49.613  11.657  23.289  0.00  0.00     0.000 A 
ATOM     14  C   UNL d   1     -49.115  11.059  23.619  0.00  0.00     0.001 A 
ENDROOT
BRANCH   1  15
ATOM     15  N   UNL d   1     -48.971  14.126  22.429  0.00  0.00    -0.193 N 
ATOM     16  N   UNL d   1     -49.376  13.792  21.804  0.00  0.00    -0.058 NA
ATOM     17  N   UNL d   1     -50.135  14.145  21.759  0.00  0.00    -0.129 NA
ATOM     18  C   UNL d   1     -50.190  14.702  22.368  0.00  0.00     0.122 A 
ATOM     19  C   UNL d   1     -49.491  14.700  22.781  0.00  0.00     0.105 A 
ATOM     20  C   UNL d   1     -50.787  15.193  22.578  0.00  0.00     0.022 A 
ATOM     21  C   UNL d   1     -49.363  15.176  23.404  0.00  0.00     0.021 A 
ATOM     22  C   UNL d   1     -49.965  15.690  23.639  0.00  0.00     0.002 A 
ATOM     23  C   UNL d   1     -50.685  15.693  23.215  0.00  0.00     0.002 A 
ENDBRANCH   1  15
TORSDOF 1
ENDMDL
MODEL 4
REMARK VINA RESULT:      -9.2      1.387      2.611
REMARK  1 active torsions:
REMARK  status: ('A' for Active; 'I' for Inactive)
REMARK    1  A    between atoms: C_2  and  N_1 
ROOT
ATOM      1  C   UNL d   1     -48.201  13.608  22.900  0.00  0.00     0.169 A 
ATOM      2  C   UNL d   1     -47.534  13.179  23.035  0.00  0.00     0.060 A 
ATOM      3  C   UNL d   1     -46.775  13.545  22.941  0.00  0.00     0.115 A 
ATOM      4  S   UNL d   1     -46.202  12.990  23.110  0.00  0.00    -0.068 SA
ATOM      5  C   UNL d   1     -47.384  12.404  23.261  0.00  0.00     0.011 A 
ATOM      6  N   UNL d   1     -48.174  14.382  22.677  0.00  0.00    -0.208 NA
ATOM      7  N   UNL d   1     -46.730  14.317  22.718  0.00  0.00    -0.220 NA
ATOM      8  C   UNL d   1     -46.562  12.291  23.307  0.00  0.00     0.031 A 
ATOM      9  C   UNL d   1     -47.422  14.781  22.574  0.00  0.00     0.165 A 
ATOM     10  C   UNL d   1     -47.893  11.771  23.436  0.00  0.00     0.001 A 
ATOM     11  C   UNL d   1     -46.256  11.562  23.523  0.00  0.00     0.006 A 
ATOM     12  C   UNL d   1     -47.370  15.575  22.345  0.00  0.00     0.042 C 
ATOM     13  C   UNL d   1     -47.566  11.045  23.651  0.00  0.00     0.000 A 
ATOM     14  C   UNL d   1     -46.731  10.929  23.698  0.00  0.00     0.001 A 
ENDROOT
BRANCH   1  15
ATOM     15  N   UNL d   1     -48.947  13.260  22.989  0.00  0.00    -0.193 N 
ATOM     16  N   UNL d   1     -49.256  12.997  23.698  0.00  0.00    -0.058 NA
ATOM     17  N   UNL d   1     -50.019  12.682  23.556  0.00  0.00    -0.129 NA
ATOM     18  C   UNL d   1     -50.175  12.755  22.747  0.00  0.00     0.122 A 
ATOM     19  C   UNL d   1     -49.533  13.104  22.393  0.00  0.00     0.105 A 
ATOM     20  C   UNL d   1     -50.816  12.545  22.315  0.00  0.00     0.022 A 
ATOM     21  C   UNL d   1     -49.506  13.253  21.613  0.00  0.00     0.021 A 
ATOM     22  C   UNL d   1     -50.156  13.045  21.148  0.00  0.00     0.002 A 
ATOM     23  C   UNL d   1     -50.817  12.686  21.511  0.00  0.00     0.002 A 
ENDBRANCH   1  15
TORSDOF 1
ENDMDL
MODEL 5
REMARK VINA RESULT:      -9.1      1.073      2.993
REMARK  1 active torsions:
REMARK  status: ('A' for Active; 'I' for Inactive)
REMARK    1  A    between atoms: C_2  and  N_1 
ROOT
ATOM      1  C   UNL d   1     -49.126  12.786  22.918  0.00  0.00     0.169 A 
ATOM      2  C   UNL d   1     -49.603  13.402  23.124  0.00  0.00     0.060 A 
ATOM      3  C   UNL d   1     -50.334  13.248  23.527  0.00  0.00     0.115 A 
ATOM      4  S   UNL d   1     -50.701  13.963  23.666  0.00  0.00    -0.068 SA
ATOM      5  C   UNL d   1     -49.560  14.217  23.037  0.00  0.00     0.011 A 
ATOM      6  N   UNL d   1     -49.320  12.021  23.083  0.00  0.00    -0.208 NA
ATOM      7  N   UNL d   1     -50.542  12.490  23.698  0.00  0.00    -0.220 NA
ATOM      8  C   UNL d   1     -50.239  14.559  23.372  0.00  0.00     0.031 A 
ATOM      9  C   UNL d   1     -50.052  11.834  23.488  0.00  0.00     0.165 A 
ATOM     10  C   UNL d   1     -48.984  14.706  22.691  0.00  0.00     0.001 A 
ATOM     11  C   UNL d   1     -50.339  15.373  23.361  0.00  0.00     0.006 A 
ATOM     12  C   UNL d   1     -50.272  11.055  23.667  0.00  0.00     0.042 C 
ATOM     13  C   UNL d   1     -49.104  15.522  22.690  0.00  0.00     0.000 A 
ATOM     14  C   UNL d   1     -49.793  15.871  23.031  0.00  0.00     0.001 A 
ENDROOT
BRANCH   1  15
ATOM     15  N   UNL d   1     -48.411  12.925  22.525  0.00  0.00    -0.193 N 
ATOM     16  N   UNL d   1     -48.347  13.206  21.762  0.00  0.00    -0.058 NA
ATOM     17  N   UNL d   1     -47.535  13.271  21.568  0.00  0.00    -0.129 NA
ATOM     18  C   UNL d   1     -47.099  13.025  22.227  0.00  0.00     0.122 A 
ATOM     19  C   UNL d   1     -47.618  12.813  22.814  0.00  0.00     0.105 A 
ATOM     20  C   UNL d   1     -46.308  12.976  22.344  0.00  0.00     0.022 A 
ATOM     21  C   UNL d   1     -47.375  12.551  23.523  0.00  0.00     0.021 A 
ATOM     22  C   UNL d   1     -46.564  12.492  23.666  0.00  0.00     0.002 A 
ATOM     23  C   UNL d   1     -46.029  12.709  23.064  0.00  0.00     0.002 A 
ENDBRANCH   1  15
TORSDOF 1
ENDMDL
MODEL 6
REMARK VINA RESULT:      -8.7      1.310      3.145
REMARK  1 active torsions:
REMARK  status: ('A' for Active; 'I' for Inactive)
REMARK    1  A    between atoms: C_2  and  N_1 
ROOT
ATOM      1  C   UNL d   1     -48.813  13.906  22.660  0.00  0.00     0.169 A 
ATOM      2  C   UNL d   1     -49.373  13.440  23.002  0.00  0.00     0.060 A 
ATOM      3  C   UNL d   1     -50.062  13.796  23.345  0.00  0.00     0.115 A 
ATOM      4  S   UNL d   1     -50.531  13.202  23.649  0.00  0.00    -0.068 SA
ATOM      5  C   UNL d   1     -49.457  12.631  23.115  0.00  0.00     0.011 A 
ATOM      6  N   UNL d   1     -48.883  14.709  22.632  0.00  0.00    -0.208 NA
ATOM      7  N   UNL d   1     -50.148  14.596  23.326  0.00  0.00    -0.220 NA
ATOM      8  C   UNL d   1     -50.173  12.488  23.513  0.00  0.00     0.031 A 
ATOM      9  C   UNL d   1     -49.568  15.099  22.971  0.00  0.00     0.165 A 
ATOM     10  C   UNL d   1     -48.972  11.990  22.905  0.00  0.00     0.001 A 
ATOM     11  C   UNL d   1     -50.397  11.721  23.698  0.00  0.00     0.006 A 
ATOM     12  C   UNL d   1     -49.662  15.922  22.954  0.00  0.00     0.042 C 
ATOM     13  C   UNL d   1     -49.215  11.226  23.099  0.00  0.00     0.000 A 
ATOM     14  C   UNL d   1     -49.942  11.080  23.505  0.00  0.00     0.001 A 
ENDROOT
BRANCH   1  15
ATOM     15  N   UNL d   1     -48.137  13.568  22.322  0.00  0.00    -0.193 N 
ATOM     16  N   UNL d   1     -48.138  13.083  21.666  0.00  0.00    -0.058 NA
ATOM     17  N   UNL d   1     -47.349  12.856  21.499  0.00  0.00    -0.129 NA
ATOM     18  C   UNL d   1     -46.861  13.211  22.066  0.00  0.00     0.122 A 
ATOM     19  C   UNL d   1     -47.326  13.645  22.570  0.00  0.00     0.105 A 
ATOM     20  C   UNL d   1     -46.067  13.181  22.166  0.00  0.00     0.022 A 
ATOM     21  C   UNL d   1     -47.026  14.056  23.179  0.00  0.00     0.021 A 
ATOM     22  C   UNL d   1     -46.209  14.040  23.302  0.00  0.00     0.002 A 
ATOM     23  C   UNL d   1     -45.729  13.594  22.784  0.00  0.00     0.002 A 
ENDBRANCH   1  15
TORSDOF 1
ENDMDL
MODEL 7
REMARK VINA RESULT:      -8.1      1.120      2.573
REMARK  1 active torsions:
REMARK  status: ('A' for Active; 'I' for Inactive)
REMARK    1  A    between atoms: C_2  and  N_1 
ROOT
ATOM      1  C   UNL d   1     -48.652  13.765  22.473  0.00  0.00     0.169 A 
ATOM      2  C   UNL d   1     -47.866  13.775  22.646  0.00  0.00     0.060 A 
ATOM      3  C   UNL d   1     -47.458  14.517  22.692  0.00  0.00     0.115 A 
ATOM      4  S   UNL d   1     -46.677  14.366  22.874  0.00  0.00    -0.068 SA
ATOM      5  C   UNL d   1     -47.304  13.197  22.805  0.00  0.00     0.011 A 
ATOM      6  N   UNL d   1     -49.070  14.441  22.339  0.00  0.00    -0.208 NA
ATOM      7  N   UNL d   1     -47.860  15.202  22.562  0.00  0.00    -0.220 NA
ATOM      8  C   UNL d   1     -46.573  13.566  22.945  0.00  0.00     0.031 A 
ATOM      9  C   UNL d   1     -48.685  15.207  22.378  0.00  0.00     0.165 A 
ATOM     10  C   UNL d   1     -47.359  12.369  22.843  0.00  0.00     0.001 A 
ATOM     11  C   UNL d   1     -45.910  13.115  23.120  0.00  0.00     0.006 A 
ATOM     12  C   UNL d   1     -49.094  15.915  22.245  0.00  0.00     0.042 C 
ATOM     13  C   UNL d   1     -46.681  11.934  23.020  0.00  0.00     0.000 A 
ATOM     14  C   UNL d   1     -45.936  12.307  23.162  0.00  0.00     0.001 A 
ENDROOT
BRANCH   1  15
ATOM     15  N   UNL d   1     -49.060  13.046  22.425  0.00  0.00    -0.193 N 
ATOM     16  N   UNL d   1     -48.844  12.419  21.950  0.00  0.00    -0.058 NA
ATOM     17  N   UNL d   1     -49.394  11.797  22.060  0.00  0.00    -0.129 NA
ATOM     18  C   UNL d   1     -49.955  12.053  22.612  0.00  0.00     0.122 A 
ATOM     19  C   UNL d   1     -49.763  12.808  22.841  0.00  0.00     0.105 A 
ATOM     20  C   UNL d   1     -50.597  11.684  22.917  0.00  0.00     0.022 A 
ATOM     21  C   UNL d   1     -50.194  13.214  23.370  0.00  0.00     0.021 A 
ATOM     22  C   UNL d   1     -50.860  12.854  23.698  0.00  0.00     0.002 A 
ATOM     23  C   UNL d   1     -51.059  12.078  23.463  0.00  0.00     0.002 A 
ENDBRANCH   1  15
TORSDOF 1
ENDMDL
MODEL 8
REMARK VINA RESULT:      -7.6      9.526     10.745
REMARK  1 active torsions:
REMARK  status: ('A' for Active; 'I' for Inactive)
REMARK    1  A    between atoms: C_2  and  N_1 
ROOT
ATOM      1  C   UNL d   1     -40.104  14.639  17.820  0.00  0.00     0.169 A 
ATOM      2  C   UNL d   1     -40.045  15.002  18.536  0.00  0.00     0.060 A 
ATOM      3  C   UNL d   1     -40.545  15.664  18.711  0.00  0.00     0.115 A 
ATOM      4  S   UNL d   1     -40.371  15.922  19.465  0.00  0.00    -0.068 SA
ATOM      5  C   UNL d   1     -39.580  14.887  19.203  0.00  0.00     0.011 A 
ATOM      6  N   UNL d   1     -40.627  14.883  17.258  0.00  0.00    -0.208 NA
ATOM      7  N   UNL d   1     -41.074  15.921  18.161  0.00  0.00    -0.220 NA
ATOM      8  C   UNL d   1     -39.784  15.456  19.773  0.00  0.00     0.031 A 
ATOM      9  C   UNL d   1     -41.147  15.549  17.406  0.00  0.00     0.165 A 
ATOM     10  C   UNL d   1     -38.987  14.331  19.374  0.00  0.00     0.001 A 
ATOM     11  C   UNL d   1     -39.403  15.467  20.499  0.00  0.00     0.006 A 
ATOM     12  C   UNL d   1     -41.693  15.818  16.843  0.00  0.00     0.042 C 
ATOM     13  C   UNL d   1     -38.615  14.359  20.110  0.00  0.00     0.000 A 
ATOM     14  C   UNL d   1     -38.822  14.936  20.691  0.00  0.00     0.001 A 
ENDROOT
BRANCH   1  15
ATOM     15  N   UNL d   1     -39.619  13.992  17.638  0.00  0.00    -0.193 N 
ATOM     16  N   UNL d   1     -39.603  13.292  18.057  0.00  0.00    -0.058 NA
ATOM     17  N   UNL d   1     -39.044  12.780  17.701  0.00  0.00    -0.129 NA
ATOM     18  C   UNL d   1     -38.716  13.178  17.054  0.00  0.00     0.122 A 
ATOM     19  C   UNL d   1     -39.056  13.914  17.005  0.00  0.00     0.105 A 
ATOM     20  C   UNL d   1     -38.160  12.950  16.524  0.00  0.00     0.022 A 
ATOM     21  C   UNL d   1     -38.862  14.437  16.441  0.00  0.00     0.021 A 
ATOM     22  C   UNL d   1     -38.291  14.223  15.883  0.00  0.00     0.002 A 
ATOM     23  C   UNL d   1     -37.940  13.467  15.932  0.00  0.00     0.002 A 
ENDBRANCH   1  15
TORSDOF 1
ENDMDL
MODEL 9
REMARK VINA RESULT:      -7.4      8.943     10.143
REMARK  1 active torsions:
REMARK  status: ('A' for Active; 'I' for Inactive)
REMARK    1  A    between atoms: C_2  and  N_1 
ROOT
ATOM      1  C   UNL d   1     -39.532  13.960  18.507  0.00  0.00     0.169 A 
ATOM      2  C   UNL d   1     -39.377  14.151  19.274  0.00  0.00     0.060 A 
ATOM      3  C   UNL d   1     -38.722  13.787  19.671  0.00  0.00     0.115 A 
ATOM      4  S   UNL d   1     -38.694  14.079  20.433  0.00  0.00    -0.068 SA
ATOM      5  C   UNL d   1     -39.721  14.657  19.821  0.00  0.00     0.011 A 
ATOM      6  N   UNL d   1     -39.083  13.428  18.100  0.00  0.00    -0.208 NA
ATOM      7  N   UNL d   1     -38.264  13.254  19.279  0.00  0.00    -0.220 NA
ATOM      8  C   UNL d   1     -39.297  14.609  20.535  0.00  0.00     0.031 A 
ATOM      9  C   UNL d   1     -38.415  13.043  18.475  0.00  0.00     0.165 A 
ATOM     10  C   UNL d   1     -40.377  15.165  19.769  0.00  0.00     0.001 A 
ATOM     11  C   UNL d   1     -39.525  15.060  21.181  0.00  0.00     0.006 A 
ATOM     12  C   UNL d   1     -37.940  12.494  18.075  0.00  0.00     0.042 C 
ATOM     13  C   UNL d   1     -40.589  15.610  20.430  0.00  0.00     0.000 A 
ATOM     14  C   UNL d   1     -40.159  15.563  21.155  0.00  0.00     0.001 A 
ENDROOT
BRANCH   1  15
ATOM     15  N   UNL d   1     -40.168  14.310  18.109  0.00  0.00    -0.193 N 
ATOM     16  N   UNL d   1     -40.955  14.166  18.274  0.00  0.00    -0.058 NA
ATOM     17  N   UNL d   1     -41.425  14.624  17.753  0.00  0.00    -0.129 NA
ATOM     18  C   UNL d   1     -40.913  15.053  17.265  0.00  0.00     0.122 A 
ATOM     19  C   UNL d   1     -40.149  14.871  17.471  0.00  0.00     0.105 A 
ATOM     20  C   UNL d   1     -41.064  15.573  16.674  0.00  0.00     0.022 A 
ATOM     21  C   UNL d   1     -39.521  15.192  17.105  0.00  0.00     0.021 A 
ATOM     22  C   UNL d   1     -39.653  15.731  16.493  0.00  0.00     0.002 A 
ATOM     23  C   UNL d   1     -40.438  15.919  16.280  0.00  0.00     0.002 A 
ENDBRANCH   1  15
TORSDOF 1
ENDMDL
