MODEL 1
REMARK VINA RESULT:      -3.3      0.000      0.000
REMARK  5 active torsions:
REMARK  status: ('A' for Active; 'I' for Inactive)
REMARK    1  A    between atoms: C_6  and  N_1 
REMARK    2  A    between atoms: C_8  and  C_4 
REMARK    3  A    between atoms: C_13  and  C_8 
REMARK    4  A    between atoms: O_20  and  C_11 
REMARK    5  A    between atoms: O_21  and  C_16 
ROOT
ATOM      1  N   UNL d   1     -41.489-122.085 -52.193  0.00  0.00    -0.231 N 
ATOM      2  C   UNL d   1     -41.291-121.519 -51.622  0.00  0.00     0.204 A 
ATOM      3  C   UNL d   1     -41.450-122.828 -51.837  0.00  0.00     0.274 A 
ATOM      4  C   UNL d   1     -41.227-122.724 -51.046  0.00  0.00     0.089 A 
ATOM      5  S   UNL d   1     -41.131-121.916 -50.921  0.00  0.00    -0.043 SA
ATOM      6  N   UNL d   1     -41.262-120.703 -51.745  0.00  0.00    -0.121 N 
ATOM      7  O   UNL d   1     -41.606-123.554 -52.207  0.00  0.00    -0.266 OA
ENDROOT
BRANCH   4   8
ATOM      8  C   UNL d   1     -41.124-123.319 -50.494  0.00  0.00     0.011 C 
BRANCH   8   9
ATOM      9  C   UNL d   1     -41.528-123.294 -49.777  0.00  0.00     0.003 A 
ATOM     10  C   UNL d   1     -42.327-123.491 -49.739  0.00  0.00     0.026 A 
ATOM     11  C   UNL d   1     -42.729-123.465 -49.026  0.00  0.00     0.116 A 
ATOM     12  C   UNL d   1     -42.333-123.239 -48.330  0.00  0.00     0.116 A 
ATOM     13  C   UNL d   1     -41.528-123.041 -48.372  0.00  0.00     0.026 A 
ATOM     14  C   UNL d   1     -41.126-123.067 -49.085  0.00  0.00     0.002 A 
BRANCH  11  15
ATOM     15  O   UNL d   1     -43.530-123.665 -48.997  0.00  0.00    -0.326 OA
ATOM     16  C   UNL d   1     -43.951-123.788 -49.703  0.00  0.00     0.181 C 
ENDBRANCH  11  15
BRANCH  12  17
ATOM     17  O   UNL d   1     -42.728-123.211 -47.615  0.00  0.00    -0.326 OA
ATOM     18  C   UNL d   1     -42.358-122.896 -46.946  0.00  0.00     0.181 C 
ENDBRANCH  12  17
ENDBRANCH   8   9
ENDBRANCH   4   8
BRANCH   1  19
ATOM     19  C   UNL d   1     -41.691-121.940 -52.979  0.00  0.00     0.183 A 
ATOM     20  N   UNL d   1     -42.246-121.403 -53.250  0.00  0.00    -0.220 NA
ATOM     21  C   UNL d   1     -42.267-121.442 -54.072  0.00  0.00     0.108 A 
ATOM     22  C   UNL d   1     -41.716-122.013 -54.311  0.00  0.00     0.059 A 
ATOM     23  S   UNL d   1     -41.363-122.317 -53.636  0.00  0.00    -0.048 SA
ENDBRANCH   1  19
TORSDOF 5
ENDMDL
MODEL 2
REMARK VINA RESULT:      -2.7      1.792      4.583
REMARK  5 active torsions:
REMARK  status: ('A' for Active; 'I' for Inactive)
REMARK    1  A    between atoms: C_6  and  N_1 
REMARK    2  A    between atoms: C_8  and  C_4 
REMARK    3  A    between atoms: C_13  and  C_8 
REMARK    4  A    between atoms: O_20  and  C_11 
REMARK    5  A    between atoms: O_21  and  C_16 
ROOT
ATOM      1  N   UNL d   1     -42.433-122.896 -49.802  0.00  0.00    -0.231 N 
ATOM      2  C   UNL d   1     -42.838-122.372 -50.299  0.00  0.00     0.204 A 
ATOM      3  C   UNL d   1     -41.741-123.127 -50.188  0.00  0.00     0.274 A 
ATOM      4  C   UNL d   1     -41.716-122.746 -50.924  0.00  0.00     0.089 A 
ATOM      5  S   UNL d   1     -42.395-122.283 -50.985  0.00  0.00    -0.043 SA
ATOM      6  N   UNL d   1     -43.559-122.008 -50.126  0.00  0.00    -0.121 N 
ATOM      7  O   UNL d   1     -41.169-123.649 -49.892  0.00  0.00    -0.266 OA
ENDROOT
BRANCH   4   8
ATOM      8  C   UNL d   1     -41.124-122.820 -51.483  0.00  0.00     0.011 C 
BRANCH   8   9
ATOM      9  C   UNL d   1     -41.261-122.593 -52.263  0.00  0.00     0.003 A 
ATOM     10  C   UNL d   1     -41.457-123.153 -52.834  0.00  0.00     0.026 A 
ATOM     11  C   UNL d   1     -41.593-122.927 -53.610  0.00  0.00     0.116 A 
ATOM     12  C   UNL d   1     -41.534-122.127 -53.829  0.00  0.00     0.116 A 
ATOM     13  C   UNL d   1     -41.337-121.565 -53.251  0.00  0.00     0.026 A 
ATOM     14  C   UNL d   1     -41.201-121.791 -52.476  0.00  0.00     0.002 A 
BRANCH  11  15
ATOM     15  O   UNL d   1     -41.790-123.495 -54.176  0.00  0.00    -0.326 OA
ATOM     16  C   UNL d   1     -41.196-123.817 -54.661  0.00  0.00     0.181 C 
ENDBRANCH  11  15
BRANCH  12  17
ATOM     17  O   UNL d   1     -41.669-121.894 -54.601  0.00  0.00    -0.326 OA
ATOM     18  C   UNL d   1     -42.354-121.475 -54.797  0.00  0.00     0.181 C 
ENDBRANCH  12  17
ENDBRANCH   8   9
ENDBRANCH   4   8
BRANCH   1  19
ATOM     19  C   UNL d   1     -42.671-123.148 -49.054  0.00  0.00     0.183 A 
ATOM     20  N   UNL d   1     -43.224-123.727 -48.887  0.00  0.00    -0.220 NA
ATOM     21  C   UNL d   1     -43.289-123.798 -48.070  0.00  0.00     0.108 A 
ATOM     22  C   UNL d   1     -42.767-123.253 -47.728  0.00  0.00     0.059 A 
ATOM     23  S   UNL d   1     -42.388-122.855 -48.337  0.00  0.00    -0.048 SA
ENDBRANCH   1  19
TORSDOF 5
ENDMDL
MODEL 3
REMARK VINA RESULT:      -0.3      1.635      4.761
REMARK  5 active torsions:
REMARK  status: ('A' for Active; 'I' for Inactive)
REMARK    1  A    between atoms: C_6  and  N_1 
REMARK    2  A    between atoms: C_8  and  C_4 
REMARK    3  A    between atoms: C_13  and  C_8 
REMARK    4  A    between atoms: O_20  and  C_11 
REMARK    5  A    between atoms: O_21  and  C_16 
ROOT
ATOM      1  N   UNL d   1     -41.673-122.425 -50.998  0.00  0.00    -0.231 N 
ATOM      2  C   UNL d   1     -41.373-121.735 -51.344  0.00  0.00     0.204 A 
ATOM      3  C   UNL d   1     -41.619-123.031 -51.555  0.00  0.00     0.274 A 
ATOM      4  C   UNL d   1     -41.285-122.717 -52.246  0.00  0.00     0.089 A 
ATOM      5  S   UNL d   1     -41.137-121.919 -52.109  0.00  0.00    -0.043 SA
ATOM      6  N   UNL d   1     -41.325-120.996 -50.976  0.00  0.00    -0.121 N 
ATOM      7  O   UNL d   1     -41.856-123.817 -51.443  0.00  0.00    -0.266 OA
ENDROOT
BRANCH   4   8
ATOM      8  C   UNL d   1     -41.133-123.130 -52.936  0.00  0.00     0.011 C 
BRANCH   8   9
ATOM      9  C   UNL d   1     -41.523-122.929 -53.633  0.00  0.00     0.003 A 
ATOM     10  C   UNL d   1     -41.315-122.247 -54.047  0.00  0.00     0.026 A 
ATOM     11  C   UNL d   1     -41.703-122.047 -54.740  0.00  0.00     0.116 A 
ATOM     12  C   UNL d   1     -42.313-122.531 -55.034  0.00  0.00     0.116 A 
ATOM     13  C   UNL d   1     -42.520-123.216 -54.614  0.00  0.00     0.026 A 
ATOM     14  C   UNL d   1     -42.132-123.416 -53.921  0.00  0.00     0.002 A 
BRANCH  11  15
ATOM     15  O   UNL d   1     -41.489-121.362 -55.150  0.00  0.00    -0.326 OA
ATOM     16  C   UNL d   1     -41.733-120.619 -54.868  0.00  0.00     0.181 C 
ENDBRANCH  11  15
BRANCH  12  17
ATOM     17  O   UNL d   1     -42.705-122.337 -55.725  0.00  0.00    -0.326 OA
ATOM     18  C   UNL d   1     -43.482-122.589 -55.849  0.00  0.00     0.181 C 
ENDBRANCH  12  17
ENDBRANCH   8   9
ENDBRANCH   4   8
BRANCH   1  19
ATOM     19  C   UNL d   1     -41.974-122.501 -50.235  0.00  0.00     0.183 A 
ATOM     20  N   UNL d   1     -42.741-122.347 -49.994  0.00  0.00    -0.220 NA
ATOM     21  C   UNL d   1     -42.796-122.498 -49.187  0.00  0.00     0.108 A 
ATOM     22  C   UNL d   1     -42.051-122.749 -48.926  0.00  0.00     0.059 A 
ATOM     23  S   UNL d   1     -41.547-122.749 -49.574  0.00  0.00    -0.048 SA
ENDBRANCH   1  19
TORSDOF 5
ENDMDL
