MODEL 1
REMARK VINA RESULT:      83.6      0.000      0.000
REMARK  2 active torsions:
REMARK  status: ('A' for Active; 'I' for Inactive)
REMARK    1  A    between atoms: C_9  and  C_1 
REMARK    2  A    between atoms: N_7  and  C_2 
ROOT
ATOM      1  C   UNL d   1      59.139  49.308  50.889  0.00  0.00     0.022 A 
ATOM      2  C   UNL d   1      59.605  49.367  50.217  0.00  0.00     0.123 A 
ATOM      3  C   UNL d   1      59.268  49.535  49.499  0.00  0.00     0.295 A 
ATOM      4  C   UNL d   1      58.312  49.423  50.835  0.00  0.00     0.020 A 
ATOM      5  N   UNL d   1      58.458  49.649  49.434  0.00  0.00    -0.207 NA
ATOM      6  C   UNL d   1      57.976  49.591  50.117  0.00  0.00     0.085 A 
ATOM      7  C   UNL d   1      57.853  49.364  51.503  0.00  0.00     0.013 A 
ATOM      8  O   UNL d   1      59.778  49.587  48.828  0.00  0.00    -0.264 OA
ATOM      9  C   UNL d   1      57.173  49.705  50.048  0.00  0.00     0.020 A 
ATOM     10  C   UNL d   1      57.026  49.479  51.450  0.00  0.00     0.058 A 
ATOM     11  C   UNL d   1      56.690  49.647  50.731  0.00  0.00     0.013 A 
ATOM     12 CL   UNL d   1      56.522  49.426  52.118  0.00  0.00    -0.082 Cl
ENDROOT
BRANCH   1  13
ATOM     13  C   UNL d   1      59.485  49.136  51.628  0.00  0.00     0.002 A 
ATOM     14  C   UNL d   1      59.358  48.412  51.980  0.00  0.00     0.000 A 
ATOM     15  C   UNL d   1      59.700  48.241  52.709  0.00  0.00     0.000 A 
ATOM     16  C   UNL d   1      60.170  48.809  53.080  0.00  0.00     0.000 A 
ATOM     17  C   UNL d   1      60.300  49.535  52.731  0.00  0.00     0.000 A 
ATOM     18  C   UNL d   1      59.953  49.708  51.992  0.00  0.00     0.000 A 
ENDBRANCH   1  13
BRANCH   2  19
ATOM     19  N   UNL d   1      60.403  49.254  50.285  0.00  0.00    -0.296 N 
ATOM     20  C   UNL d   1      60.776  48.676  49.814  0.00  0.00     0.107 A 
ATOM     21  C   UNL d   1      61.594  48.551  49.874  0.00  0.00     0.142 A 
ATOM     22  O   UNL d   1      62.042  49.007  50.409  0.00  0.00    -0.300 OA
ATOM     23  C   UNL d   1      61.672  49.577  50.873  0.00  0.00     0.142 A 
ATOM     24  C   UNL d   1      60.855  49.708  50.819  0.00  0.00     0.107 A 
ENDBRANCH   2  19
TORSDOF 2
ENDMDL
