MODEL 1
REMARK VINA RESULT:      -6.8      0.000      0.000
REMARK  4 active torsions:
REMARK  status: ('A' for Active; 'I' for Inactive)
REMARK    1  A    between atoms: C_8  and  C_1 
REMARK    2  A    between atoms: C_6  and  C_16 
REMARK    3  A    between atoms: O_13  and  C_8 
REMARK    4  A    between atoms: C_16  and  O_13 
ROOT
ATOM      1  C   UNL d   1     -40.429  14.322  18.608  0.00  0.00     0.305 C 
ATOM      2  O   UNL d   1     -41.216  14.034  18.610  0.00  0.00    -0.259 OA
ENDROOT
BRANCH   1   3
ATOM      3  C   UNL d   1     -39.965  14.366  17.871  0.00  0.00     0.127 A 
ATOM      4  C   UNL d   1     -40.120  14.980  17.319  0.00  0.00     0.305 A 
ATOM      5  O   UNL d   1     -39.671  14.987  16.649  0.00  0.00    -0.273 OA
ATOM      6  O   UNL d   1     -40.700  15.546  17.454  0.00  0.00    -0.259 OA
ATOM      7  C   UNL d   1     -39.096  14.434  16.506  0.00  0.00     0.103 A 
ATOM      8  C   UNL d   1     -38.956  13.832  17.064  0.00  0.00     0.023 A 
ATOM      9  C   UNL d   1     -38.644  14.440  15.833  0.00  0.00     0.025 A 
ATOM     10  C   UNL d   1     -39.406  13.804  17.762  0.00  0.00     0.013 A 
ATOM     11  C   UNL d   1     -38.380  13.256  16.947  0.00  0.00     0.002 A 
ATOM     12  C   UNL d   1     -37.940  13.294  16.250  0.00  0.00     0.000 A 
ATOM     13  C   UNL d   1     -38.066  13.883  15.689  0.00  0.00     0.002 A 
ENDBRANCH   1   3
BRANCH   1  14
ATOM     14  O   UNL d   1     -40.091  14.565  19.304  0.00  0.00    -0.269 OA
BRANCH  14  15
ATOM     15  C   UNL d   1     -40.448  14.425  20.007  0.00  0.00     0.152 C 
BRANCH  15  16
ATOM     16  C   UNL d   1     -40.086  14.686  20.710  0.00  0.00     0.136 A 
ATOM     17  N   UNL d   1     -40.016  15.439  21.026  0.00  0.00    -0.236 NA
ATOM     18  C   UNL d   1     -39.603  15.366  21.732  0.00  0.00     0.088 A 
ATOM     19  C   UNL d   1     -39.364  15.922  22.295  0.00  0.00     0.020 A 
ATOM     20  C   UNL d   1     -39.428  14.565  21.832  0.00  0.00     0.049 A 
ATOM     21  C   UNL d   1     -38.941  15.694  22.978  0.00  0.00     0.002 A 
ATOM     22  C   UNL d   1     -38.777  14.899  23.059  0.00  0.00     0.001 A 
ATOM     23  C   UNL d   1     -39.015  14.324  22.493  0.00  0.00     0.008 A 
ATOM     24  S   UNL d   1     -39.725  14.159  21.205  0.00  0.00    -0.064 SA
ENDBRANCH  15  16
ENDBRANCH  14  15
ENDBRANCH   1  14
TORSDOF 4
ENDMDL
MODEL 2
REMARK VINA RESULT:      -6.6      7.821      9.369
REMARK  4 active torsions:
REMARK  status: ('A' for Active; 'I' for Inactive)
REMARK    1  A    between atoms: C_8  and  C_1 
REMARK    2  A    between atoms: C_6  and  C_16 
REMARK    3  A    between atoms: O_13  and  C_8 
REMARK    4  A    between atoms: C_16  and  O_13 
ROOT
ATOM      1  C   UNL d   1     -46.251  13.293  22.949  0.00  0.00     0.305 C 
ATOM      2  O   UNL d   1     -46.067  14.054  23.250  0.00  0.00    -0.259 OA
ENDROOT
BRANCH   1   3
ATOM      3  C   UNL d   1     -45.657  12.654  22.941  0.00  0.00     0.127 A 
ATOM      4  C   UNL d   1     -44.923  12.776  22.552  0.00  0.00     0.305 A 
ATOM      5  O   UNL d   1     -44.399  12.161  22.565  0.00  0.00    -0.273 OA
ATOM      6  O   UNL d   1     -44.745  13.484  22.175  0.00  0.00    -0.259 OA
ATOM      7  C   UNL d   1     -44.565  11.459  22.934  0.00  0.00     0.103 A 
ATOM      8  C   UNL d   1     -45.298  11.356  23.315  0.00  0.00     0.023 A 
ATOM      9  C   UNL d   1     -44.040  10.841  22.949  0.00  0.00     0.025 A 
ATOM     10  C   UNL d   1     -45.853  11.975  23.314  0.00  0.00     0.013 A 
ATOM     11  C   UNL d   1     -45.494  10.655  23.698  0.00  0.00     0.002 A 
ATOM     12  C   UNL d   1     -44.935  10.048  23.692  0.00  0.00     0.000 A 
ATOM     13  C   UNL d   1     -44.206  10.135  23.320  0.00  0.00     0.002 A 
ENDBRANCH   1   3
BRANCH   1  14
ATOM     14  O   UNL d   1     -46.995  13.147  22.659  0.00  0.00    -0.269 OA
BRANCH  14  15
ATOM     15  C   UNL d   1     -47.530  13.737  22.583  0.00  0.00     0.152 C 
BRANCH  15  16
ATOM     16  C   UNL d   1     -48.311  13.555  22.360  0.00  0.00     0.136 A 
ATOM     17  N   UNL d   1     -48.614  12.908  21.958  0.00  0.00    -0.236 NA
ATOM     18  C   UNL d   1     -49.425  13.023  21.893  0.00  0.00     0.088 A 
ATOM     19  C   UNL d   1     -50.024  12.569  21.550  0.00  0.00     0.020 A 
ATOM     20  C   UNL d   1     -49.601  13.743  22.259  0.00  0.00     0.049 A 
ATOM     21  C   UNL d   1     -50.821  12.820  21.562  0.00  0.00     0.002 A 
ATOM     22  C   UNL d   1     -50.974  13.533  21.928  0.00  0.00     0.001 A 
ATOM     23  C   UNL d   1     -50.373  14.004  22.281  0.00  0.00     0.008 A 
ATOM     24  S   UNL d   1     -48.917  14.059  22.540  0.00  0.00    -0.064 SA
ENDBRANCH  15  16
ENDBRANCH  14  15
ENDBRANCH   1  14
TORSDOF 4
ENDMDL
MODEL 3
REMARK VINA RESULT:      -6.3      1.473      5.038
REMARK  4 active torsions:
REMARK  status: ('A' for Active; 'I' for Inactive)
REMARK    1  A    between atoms: C_8  and  C_1 
REMARK    2  A    between atoms: C_6  and  C_16 
REMARK    3  A    between atoms: O_13  and  C_8 
REMARK    4  A    between atoms: C_16  and  O_13 
ROOT
ATOM      1  C   UNL d   1     -40.289  14.408  20.428  0.00  0.00     0.305 C 
ATOM      2  O   UNL d   1     -41.127  14.375  20.407  0.00  0.00    -0.259 OA
ENDROOT
BRANCH   1   3
ATOM      3  C   UNL d   1     -39.860  14.516  21.180  0.00  0.00     0.127 A 
ATOM      4  C   UNL d   1     -39.850  15.271  21.547  0.00  0.00     0.305 A 
ATOM      5  O   UNL d   1     -39.443  15.331  22.242  0.00  0.00    -0.273 OA
ATOM      6  O   UNL d   1     -40.236  15.917  21.218  0.00  0.00    -0.259 OA
ATOM      7  C   UNL d   1     -39.059  14.700  22.575  0.00  0.00     0.103 A 
ATOM      8  C   UNL d   1     -39.079  13.959  22.197  0.00  0.00     0.023 A 
ATOM      9  C   UNL d   1     -38.649  14.759  23.272  0.00  0.00     0.025 A 
ATOM     10  C   UNL d   1     -39.492  13.872  21.481  0.00  0.00     0.013 A 
ATOM     11  C   UNL d   1     -38.699  13.300  22.511  0.00  0.00     0.002 A 
ATOM     12  C   UNL d   1     -38.292  13.398  23.222  0.00  0.00     0.000 A 
ATOM     13  C   UNL d   1     -38.263  14.124  23.608  0.00  0.00     0.002 A 
ENDBRANCH   1   3
BRANCH   1  14
ATOM     14  O   UNL d   1     -39.869  14.340  19.738  0.00  0.00    -0.269 OA
BRANCH  14  15
ATOM     15  C   UNL d   1     -40.241  14.226  19.038  0.00  0.00     0.152 C 
BRANCH  15  16
ATOM     16  C   UNL d   1     -39.790  14.100  18.350  0.00  0.00     0.136 A 
ATOM     17  N   UNL d   1     -39.334  13.459  18.121  0.00  0.00    -0.236 NA
ATOM     18  C   UNL d   1     -39.014  13.641  17.387  0.00  0.00     0.088 A 
ATOM     19  C   UNL d   1     -38.515  13.221  16.880  0.00  0.00     0.020 A 
ATOM     20  C   UNL d   1     -39.283  14.395  17.182  0.00  0.00     0.049 A 
ATOM     21  C   UNL d   1     -38.268  13.542  16.149  0.00  0.00     0.002 A 
ATOM     22  C   UNL d   1     -38.544  14.287  15.965  0.00  0.00     0.001 A 
ATOM     23  C   UNL d   1     -39.052  14.725  16.473  0.00  0.00     0.008 A 
ATOM     24  S   UNL d   1     -39.755  14.666  17.774  0.00  0.00    -0.064 SA
ENDBRANCH  15  16
ENDBRANCH  14  15
ENDBRANCH   1  14
TORSDOF 4
ENDMDL
MODEL 4
REMARK VINA RESULT:      -5.3      1.380      2.022
REMARK  4 active torsions:
REMARK  status: ('A' for Active; 'I' for Inactive)
REMARK    1  A    between atoms: C_8  and  C_1 
REMARK    2  A    between atoms: C_6  and  C_16 
REMARK    3  A    between atoms: O_13  and  C_8 
REMARK    4  A    between atoms: C_16  and  O_13 
ROOT
ATOM      1  C   UNL d   1     -38.826  13.997  18.752  0.00  0.00     0.305 C 
ATOM      2  O   UNL d   1     -38.456  13.271  18.555  0.00  0.00    -0.259 OA
ENDROOT
BRANCH   1   3
ATOM      3  C   UNL d   1     -39.218  14.485  18.143  0.00  0.00     0.127 A 
ATOM      4  C   UNL d   1     -38.757  14.852  17.547  0.00  0.00     0.305 A 
ATOM      5  O   UNL d   1     -39.154  15.295  17.001  0.00  0.00    -0.273 OA
ATOM      6  O   UNL d   1     -37.939  14.767  17.517  0.00  0.00    -0.259 OA
ATOM      7  C   UNL d   1     -39.959  15.386  17.022  0.00  0.00     0.103 A 
ATOM      8  C   UNL d   1     -40.402  15.014  17.621  0.00  0.00     0.023 A 
ATOM      9  C   UNL d   1     -40.361  15.830  16.475  0.00  0.00     0.025 A 
ATOM     10  C   UNL d   1     -40.013  14.553  18.193  0.00  0.00     0.013 A 
ATOM     11  C   UNL d   1     -41.220  15.088  17.667  0.00  0.00     0.002 A 
ATOM     12  C   UNL d   1     -41.594  15.548  17.093  0.00  0.00     0.000 A 
ATOM     13  C   UNL d   1     -41.171  15.922  16.495  0.00  0.00     0.002 A 
ENDBRANCH   1   3
BRANCH   1  14
ATOM     14  O   UNL d   1     -38.821  14.252  19.522  0.00  0.00    -0.269 OA
BRANCH  14  15
ATOM     15  C   UNL d   1     -38.554  13.780  20.110  0.00  0.00     0.152 C 
BRANCH  15  16
ATOM     16  C   UNL d   1     -38.582  14.051  20.897  0.00  0.00     0.136 A 
ATOM     17  N   UNL d   1     -38.627  14.812  21.198  0.00  0.00    -0.236 NA
ATOM     18  C   UNL d   1     -38.638  14.747  22.017  0.00  0.00     0.088 A 
ATOM     19  C   UNL d   1     -38.677  15.312  22.617  0.00  0.00     0.020 A 
ATOM     20  C   UNL d   1     -38.600  13.942  22.200  0.00  0.00     0.049 A 
ATOM     21  C   UNL d   1     -38.680  15.091  23.423  0.00  0.00     0.002 A 
ATOM     22  C   UNL d   1     -38.642  14.292  23.583  0.00  0.00     0.001 A 
ATOM     23  C   UNL d   1     -38.601  13.707  22.981  0.00  0.00     0.008 A 
ATOM     24  S   UNL d   1     -38.566  13.526  21.512  0.00  0.00    -0.064 SA
ENDBRANCH  15  16
ENDBRANCH  14  15
ENDBRANCH   1  14
TORSDOF 4
ENDMDL
MODEL 5
REMARK VINA RESULT:      -4.3      7.423      8.992
REMARK  4 active torsions:
REMARK  status: ('A' for Active; 'I' for Inactive)
REMARK    1  A    between atoms: C_8  and  C_1 
REMARK    2  A    between atoms: C_6  and  C_16 
REMARK    3  A    between atoms: O_13  and  C_8 
REMARK    4  A    between atoms: C_16  and  O_13 
ROOT
ATOM      1  C   UNL d   1     -47.393  12.847  22.982  0.00  0.00     0.305 C 
ATOM      2  O   UNL d   1     -47.417  12.406  23.695  0.00  0.00    -0.259 OA
ENDROOT
BRANCH   1   3
ATOM      3  C   UNL d   1     -48.116  13.196  22.641  0.00  0.00     0.127 A 
ATOM      4  C   UNL d   1     -48.285  14.008  22.771  0.00  0.00     0.305 A 
ATOM      5  O   UNL d   1     -48.963  14.295  22.440  0.00  0.00    -0.273 OA
ATOM      6  O   UNL d   1     -47.786  14.489  23.213  0.00  0.00    -0.259 OA
ATOM      7  C   UNL d   1     -49.462  13.830  22.003  0.00  0.00     0.103 A 
ATOM      8  C   UNL d   1     -49.278  13.027  21.884  0.00  0.00     0.023 A 
ATOM      9  C   UNL d   1     -50.143  14.116  21.670  0.00  0.00     0.025 A 
ATOM     10  C   UNL d   1     -48.585  12.709  22.215  0.00  0.00     0.013 A 
ATOM     11  C   UNL d   1     -49.766  12.530  21.445  0.00  0.00     0.002 A 
ATOM     12  C   UNL d   1     -50.450  12.857  21.121  0.00  0.00     0.000 A 
ATOM     13  C   UNL d   1     -50.646  13.649  21.230  0.00  0.00     0.002 A 
ENDBRANCH   1   3
BRANCH   1  14
ATOM     14  O   UNL d   1     -46.684  12.952  22.601  0.00  0.00    -0.269 OA
BRANCH  14  15
ATOM     15  C   UNL d   1     -46.085  12.429  22.695  0.00  0.00     0.152 C 
BRANCH  15  16
ATOM     16  C   UNL d   1     -45.345  12.588  22.346  0.00  0.00     0.136 A 
ATOM     17  N   UNL d   1     -45.092  13.225  21.898  0.00  0.00    -0.236 NA
ATOM     18  C   UNL d   1     -44.307  13.085  21.702  0.00  0.00     0.088 A 
ATOM     19  C   UNL d   1     -43.759  13.521  21.264  0.00  0.00     0.020 A 
ATOM     20  C   UNL d   1     -44.096  12.360  22.037  0.00  0.00     0.049 A 
ATOM     21  C   UNL d   1     -42.979  13.246  21.146  0.00  0.00     0.002 A 
ATOM     22  C   UNL d   1     -42.790  12.528  21.484  0.00  0.00     0.001 A 
ATOM     23  C   UNL d   1     -43.339  12.075  21.932  0.00  0.00     0.008 A 
ATOM     24  S   UNL d   1     -44.734  12.065  22.427  0.00  0.00    -0.064 SA
ENDBRANCH  15  16
ENDBRANCH  14  15
ENDBRANCH   1  14
TORSDOF 4
ENDMDL
