MODEL 1
REMARK VINA RESULT:       4.4      0.000      0.000
REMARK  5 active torsions:
REMARK  status: ('A' for Active; 'I' for Inactive)
REMARK    1  A    between atoms: N_6  and  S_1 
REMARK    2  A    between atoms: C_11  and  S_1 
REMARK    3  A    between atoms: C_2  and  N_8 
REMARK    4  A    between atoms: C_10  and  C_3 
REMARK       I    between atoms: N_8  and  C_9 
REMARK    5  A    between atoms: C_9  and  C_17 
REMARK       I    between atoms: N_26  and  C_10 
ROOT
ATOM      1  N   UNL d   1      57.844  -1.333  30.687  0.00  0.00    -0.201 NA
ATOM      2  C   UNL d   1      57.706  -1.645  31.449  0.00  0.00     0.280 C 
ATOM      3  O   UNL d   1      58.149  -2.298  31.709  0.00  0.00    -0.265 OA
ENDROOT
BRANCH   2   4
ATOM      4  C   UNL d   1      57.130  -1.300  31.933  0.00  0.00     0.058 A 
ATOM      5  C   UNL d   1      56.692  -1.792  32.430  0.00  0.00     0.005 A 
ATOM      6  C   UNL d   1      56.111  -1.457  32.920  0.00  0.00     0.013 A 
ATOM      7  C   UNL d   1      55.979  -0.640  32.905  0.00  0.00     0.104 A 
ATOM      8  C   UNL d   1      56.430  -0.161  32.399  0.00  0.00     0.013 A 
ATOM      9  C   UNL d   1      57.007  -0.502  31.913  0.00  0.00     0.005 A 
BRANCH   7  10
ATOM     10  S   UNL d   1      55.405  -0.307  33.390  0.00  0.00     0.271 S 
ATOM     11  O   UNL d   1      54.935  -0.121  32.747  0.00  0.00    -0.200 OA
ATOM     12  O   UNL d   1      55.890  -0.500  34.040  0.00  0.00    -0.200 OA
BRANCH  10  13
ATOM     13  N   UNL d   1      54.839   0.022  33.871  0.00  0.00    -0.231 N 
ATOM     14  C   UNL d   1      55.039   0.348  34.595  0.00  0.00     0.075 A 
ATOM     15  C   UNL d   1      55.829   0.345  34.842  0.00  0.00     0.020 C 
ATOM     16  C   UNL d   1      54.464   0.678  35.074  0.00  0.00     0.018 A 
ATOM     17  C   UNL d   1      53.674   0.681  34.827  0.00  0.00     0.003 A 
ATOM     18  C   UNL d   1      53.472   0.357  34.106  0.00  0.00     0.020 A 
ATOM     19  C   UNL d   1      54.054   0.032  33.639  0.00  0.00     0.092 A 
ENDBRANCH  10  13
ENDBRANCH   7  10
ENDBRANCH   2   4
BRANCH   1  20
ATOM     20  C   UNL d   1      58.422  -1.682  30.206  0.00  0.00     0.119 A 
ATOM     21  C   UNL d   1      58.898  -1.272  29.669  0.00  0.00     0.082 A 
ATOM     22  C   UNL d   1      59.397  -1.810  29.300  0.00  0.00     0.016 A 
ATOM     23  C   UNL d   1      59.977  -1.717  28.728  0.00  0.00     0.020 A 
ATOM     24  C   UNL d   1      59.234  -2.557  29.606  0.00  0.00     0.049 A 
ATOM     25  C   UNL d   1      60.399  -2.376  28.458  0.00  0.00     0.080 A 
ATOM     26  N   UNL d   1      60.240  -3.128  28.760  0.00  0.00    -0.301 N 
ATOM     27  C   UNL d   1      59.654  -3.211  29.335  0.00  0.00     0.087 A 
ATOM     28  C   UNL d   1      60.655  -3.776  28.493  0.00  0.00     0.100 C 
ATOM     29  S   UNL d   1      58.627  -2.474  30.169  0.00  0.00    -0.066 SA
BRANCH  21  30
ATOM     30  C   UNL d   1      58.882  -0.463  29.522  0.00  0.00     0.281 C 
ATOM     31  O   UNL d   1      59.376   0.021  29.936  0.00  0.00    -0.265 OA
ATOM     32  N   UNL d   1      58.366  -0.157  28.957  0.00  0.00    -0.205 NA
ATOM     33  C   UNL d   1      58.340   0.649  28.800  0.00  0.00     0.123 C 
ENDBRANCH  21  30
ENDBRANCH   1  20
TORSDOF 5
ENDMDL
MODEL 2
REMARK VINA RESULT:       5.7      3.320      6.431
REMARK  5 active torsions:
REMARK  status: ('A' for Active; 'I' for Inactive)
REMARK    1  A    between atoms: N_6  and  S_1 
REMARK    2  A    between atoms: C_11  and  S_1 
REMARK    3  A    between atoms: C_2  and  N_8 
REMARK    4  A    between atoms: C_10  and  C_3 
REMARK       I    between atoms: N_8  and  C_9 
REMARK    5  A    between atoms: C_9  and  C_17 
REMARK       I    between atoms: N_26  and  C_10 
ROOT
ATOM      1  N   UNL d   1      58.803  -3.018  29.203  0.00  0.00    -0.201 NA
ATOM      2  C   UNL d   1      59.245  -3.637  28.859  0.00  0.00     0.280 C 
ATOM      3  O   UNL d   1      60.013  -3.484  28.580  0.00  0.00    -0.265 OA
ENDROOT
BRANCH   2   4
ATOM      4  C   UNL d   1      58.913  -4.393  28.802  0.00  0.00     0.058 A 
ATOM      5  C   UNL d   1      59.366  -5.038  29.047  0.00  0.00     0.005 A 
ATOM      6  C   UNL d   1      59.043  -5.801  28.994  0.00  0.00     0.013 A 
ATOM      7  C   UNL d   1      58.277  -5.906  28.700  0.00  0.00     0.104 A 
ATOM      8  C   UNL d   1      57.836  -5.245  28.459  0.00  0.00     0.013 A 
ATOM      9  C   UNL d   1      58.164  -4.487  28.515  0.00  0.00     0.005 A 
BRANCH   7  10
ATOM     10  S   UNL d   1      57.956  -6.661  28.648  0.00  0.00     0.271 S 
ATOM     11  O   UNL d   1      58.684  -6.984  28.461  0.00  0.00    -0.200 OA
ATOM     12  O   UNL d   1      57.218  -6.323  28.838  0.00  0.00    -0.200 OA
BRANCH  10  13
ATOM     13  N   UNL d   1      57.636  -7.406  28.596  0.00  0.00    -0.231 N 
ATOM     14  C   UNL d   1      58.114  -8.071  28.621  0.00  0.00     0.075 A 
ATOM     15  C   UNL d   1      58.933  -7.986  28.700  0.00  0.00     0.020 C 
ATOM     16  C   UNL d   1      57.785  -8.819  28.569  0.00  0.00     0.018 A 
ATOM     17  C   UNL d   1      56.966  -8.904  28.490  0.00  0.00     0.003 A 
ATOM     18  C   UNL d   1      56.488  -8.243  28.465  0.00  0.00     0.020 A 
ATOM     19  C   UNL d   1      56.828  -7.505  28.518  0.00  0.00     0.092 A 
ENDBRANCH  10  13
ENDBRANCH   7  10
ENDBRANCH   2   4
BRANCH   1  20
ATOM     20  C   UNL d   1      59.140  -2.262  29.258  0.00  0.00     0.119 A 
ATOM     21  C   UNL d   1      58.772  -1.607  29.603  0.00  0.00     0.082 A 
ATOM     22  C   UNL d   1      59.283  -0.965  29.549  0.00  0.00     0.016 A 
ATOM     23  C   UNL d   1      59.211  -0.186  29.795  0.00  0.00     0.020 A 
ATOM     24  C   UNL d   1      59.969  -1.218  29.171  0.00  0.00     0.049 A 
ATOM     25  C   UNL d   1      59.830   0.346  29.662  0.00  0.00     0.080 A 
ATOM     26  N   UNL d   1      60.522   0.099  29.283  0.00  0.00    -0.301 N 
ATOM     27  C   UNL d   1      60.584  -0.687  29.040  0.00  0.00     0.087 A 
ATOM     28  C   UNL d   1      61.131   0.624  29.153  0.00  0.00     0.100 C 
ATOM     29  S   UNL d   1      59.877  -2.025  28.991  0.00  0.00    -0.066 SA
BRANCH  21  30
ATOM     30  C   UNL d   1      58.025  -1.591  29.944  0.00  0.00     0.281 C 
ATOM     31  O   UNL d   1      57.407  -1.294  29.521  0.00  0.00    -0.265 OA
ATOM     32  N   UNL d   1      57.915  -1.875  30.709  0.00  0.00    -0.205 NA
ATOM     33  C   UNL d   1      57.173  -1.865  31.063  0.00  0.00     0.123 C 
ENDBRANCH  21  30
ENDBRANCH   1  20
TORSDOF 5
ENDMDL
