MODEL 1
REMARK VINA RESULT:      25.9      0.000      0.000
REMARK  7 active torsions:
REMARK  status: ('A' for Active; 'I' for Inactive)
REMARK    1  A    between atoms: N_2  and  S_1 
REMARK    2  A    between atoms: C_5  and  S_1 
REMARK    3  A    between atoms: C_3  and  N_2 
REMARK    4  A    between atoms: C_4  and  C_3 
REMARK    5  A    between atoms: C_8  and  C_3 
REMARK    6  A    between atoms: C_17  and  C_8 
REMARK    7  A    between atoms: C_9  and  C_10 
ROOT
ATOM      1  S   UNL d   1      46.113 -16.496  44.194  0.00  0.00     0.285 S 
ATOM      2  O   UNL d   1      46.402 -16.393  44.954  0.00  0.00    -0.198 OA
ATOM      3  O   UNL d   1      46.314 -17.306  44.228  0.00  0.00    -0.198 OA
ENDROOT
BRANCH   1   4
ATOM      4  N   UNL d   1      45.826 -16.599  43.436  0.00  0.00    -0.152 NA
BRANCH   4   5
ATOM      5  C   UNL d   1      45.785 -17.341  43.110  0.00  0.00     0.158 C 
BRANCH   5   6
ATOM      6  C   UNL d   1      45.227 -17.878  43.373  0.00  0.00     0.230 C 
ATOM      7  O   UNL d   1      44.445 -17.668  43.418  0.00  0.00    -0.643 OA
ATOM      8  O   UNL d   1      45.461 -18.638  43.594  0.00  0.00    -0.643 OA
ENDBRANCH   5   6
BRANCH   5   9
ATOM      9  C   UNL d   1      46.309 -17.555  42.510  0.00  0.00     0.026 C 
BRANCH   9  10
ATOM     10  C   UNL d   1      46.384 -18.345  42.283  0.00  0.00     0.002 A 
ATOM     11  C   UNL d   1      46.567 -18.929  42.843  0.00  0.00     0.000 A 
ATOM     12  C   UNL d   1      46.641 -19.715  42.615  0.00  0.00     0.000 A 
ATOM     13  C   UNL d   1      46.534 -19.926  41.827  0.00  0.00     0.000 A 
ATOM     14  C   UNL d   1      46.347 -19.339  41.246  0.00  0.00     0.000 A 
ATOM     15  C   UNL d   1      46.278 -18.555  41.500  0.00  0.00     0.000 A 
ENDBRANCH   9  10
ENDBRANCH   5   9
ENDBRANCH   4   5
ENDBRANCH   1   4
BRANCH   1  16
ATOM     16  C   UNL d   1      45.916 -15.702  44.161  0.00  0.00     0.105 A 
ATOM     17  C   UNL d   1      46.505 -15.139  44.030  0.00  0.00     0.013 A 
ATOM     18  C   UNL d   1      46.308 -14.345  43.997  0.00  0.00    -0.004 A 
ATOM     19  C   UNL d   1      45.522 -14.114  44.095  0.00  0.00    -0.023 A 
ATOM     20  C   UNL d   1      44.917 -14.680  44.228  0.00  0.00    -0.004 A 
ATOM     21  C   UNL d   1      45.131 -15.471  44.259  0.00  0.00     0.013 A 
BRANCH  19  22
ATOM     22  C   UNL d   1      45.348 -13.306  44.057  0.00  0.00     0.019 C 
ATOM     23  C   UNL d   1      45.088 -13.339  44.833  0.00  0.00     0.004 C 
ATOM     24  C   UNL d   1      45.176 -12.514  44.024  0.00  0.00     0.004 C 
ATOM     25  C   UNL d   1      45.611 -13.285  43.282  0.00  0.00     0.004 C 
ENDBRANCH  19  22
ENDBRANCH   1  16
TORSDOF 7
ENDMDL
