MODEL 1
REMARK VINA RESULT:      -4.0      0.000      0.000
REMARK  4 active torsions:
REMARK  status: ('A' for Active; 'I' for Inactive)
REMARK    1  A    between atoms: C_6  and  S_1 
REMARK    2  A    between atoms: N_9  and  S_1 
REMARK    3  A    between atoms: C_17  and  N_9 
REMARK       I    between atoms: C_13  and  N_15 
REMARK    4  A    between atoms: N_15  and  C_18 
ROOT
ATOM      1  C   UNL d   1     -42.437-122.829 -49.614  0.00  0.00     0.054 A 
ATOM      2  C   UNL d   1     -41.786-123.187 -49.289  0.00  0.00     0.196 A 
ATOM      3  C   UNL d   1     -43.067-122.604 -49.184  0.00  0.00     0.043 A 
ATOM      4  C   UNL d   1     -43.085-122.726 -48.387  0.00  0.00     0.196 A 
ATOM      5  C   UNL d   1     -42.476-122.674 -50.452  0.00  0.00     0.108 A 
ATOM      6  C   UNL d   1     -41.772-123.326 -48.475  0.00  0.00     0.042 A 
ATOM      7  C   UNL d   1     -42.418-123.095 -48.036  0.00  0.00     0.042 A 
ATOM      8  O   UNL d   1     -41.146-123.401 -49.809  0.00  0.00    -0.286 OA
ATOM      9  O   UNL d   1     -43.760-122.484 -47.934  0.00  0.00    -0.287 OA
ATOM     10  C   UNL d   1     -43.738-122.233 -49.532  0.00  0.00     0.003 A 
ATOM     11  C   UNL d   1     -43.124-122.319 -50.768  0.00  0.00     0.013 A 
ATOM     12  C   UNL d   1     -41.126-123.688 -48.110  0.00  0.00     0.003 A 
ATOM     13  C   UNL d   1     -42.425-123.233 -47.173  0.00  0.00     0.003 A 
ATOM     14  C   UNL d   1     -43.752-122.094 -50.346  0.00  0.00     0.001 A 
ATOM     15  C   UNL d   1     -41.125-123.817 -47.320  0.00  0.00     0.000 A 
ATOM     16  C   UNL d   1     -41.773-123.591 -46.849  0.00  0.00     0.000 A 
ENDROOT
BRANCH   5  17
ATOM     17  S   UNL d   1     -41.821-122.897 -50.963  0.00  0.00     0.285 S 
ATOM     18  O   UNL d   1     -42.161-123.627 -51.074  0.00  0.00    -0.198 OA
ATOM     19  O   UNL d   1     -41.478-122.125 -50.835  0.00  0.00    -0.198 OA
BRANCH  17  20
ATOM     20  N   UNL d   1     -41.206-123.105 -51.443  0.00  0.00    -0.158 NA
BRANCH  20  21
ATOM     21  C   UNL d   1     -41.244-122.944 -52.271  0.00  0.00     0.094 A 
ATOM     22  C   UNL d   1     -41.123-122.187 -52.556  0.00  0.00     0.021 A 
ATOM     23  C   UNL d   1     -41.161-122.033 -53.376  0.00  0.00     0.021 A 
ATOM     24  C   UNL d   1     -41.326-122.663 -53.923  0.00  0.00     0.085 A 
ATOM     25  C   UNL d   1     -41.448-123.435 -53.615  0.00  0.00     0.021 A 
ATOM     26  C   UNL d   1     -41.410-123.577 -52.821  0.00  0.00     0.021 A 
BRANCH  24  27
ATOM     27  N   UNL d   1     -41.360-122.491 -54.725  0.00  0.00    -0.208 NA
ATOM     28  C   UNL d   1     -42.036-122.172 -55.088  0.00  0.00     0.279 C 
ATOM     29  O   UNL d   1     -42.715-122.025 -54.584  0.00  0.00    -0.265 OA
ATOM     30  C   UNL d   1     -42.101-121.988 -55.894  0.00  0.00     0.068 C 
ENDBRANCH  24  27
ENDBRANCH  20  21
ENDBRANCH  17  20
ENDBRANCH   5  17
TORSDOF 4
ENDMDL
