MODEL 1
REMARK VINA RESULT:      26.1      0.000      0.000
REMARK  3 active torsions:
REMARK  status: ('A' for Active; 'I' for Inactive)
REMARK    1  A    between atoms: N_2  and  S_1 
REMARK    2  A    between atoms: C_3  and  S_1 
REMARK    3  A    between atoms: O_17  and  C_11 
ROOT
ATOM      1  S   UNL d   1      14.119  12.703  -2.236  0.00  0.00     0.274 S 
ATOM      2  O   UNL d   1      14.812  12.290  -2.487  0.00  0.00    -0.199 OA
ATOM      3  O   UNL d   1      13.420  13.108  -2.008  0.00  0.00    -0.199 OA
ENDROOT
BRANCH   1   4
ATOM      4  N   UNL d   1      13.765  12.534  -2.972  0.00  0.00    -0.212 N 
ATOM      5  C   UNL d   1      13.627  11.780  -3.246  0.00  0.00     0.193 A 
ATOM      6  N   UNL d   1      13.259  11.870  -4.018  0.00  0.00    -0.223 NA
ATOM      7  C   UNL d   1      13.192  12.668  -4.176  0.00  0.00     0.100 A 
ATOM      8  C   UNL d   1      13.512  13.094  -3.515  0.00  0.00     0.094 A 
ATOM      9  C   UNL d   1      12.888  13.084  -4.822  0.00  0.00     0.021 A 
ATOM     10  C   UNL d   1      13.514  13.918  -3.531  0.00  0.00     0.020 A 
ATOM     11  C   UNL d   1      13.208  14.324  -4.180  0.00  0.00     0.002 A 
ATOM     12  C   UNL d   1      12.895  13.925  -4.826  0.00  0.00     0.002 A 
ENDBRANCH   1   4
BRANCH   1  13
ATOM     13  C   UNL d   1      14.492  12.873  -1.473  0.00  0.00     0.127 A 
ATOM     14  C   UNL d   1      15.134  13.369  -1.456  0.00  0.00     0.026 A 
ATOM     15  C   UNL d   1      15.481  13.520  -0.701  0.00  0.00     0.059 A 
ATOM     16 CL   UNL d   1      16.149  14.036  -0.676  0.00  0.00    -0.082 Cl
ATOM     17  C   UNL d   1      15.180  13.179  -0.016  0.00  0.00     0.013 A 
ATOM     18  C   UNL d   1      14.515  12.671  -0.068  0.00  0.00     0.026 A 
ATOM     19  C   UNL d   1      14.175  12.521  -0.801  0.00  0.00     0.106 A 
BRANCH  19  20
ATOM     20  O   UNL d   1      13.507  12.005  -0.826  0.00  0.00    -0.327 OA
ATOM     21  C   UNL d   1      13.105  11.780  -0.159  0.00  0.00     0.181 C 
ENDBRANCH  19  20
ENDBRANCH   1  13
TORSDOF 3
ENDMDL
